MODEL 1
REMARK VINA RESULT:     -10.1      0.000      0.000
REMARK  2 active torsions:
REMARK  status: ('A' for Active; 'I' for Inactive)
REMARK    1  A    between atoms: C_5  and  N_6 
REMARK    2  A    between atoms: C_9  and  C_10 
REMARK       I    between atoms: C_10  and  N_11 
ROOT
HETATM    1  N   UNL     1      -5.308   0.819 -32.675  1.00  0.00    -0.281 N 
HETATM    2  C   UNL     1      -4.285   1.792 -32.670  1.00  0.00     0.268 A 
HETATM    3  O   UNL     1      -3.074   1.582 -32.802  1.00  0.00    -0.267 OA
HETATM    4  C   UNL     1      -4.698   3.213 -32.550  1.00  0.00     0.101 A 
HETATM    5  C   UNL     1      -6.000   3.510 -32.448  1.00  0.00     0.040 A 
HETATM    6  C   UNL     1      -7.015   2.482 -32.426  1.00  0.00     0.034 A 
HETATM    7  C   UNL     1      -6.673   1.181 -32.528  1.00  0.00     0.034 A 
HETATM    8  C   UNL     1      -7.725   0.091 -32.379  1.00  0.00     0.059 C 
HETATM    9  C   UNL     1      -8.982   0.563 -31.653  1.00  0.00     0.014 C 
HETATM   10  C   UNL     1      -9.518   1.832 -32.282  1.00  0.00     0.084 C 
HETATM   11  C   UNL     1      -8.454   2.898 -32.294  1.00  0.00     0.161 C 
HETATM   12  O   UNL     1      -8.746   4.092 -32.267  1.00  0.00    -0.292 OA
ENDROOT
BRANCH   4  13
HETATM   13  C   UNL     1      -3.737   4.343 -32.574  1.00  0.00     0.262 C 
HETATM   14  N   UNL     1      -2.838   4.388 -31.466  1.00  0.00    -0.309 N 
HETATM   15  H   UNL     1      -3.006   3.692 -30.740  1.00  0.00     0.170 HD
HETATM   16  C   UNL     1      -1.814   5.193 -31.245  1.00  0.00     0.108 A 
HETATM   17  N   UNL     1      -1.083   5.072 -30.133  1.00  0.00    -0.346 N 
HETATM   18  C   UNL     1      -1.397   6.267 -32.208  1.00  0.00     0.049 A 
HETATM   19  C   UNL     1       0.018   5.882 -29.858  1.00  0.00     0.007 A 
HETATM   20  H   UNL     1      -1.325   4.363 -29.452  1.00  0.00     0.167 HD
HETATM   21  C   UNL     1       0.749   5.619 -28.576  1.00  0.00     0.068 C 
HETATM   22  C   UNL     1       0.392   6.841 -30.720  1.00  0.00     0.025 A 
HETATM   23  C   UNL     1      -0.341   7.047 -31.941  1.00  0.00     0.006 A 
HETATM   24  O   UNL     1      -3.683   5.174 -33.461  1.00  0.00    -0.267 OA
ENDBRANCH   4  13
BRANCH   1  25
HETATM   25  C   UNL     1      -4.900  -0.549 -32.849  1.00  0.00     0.042 A 
HETATM   26  C   UNL     1      -5.264  -1.257 -34.002  1.00  0.00     0.030 A 
HETATM   27  C   UNL     1      -4.782  -2.552 -34.220  1.00  0.00     0.009 A 
HETATM   28  C   UNL     1      -3.943  -3.167 -33.285  1.00  0.00    -0.062 A 
HETATM   29  C   UNL     1      -3.381  -4.538 -33.526  1.00  0.00     0.048 C 
HETATM   30  C   UNL     1      -3.621  -2.481 -32.109  1.00  0.00     0.009 A 
HETATM   31  C   UNL     1      -4.098  -1.186 -31.893  1.00  0.00     0.030 A 
ENDBRANCH   1  25
TORSDOF 2
ENDMDL
MODEL 2
REMARK VINA RESULT:     -10.1      1.340      4.263
REMARK  2 active torsions:
REMARK  status: ('A' for Active; 'I' for Inactive)
REMARK    1  A    between atoms: C_5  and  N_6 
REMARK    2  A    between atoms: C_9  and  C_10 
REMARK       I    between atoms: C_10  and  N_11 
ROOT
HETATM    1  N   UNL     1      -5.745   1.303 -32.785  1.00  0.00    -0.281 N 
HETATM    2  C   UNL     1      -5.161   2.589 -32.796  1.00  0.00     0.268 A 
HETATM    3  O   UNL     1      -5.754   3.660 -32.964  1.00  0.00    -0.267 OA
HETATM    4  C   UNL     1      -3.704   2.677 -32.525  1.00  0.00     0.101 A 
HETATM    5  C   UNL     1      -3.012   1.553 -32.291  1.00  0.00     0.040 A 
HETATM    6  C   UNL     1      -3.641   0.254 -32.319  1.00  0.00     0.034 A 
HETATM    7  C   UNL     1      -4.962   0.138 -32.567  1.00  0.00     0.034 A 
HETATM    8  C   UNL     1      -5.603  -1.234 -32.723  1.00  0.00     0.059 C 
HETATM    9  C   UNL     1      -4.599  -2.333 -33.057  1.00  0.00     0.014 C 
HETATM   10  C   UNL     1      -3.444  -2.318 -32.077  1.00  0.00     0.084 C 
HETATM   11  C   UNL     1      -2.792  -0.960 -32.060  1.00  0.00     0.161 C 
HETATM   12  O   UNL     1      -1.604  -0.825 -31.774  1.00  0.00    -0.292 OA
ENDROOT
BRANCH   4  13
HETATM   13  C   UNL     1      -2.965   3.962 -32.462  1.00  0.00     0.262 C 
HETATM   14  N   UNL     1      -2.208   4.159 -31.268  1.00  0.00    -0.309 N 
HETATM   15  H   UNL     1      -2.322   3.438 -30.556  1.00  0.00     0.170 HD
HETATM   16  C   UNL     1      -1.375   5.133 -30.951  1.00  0.00     0.108 A 
HETATM   17  N   UNL     1      -0.753   5.137 -29.768  1.00  0.00    -0.346 N 
HETATM   18  C   UNL     1      -1.061   6.273 -31.877  1.00  0.00     0.049 A 
HETATM   19  C   UNL     1       0.150   6.130 -29.389  1.00  0.00     0.007 A 
HETATM   20  H   UNL     1      -0.932   4.391 -29.109  1.00  0.00     0.167 HD
HETATM   21  C   UNL     1       0.780   5.993 -28.036  1.00  0.00     0.068 C 
HETATM   22  C   UNL     1       0.432   7.148 -30.218  1.00  0.00     0.025 A 
HETATM   23  C   UNL     1      -0.197   7.229 -31.510  1.00  0.00     0.006 A 
HETATM   24  O   UNL     1      -2.970   4.796 -33.348  1.00  0.00    -0.267 OA
ENDBRANCH   4  13
BRANCH   1  25
HETATM   25  C   UNL     1      -7.167   1.235 -32.992  1.00  0.00     0.042 A 
HETATM   26  C   UNL     1      -7.693   1.160 -34.287  1.00  0.00     0.030 A 
HETATM   27  C   UNL     1      -9.068   0.990 -34.484  1.00  0.00     0.009 A 
HETATM   28  C   UNL     1      -9.939   0.909 -33.394  1.00  0.00    -0.062 A 
HETATM   29  C   UNL     1     -11.411   0.681 -33.588  1.00  0.00     0.048 C 
HETATM   30  C   UNL     1      -9.421   1.036 -32.101  1.00  0.00     0.009 A 
HETATM   31  C   UNL     1      -8.048   1.200 -31.903  1.00  0.00     0.030 A 
ENDBRANCH   1  25
TORSDOF 2
ENDMDL
MODEL 3
REMARK VINA RESULT:     -10.0      1.962      5.189
REMARK  2 active torsions:
REMARK  status: ('A' for Active; 'I' for Inactive)
REMARK    1  A    between atoms: C_5  and  N_6 
REMARK    2  A    between atoms: C_9  and  C_10 
REMARK       I    between atoms: C_10  and  N_11 
ROOT
HETATM    1  N   UNL     1      -6.747  -0.023 -33.362  1.00  0.00    -0.281 N 
HETATM    2  C   UNL     1      -5.913   0.995 -32.848  1.00  0.00     0.268 A 
HETATM    3  O   UNL     1      -6.262   2.138 -32.534  1.00  0.00    -0.267 OA
HETATM    4  C   UNL     1      -4.489   0.650 -32.607  1.00  0.00     0.101 A 
HETATM    5  C   UNL     1      -4.059  -0.588 -32.885  1.00  0.00     0.040 A 
HETATM    6  C   UNL     1      -4.937  -1.592 -33.439  1.00  0.00     0.034 A 
HETATM    7  C   UNL     1      -6.235  -1.310 -33.674  1.00  0.00     0.034 A 
HETATM    8  C   UNL     1      -7.132  -2.322 -34.373  1.00  0.00     0.059 C 
HETATM    9  C   UNL     1      -6.355  -3.368 -35.167  1.00  0.00     0.014 C 
HETATM   10  C   UNL     1      -5.287  -4.008 -34.304  1.00  0.00     0.084 C 
HETATM   11  C   UNL     1      -4.373  -2.953 -33.737  1.00  0.00     0.161 C 
HETATM   12  O   UNL     1      -3.203  -3.206 -33.454  1.00  0.00    -0.292 OA
ENDROOT
BRANCH   4  13
HETATM   13  C   UNL     1      -3.509   1.603 -32.031  1.00  0.00     0.262 C 
HETATM   14  N   UNL     1      -3.342   2.811 -32.772  1.00  0.00    -0.309 N 
HETATM   15  H   UNL     1      -3.849   2.853 -33.656  1.00  0.00     0.170 HD
HETATM   16  C   UNL     1      -2.635   3.887 -32.480  1.00  0.00     0.108 A 
HETATM   17  N   UNL     1      -2.609   4.931 -33.314  1.00  0.00    -0.346 N 
HETATM   18  C   UNL     1      -1.839   4.022 -31.213  1.00  0.00     0.049 A 
HETATM   19  C   UNL     1      -1.894   6.098 -33.047  1.00  0.00     0.007 A 
HETATM   20  H   UNL     1      -3.128   4.888 -34.181  1.00  0.00     0.167 HD
HETATM   21  C   UNL     1      -1.971   7.189 -34.072  1.00  0.00     0.068 C 
HETATM   22  C   UNL     1      -1.184   6.219 -31.914  1.00  0.00     0.025 A 
HETATM   23  C   UNL     1      -1.150   5.143 -30.959  1.00  0.00     0.006 A 
HETATM   24  O   UNL     1      -2.891   1.407 -31.001  1.00  0.00    -0.267 OA
ENDBRANCH   4  13
BRANCH   1  25
HETATM   25  C   UNL     1      -8.136   0.305 -33.537  1.00  0.00     0.042 A 
HETATM   26  C   UNL     1      -9.094  -0.149 -32.622  1.00  0.00     0.030 A 
HETATM   27  C   UNL     1     -10.429   0.255 -32.734  1.00  0.00     0.009 A 
HETATM   28  C   UNL     1     -10.831   1.104 -33.769  1.00  0.00    -0.062 A 
HETATM   29  C   UNL     1     -12.250   1.583 -33.876  1.00  0.00     0.048 C 
HETATM   30  C   UNL     1      -9.887   1.517 -34.714  1.00  0.00     0.009 A 
HETATM   31  C   UNL     1      -8.552   1.118 -34.600  1.00  0.00     0.030 A 
ENDBRANCH   1  25
TORSDOF 2
ENDMDL
MODEL 4
REMARK VINA RESULT:      -9.6      1.718      4.809
REMARK  2 active torsions:
REMARK  status: ('A' for Active; 'I' for Inactive)
REMARK    1  A    between atoms: C_5  and  N_6 
REMARK    2  A    between atoms: C_9  and  C_10 
REMARK       I    between atoms: C_10  and  N_11 
ROOT
HETATM    1  N   UNL     1      -6.217   2.758 -32.123  1.00  0.00    -0.281 N 
HETATM    2  C   UNL     1      -5.218   3.755 -32.081  1.00  0.00     0.268 A 
HETATM    3  O   UNL     1      -5.391   4.956 -31.845  1.00  0.00    -0.267 OA
HETATM    4  C   UNL     1      -3.813   3.319 -32.286  1.00  0.00     0.101 A 
HETATM    5  C   UNL     1      -3.555   2.022 -32.503  1.00  0.00     0.040 A 
HETATM    6  C   UNL     1      -4.609   1.038 -32.568  1.00  0.00     0.034 A 
HETATM    7  C   UNL     1      -5.896   1.401 -32.391  1.00  0.00     0.034 A 
HETATM    8  C   UNL     1      -7.019   0.391 -32.584  1.00  0.00     0.059 C 
HETATM    9  C   UNL     1      -6.606  -0.814 -33.425  1.00  0.00     0.014 C 
HETATM   10  C   UNL     1      -5.331  -1.429 -32.888  1.00  0.00     0.084 C 
HETATM   11  C   UNL     1      -4.237  -0.395 -32.829  1.00  0.00     0.161 C 
HETATM   12  O   UNL     1      -3.052  -0.712 -32.924  1.00  0.00    -0.292 OA
ENDROOT
BRANCH   4  13
HETATM   13  C   UNL     1      -2.657   4.248 -32.227  1.00  0.00     0.262 C 
HETATM   14  N   UNL     1      -2.483   4.907 -30.973  1.00  0.00    -0.309 N 
HETATM   15  H   UNL     1      -3.215   4.734 -30.284  1.00  0.00     0.170 HD
HETATM   16  C   UNL     1      -1.510   5.702 -30.568  1.00  0.00     0.108 A 
HETATM   17  N   UNL     1      -1.527   6.226 -29.339  1.00  0.00    -0.346 N 
HETATM   18  C   UNL     1      -0.334   6.058 -31.431  1.00  0.00     0.049 A 
HETATM   19  C   UNL     1      -0.517   7.056 -28.854  1.00  0.00     0.007 A 
HETATM   20  H   UNL     1      -2.299   6.017 -28.719  1.00  0.00     0.167 HD
HETATM   21  C   UNL     1      -0.668   7.557 -27.449  1.00  0.00     0.068 C 
HETATM   22  C   UNL     1       0.535   7.373 -29.625  1.00  0.00     0.025 A 
HETATM   23  C   UNL     1       0.634   6.859 -30.966  1.00  0.00     0.006 A 
HETATM   24  O   UNL     1      -1.890   4.442 -33.151  1.00  0.00    -0.267 OA
ENDBRANCH   4  13
BRANCH   1  25
HETATM   25  C   UNL     1      -7.567   3.183 -31.866  1.00  0.00     0.042 A 
HETATM   26  C   UNL     1      -8.379   3.640 -32.912  1.00  0.00     0.030 A 
HETATM   27  C   UNL     1      -9.722   3.955 -32.680  1.00  0.00     0.009 A 
HETATM   28  C   UNL     1     -10.271   3.835 -31.400  1.00  0.00    -0.062 A 
HETATM   29  C   UNL     1     -11.722   4.126 -31.145  1.00  0.00     0.048 C 
HETATM   30  C   UNL     1      -9.449   3.429 -30.345  1.00  0.00     0.009 A 
HETATM   31  C   UNL     1      -8.108   3.108 -30.576  1.00  0.00     0.030 A 
ENDBRANCH   1  25
TORSDOF 2
ENDMDL
MODEL 5
REMARK VINA RESULT:      -9.6      1.653      2.153
REMARK  2 active torsions:
REMARK  status: ('A' for Active; 'I' for Inactive)
REMARK    1  A    between atoms: C_5  and  N_6 
REMARK    2  A    between atoms: C_9  and  C_10 
REMARK       I    between atoms: C_10  and  N_11 
ROOT
HETATM    1  N   UNL     1      -6.216   2.503 -32.463  1.00  0.00    -0.281 N 
HETATM    2  C   UNL     1      -4.940   3.106 -32.530  1.00  0.00     0.268 A 
HETATM    3  O   UNL     1      -3.921   2.611 -33.022  1.00  0.00    -0.267 OA
HETATM    4  C   UNL     1      -4.815   4.492 -32.010  1.00  0.00     0.101 A 
HETATM    5  C   UNL     1      -5.896   5.101 -31.503  1.00  0.00     0.040 A 
HETATM    6  C   UNL     1      -7.177   4.437 -31.426  1.00  0.00     0.034 A 
HETATM    7  C   UNL     1      -7.323   3.177 -31.885  1.00  0.00     0.034 A 
HETATM    8  C   UNL     1      -8.635   2.431 -31.690  1.00  0.00     0.059 C 
HETATM    9  C   UNL     1      -9.497   3.010 -30.572  1.00  0.00     0.014 C 
HETATM   10  C   UNL     1      -9.678   4.503 -30.755  1.00  0.00     0.084 C 
HETATM   11  C   UNL     1      -8.337   5.185 -30.830  1.00  0.00     0.161 C 
HETATM   12  O   UNL     1      -8.194   6.354 -30.476  1.00  0.00    -0.292 OA
ENDROOT
BRANCH   4  13
HETATM   13  C   UNL     1      -3.550   5.265 -32.054  1.00  0.00     0.262 C 
HETATM   14  N   UNL     1      -2.901   5.422 -30.792  1.00  0.00    -0.309 N 
HETATM   15  H   UNL     1      -3.415   5.060 -29.990  1.00  0.00     0.170 HD
HETATM   16  C   UNL     1      -1.728   5.960 -30.511  1.00  0.00     0.108 A 
HETATM   17  N   UNL     1      -1.289   6.011 -29.250  1.00  0.00    -0.346 N 
HETATM   18  C   UNL     1      -0.816   6.526 -31.561  1.00  0.00     0.049 A 
HETATM   19  C   UNL     1      -0.052   6.550 -28.899  1.00  0.00     0.007 A 
HETATM   20  H   UNL     1      -1.868   5.643 -28.506  1.00  0.00     0.167 HD
HETATM   21  C   UNL     1       0.309   6.526 -27.444  1.00  0.00     0.068 C 
HETATM   22  C   UNL     1       0.764   7.055 -29.838  1.00  0.00     0.025 A 
HETATM   23  C   UNL     1       0.370   7.048 -31.222  1.00  0.00     0.006 A 
HETATM   24  O   UNL     1      -3.069   5.728 -33.071  1.00  0.00    -0.267 OA
ENDBRANCH   4  13
BRANCH   1  25
HETATM   25  C   UNL     1      -6.337   1.183 -33.023  1.00  0.00     0.042 A 
HETATM   26  C   UNL     1      -6.756   1.009 -34.348  1.00  0.00     0.030 A 
HETATM   27  C   UNL     1      -6.776  -0.266 -34.924  1.00  0.00     0.009 A 
HETATM   28  C   UNL     1      -6.394  -1.388 -34.181  1.00  0.00    -0.062 A 
HETATM   29  C   UNL     1      -6.366  -2.756 -34.799  1.00  0.00     0.048 C 
HETATM   30  C   UNL     1      -6.026  -1.222 -32.843  1.00  0.00     0.009 A 
HETATM   31  C   UNL     1      -6.000   0.052 -32.269  1.00  0.00     0.030 A 
ENDBRANCH   1  25
TORSDOF 2
ENDMDL
MODEL 6
REMARK VINA RESULT:      -9.4      2.495      7.988
REMARK  2 active torsions:
REMARK  status: ('A' for Active; 'I' for Inactive)
REMARK    1  A    between atoms: C_5  and  N_6 
REMARK    2  A    between atoms: C_9  and  C_10 
REMARK       I    between atoms: C_10  and  N_11 
ROOT
HETATM    1  N   UNL     1      -6.155   3.002 -31.582  1.00  0.00    -0.281 N 
HETATM    2  C   UNL     1      -5.899   1.615 -31.660  1.00  0.00     0.268 A 
HETATM    3  O   UNL     1      -6.746   0.716 -31.717  1.00  0.00    -0.267 OA
HETATM    4  C   UNL     1      -4.479   1.188 -31.737  1.00  0.00     0.101 A 
HETATM    5  C   UNL     1      -3.514   2.118 -31.725  1.00  0.00     0.040 A 
HETATM    6  C   UNL     1      -3.817   3.526 -31.613  1.00  0.00     0.034 A 
HETATM    7  C   UNL     1      -5.096   3.946 -31.536  1.00  0.00     0.034 A 
HETATM    8  C   UNL     1      -5.414   5.415 -31.291  1.00  0.00     0.059 C 
HETATM    9  C   UNL     1      -4.249   6.189 -30.680  1.00  0.00     0.014 C 
HETATM   10  C   UNL     1      -2.984   5.975 -31.485  1.00  0.00     0.084 C 
HETATM   11  C   UNL     1      -2.676   4.504 -31.591  1.00  0.00     0.161 C 
HETATM   12  O   UNL     1      -1.521   4.102 -31.726  1.00  0.00    -0.292 OA
ENDROOT
BRANCH   4  13
HETATM   13  C   UNL     1      -4.063  -0.230 -31.867  1.00  0.00     0.262 C 
HETATM   14  N   UNL     1      -4.822  -0.994 -32.804  1.00  0.00    -0.309 N 
HETATM   15  H   UNL     1      -5.616  -0.507 -33.220  1.00  0.00     0.170 HD
HETATM   16  C   UNL     1      -4.643  -2.234 -33.220  1.00  0.00     0.108 A 
HETATM   17  N   UNL     1      -5.471  -2.776 -34.118  1.00  0.00    -0.346 N 
HETATM   18  C   UNL     1      -3.516  -3.102 -32.740  1.00  0.00     0.049 A 
HETATM   19  C   UNL     1      -5.319  -4.074 -34.604  1.00  0.00     0.007 A 
HETATM   20  H   UNL     1      -6.248  -2.231 -34.471  1.00  0.00     0.167 HD
HETATM   21  C   UNL     1      -6.320  -4.539 -35.618  1.00  0.00     0.068 C 
HETATM   22  C   UNL     1      -4.310  -4.849 -34.175  1.00  0.00     0.025 A 
HETATM   23  C   UNL     1      -3.372  -4.350 -33.205  1.00  0.00     0.006 A 
HETATM   24  O   UNL     1      -3.141  -0.729 -31.249  1.00  0.00    -0.267 OA
ENDBRANCH   4  13
BRANCH   1  25
HETATM   25  C   UNL     1      -7.535   3.406 -31.566  1.00  0.00     0.042 A 
HETATM   26  C   UNL     1      -8.248   3.450 -30.362  1.00  0.00     0.030 A 
HETATM   27  C   UNL     1      -9.558   3.942 -30.332  1.00  0.00     0.009 A 
HETATM   28  C   UNL     1     -10.181   4.380 -31.504  1.00  0.00    -0.062 A 
HETATM   29  C   UNL     1     -11.569   4.953 -31.480  1.00  0.00     0.048 C 
HETATM   30  C   UNL     1      -9.489   4.288 -32.715  1.00  0.00     0.009 A 
HETATM   31  C   UNL     1      -8.179   3.803 -32.746  1.00  0.00     0.030 A 
ENDBRANCH   1  25
TORSDOF 2
ENDMDL
MODEL 7
REMARK VINA RESULT:      -9.1      2.646      8.338
REMARK  2 active torsions:
REMARK  status: ('A' for Active; 'I' for Inactive)
REMARK    1  A    between atoms: C_5  and  N_6 
REMARK    2  A    between atoms: C_9  and  C_10 
REMARK       I    between atoms: C_10  and  N_11 
ROOT
HETATM    1  N   UNL     1      -4.742   3.191 -32.671  1.00  0.00    -0.281 N 
HETATM    2  C   UNL     1      -5.991   3.697 -33.095  1.00  0.00     0.268 A 
HETATM    3  O   UNL     1      -6.261   4.880 -33.326  1.00  0.00    -0.267 OA
HETATM    4  C   UNL     1      -7.074   2.712 -33.343  1.00  0.00     0.101 A 
HETATM    5  C   UNL     1      -6.830   1.408 -33.153  1.00  0.00     0.040 A 
HETATM    6  C   UNL     1      -5.547   0.935 -32.689  1.00  0.00     0.034 A 
HETATM    7  C   UNL     1      -4.543   1.803 -32.450  1.00  0.00     0.034 A 
HETATM    8  C   UNL     1      -3.233   1.322 -31.841  1.00  0.00     0.059 C 
HETATM    9  C   UNL     1      -3.359  -0.016 -31.120  1.00  0.00     0.014 C 
HETATM   10  C   UNL     1      -4.019  -1.045 -32.014  1.00  0.00     0.084 C 
HETATM   11  C   UNL     1      -5.358  -0.543 -32.487  1.00  0.00     0.161 C 
HETATM   12  O   UNL     1      -6.268  -1.321 -32.773  1.00  0.00    -0.292 OA
ENDROOT
BRANCH   4  13
HETATM   13  C   UNL     1      -8.422   3.093 -33.832  1.00  0.00     0.262 C 
HETATM   14  N   UNL     1      -9.414   2.074 -33.706  1.00  0.00    -0.309 N 
HETATM   15  H   UNL     1      -9.073   1.173 -33.373  1.00  0.00     0.170 HD
HETATM   16  C   UNL     1     -10.711   2.128 -33.949  1.00  0.00     0.108 A 
HETATM   17  N   UNL     1     -11.482   1.052 -33.764  1.00  0.00    -0.346 N 
HETATM   18  C   UNL     1     -11.402   3.374 -34.425  1.00  0.00     0.049 A 
HETATM   19  C   UNL     1     -12.858   1.059 -33.988  1.00  0.00     0.007 A 
HETATM   20  H   UNL     1     -11.063   0.188 -33.446  1.00  0.00     0.167 HD
HETATM   21  C   UNL     1     -13.593  -0.221 -33.725  1.00  0.00     0.068 C 
HETATM   22  C   UNL     1     -13.476   2.173 -34.412  1.00  0.00     0.025 A 
HETATM   23  C   UNL     1     -12.723   3.377 -34.643  1.00  0.00     0.006 A 
HETATM   24  O   UNL     1      -8.696   4.184 -34.294  1.00  0.00    -0.267 OA
ENDBRANCH   4  13
BRANCH   1  25
HETATM   25  C   UNL     1      -3.684   4.149 -32.490  1.00  0.00     0.042 A 
HETATM   26  C   UNL     1      -3.569   4.863 -31.290  1.00  0.00     0.030 A 
HETATM   27  C   UNL     1      -2.482   5.717 -31.074  1.00  0.00     0.009 A 
HETATM   28  C   UNL     1      -1.502   5.884 -32.058  1.00  0.00    -0.062 A 
HETATM   29  C   UNL     1      -0.306   6.761 -31.823  1.00  0.00     0.048 C 
HETATM   30  C   UNL     1      -1.642   5.212 -33.276  1.00  0.00     0.009 A 
HETATM   31  C   UNL     1      -2.724   4.354 -33.490  1.00  0.00     0.030 A 
ENDBRANCH   1  25
TORSDOF 2
ENDMDL
MODEL 8
REMARK VINA RESULT:      -9.0      1.894      4.781
REMARK  2 active torsions:
REMARK  status: ('A' for Active; 'I' for Inactive)
REMARK    1  A    between atoms: C_5  and  N_6 
REMARK    2  A    between atoms: C_9  and  C_10 
REMARK       I    between atoms: C_10  and  N_11 
ROOT
HETATM    1  N   UNL     1      -5.957   1.830 -32.593  1.00  0.00    -0.281 N 
HETATM    2  C   UNL     1      -5.209   3.015 -32.415  1.00  0.00     0.268 A 
HETATM    3  O   UNL     1      -5.657   4.167 -32.390  1.00  0.00    -0.267 OA
HETATM    4  C   UNL     1      -3.750   2.869 -32.179  1.00  0.00     0.101 A 
HETATM    5  C   UNL     1      -3.211   1.643 -32.151  1.00  0.00     0.040 A 
HETATM    6  C   UNL     1      -4.006   0.457 -32.369  1.00  0.00     0.034 A 
HETATM    7  C   UNL     1      -5.333   0.555 -32.590  1.00  0.00     0.034 A 
HETATM    8  C   UNL     1      -6.151  -0.679 -32.944  1.00  0.00     0.059 C 
HETATM    9  C   UNL     1      -5.304  -1.828 -33.483  1.00  0.00     0.014 C 
HETATM   10  C   UNL     1      -4.148  -2.123 -32.550  1.00  0.00     0.084 C 
HETATM   11  C   UNL     1      -3.322  -0.881 -32.335  1.00  0.00     0.161 C 
HETATM   12  O   UNL     1      -2.123  -0.949 -32.069  1.00  0.00    -0.292 OA
ENDROOT
BRANCH   4  13
HETATM   13  C   UNL     1      -2.848   4.020 -31.933  1.00  0.00     0.262 C 
HETATM   14  N   UNL     1      -3.262   4.891 -30.881  1.00  0.00    -0.309 N 
HETATM   15  H   UNL     1      -4.170   4.676 -30.470  1.00  0.00     0.170 HD
HETATM   16  C   UNL     1      -2.640   5.930 -30.354  1.00  0.00     0.108 A 
HETATM   17  N   UNL     1      -3.200   6.625 -29.359  1.00  0.00    -0.346 N 
HETATM   18  C   UNL     1      -1.285   6.388 -30.810  1.00  0.00     0.049 A 
HETATM   19  C   UNL     1      -2.580   7.718 -28.755  1.00  0.00     0.007 A 
HETATM   20  H   UNL     1      -4.114   6.356 -29.017  1.00  0.00     0.167 HD
HETATM   21  C   UNL     1      -3.327   8.390 -27.642  1.00  0.00     0.068 C 
HETATM   22  C   UNL     1      -1.368   8.126 -29.162  1.00  0.00     0.025 A 
HETATM   23  C   UNL     1      -0.692   7.441 -30.232  1.00  0.00     0.006 A 
HETATM   24  O   UNL     1      -1.820   4.226 -32.551  1.00  0.00    -0.267 OA
ENDBRANCH   4  13
BRANCH   1  25
HETATM   25  C   UNL     1      -7.378   1.981 -32.763  1.00  0.00     0.042 A 
HETATM   26  C   UNL     1      -8.228   1.988 -31.650  1.00  0.00     0.030 A 
HETATM   27  C   UNL     1      -9.596   2.238 -31.806  1.00  0.00     0.009 A 
HETATM   28  C   UNL     1     -10.138   2.467 -33.075  1.00  0.00    -0.062 A 
HETATM   29  C   UNL     1     -11.596   2.781 -33.253  1.00  0.00     0.048 C 
HETATM   30  C   UNL     1      -9.299   2.407 -34.191  1.00  0.00     0.009 A 
HETATM   31  C   UNL     1      -7.932   2.164 -34.036  1.00  0.00     0.030 A 
ENDBRANCH   1  25
TORSDOF 2
ENDMDL
MODEL 9
REMARK VINA RESULT:      -8.9      2.886      8.564
REMARK  2 active torsions:
REMARK  status: ('A' for Active; 'I' for Inactive)
REMARK    1  A    between atoms: C_5  and  N_6 
REMARK    2  A    between atoms: C_9  and  C_10 
REMARK       I    between atoms: C_10  and  N_11 
ROOT
HETATM    1  N   UNL     1      -5.457   2.613 -32.504  1.00  0.00    -0.281 N 
HETATM    2  C   UNL     1      -6.787   2.607 -32.979  1.00  0.00     0.268 A 
HETATM    3  O   UNL     1      -7.522   3.591 -33.110  1.00  0.00    -0.267 OA
HETATM    4  C   UNL     1      -7.346   1.303 -33.417  1.00  0.00     0.101 A 
HETATM    5  C   UNL     1      -6.583   0.204 -33.341  1.00  0.00     0.040 A 
HETATM    6  C   UNL     1      -5.237   0.248 -32.820  1.00  0.00     0.034 A 
HETATM    7  C   UNL     1      -4.700   1.415 -32.409  1.00  0.00     0.034 A 
HETATM    8  C   UNL     1      -3.331   1.446 -31.744  1.00  0.00     0.059 C 
HETATM    9  C   UNL     1      -2.908   0.095 -31.176  1.00  0.00     0.014 C 
HETATM   10  C   UNL     1      -3.042  -0.992 -32.223  1.00  0.00     0.084 C 
HETATM   11  C   UNL     1      -4.451  -1.032 -32.755  1.00  0.00     0.161 C 
HETATM   12  O   UNL     1      -4.939  -2.072 -33.194  1.00  0.00    -0.292 OA
ENDROOT
BRANCH   4  13
HETATM   13  C   UNL     1      -8.712   1.151 -33.977  1.00  0.00     0.262 C 
HETATM   14  N   UNL     1      -9.747   1.755 -33.201  1.00  0.00    -0.309 N 
HETATM   15  H   UNL     1      -9.449   2.150 -32.309  1.00  0.00     0.170 HD
HETATM   16  C   UNL     1     -11.033   1.885 -33.470  1.00  0.00     0.108 A 
HETATM   17  N   UNL     1     -11.851   2.492 -32.605  1.00  0.00    -0.346 N 
HETATM   18  C   UNL     1     -11.656   1.387 -34.743  1.00  0.00     0.049 A 
HETATM   19  C   UNL     1     -13.212   2.672 -32.846  1.00  0.00     0.007 A 
HETATM   20  H   UNL     1     -11.479   2.844 -31.732  1.00  0.00     0.167 HD
HETATM   21  C   UNL     1     -14.000   3.383 -31.787  1.00  0.00     0.068 C 
HETATM   22  C   UNL     1     -13.768   2.228 -33.985  1.00  0.00     0.025 A 
HETATM   23  C   UNL     1     -12.964   1.558 -34.973  1.00  0.00     0.006 A 
HETATM   24  O   UNL     1      -8.961   0.578 -35.021  1.00  0.00    -0.267 OA
ENDBRANCH   4  13
BRANCH   1  25
HETATM   25  C   UNL     1      -4.906   3.890 -32.137  1.00  0.00     0.042 A 
HETATM   26  C   UNL     1      -5.052   4.378 -30.832  1.00  0.00     0.030 A 
HETATM   27  C   UNL     1      -4.429   5.571 -30.448  1.00  0.00     0.009 A 
HETATM   28  C   UNL     1      -3.666   6.302 -31.363  1.00  0.00    -0.062 A 
HETATM   29  C   UNL     1      -2.954   7.559 -30.953  1.00  0.00     0.048 C 
HETATM   30  C   UNL     1      -3.562   5.844 -32.679  1.00  0.00     0.009 A 
HETATM   31  C   UNL     1      -4.180   4.650 -33.063  1.00  0.00     0.030 A 
ENDBRANCH   1  25
TORSDOF 2
ENDMDL
MODEL 10
REMARK VINA RESULT:      -8.9      3.423      8.260
REMARK  2 active torsions:
REMARK  status: ('A' for Active; 'I' for Inactive)
REMARK    1  A    between atoms: C_5  and  N_6 
REMARK    2  A    between atoms: C_9  and  C_10 
REMARK       I    between atoms: C_10  and  N_11 
ROOT
HETATM    1  N   UNL     1      -7.058   2.392 -32.606  1.00  0.00    -0.281 N 
HETATM    2  C   UNL     1      -8.452   2.352 -32.385  1.00  0.00     0.268 A 
HETATM    3  O   UNL     1      -9.147   1.336 -32.276  1.00  0.00    -0.267 OA
HETATM    4  C   UNL     1      -9.150   3.651 -32.210  1.00  0.00     0.101 A 
HETATM    5  C   UNL     1      -8.444   4.788 -32.273  1.00  0.00     0.040 A 
HETATM    6  C   UNL     1      -7.023   4.787 -32.532  1.00  0.00     0.034 A 
HETATM    7  C   UNL     1      -6.359   3.625 -32.700  1.00  0.00     0.034 A 
HETATM    8  C   UNL     1      -4.890   3.624 -33.097  1.00  0.00     0.059 C 
HETATM    9  C   UNL     1      -4.437   4.936 -33.732  1.00  0.00     0.014 C 
HETATM   10  C   UNL     1      -4.822   6.113 -32.860  1.00  0.00     0.084 C 
HETATM   11  C   UNL     1      -6.307   6.107 -32.602  1.00  0.00     0.161 C 
HETATM   12  O   UNL     1      -6.921   7.149 -32.382  1.00  0.00    -0.292 OA
ENDROOT
BRANCH   4  13
HETATM   13  C   UNL     1     -10.603   3.761 -31.929  1.00  0.00     0.262 C 
HETATM   14  N   UNL     1     -11.431   2.905 -32.716  1.00  0.00    -0.309 N 
HETATM   15  H   UNL     1     -10.946   2.375 -33.440  1.00  0.00     0.170 HD
HETATM   16  C   UNL     1     -12.732   2.691 -32.641  1.00  0.00     0.108 A 
HETATM   17  N   UNL     1     -13.330   1.838 -33.477  1.00  0.00    -0.346 N 
HETATM   18  C   UNL     1     -13.613   3.363 -31.626  1.00  0.00     0.049 A 
HETATM   19  C   UNL     1     -14.696   1.562 -33.431  1.00  0.00     0.007 A 
HETATM   20  H   UNL     1     -12.779   1.361 -34.180  1.00  0.00     0.167 HD
HETATM   21  C   UNL     1     -15.221   0.571 -34.426  1.00  0.00     0.068 C 
HETATM   22  C   UNL     1     -15.483   2.161 -32.522  1.00  0.00     0.025 A 
HETATM   23  C   UNL     1     -14.926   3.099 -31.585  1.00  0.00     0.006 A 
HETATM   24  O   UNL     1     -11.081   4.500 -31.089  1.00  0.00    -0.267 OA
ENDBRANCH   4  13
BRANCH   1  25
HETATM   25  C   UNL     1      -6.383   1.127 -32.716  1.00  0.00     0.042 A 
HETATM   26  C   UNL     1      -6.293   0.474 -33.952  1.00  0.00     0.030 A 
HETATM   27  C   UNL     1      -5.549  -0.704 -34.079  1.00  0.00     0.009 A 
HETATM   28  C   UNL     1      -4.897  -1.257 -32.973  1.00  0.00    -0.062 A 
HETATM   29  C   UNL     1      -4.058  -2.495 -33.104  1.00  0.00     0.048 C 
HETATM   30  C   UNL     1      -5.028  -0.636 -31.728  1.00  0.00     0.009 A 
HETATM   31  C   UNL     1      -5.767   0.544 -31.600  1.00  0.00     0.030 A 
ENDBRANCH   1  25
TORSDOF 2
ENDMDL
