MODEL 1
REMARK VINA RESULT:      -8.3      0.000      0.000
REMARK  6 active torsions:
REMARK  status: ('A' for Active; 'I' for Inactive)
REMARK    1  A    between atoms: C_4  and  O_5 
REMARK    2  A    between atoms: O_5  and  C_6 
REMARK    3  A    between atoms: C_6  and  C_7 
REMARK    4  A    between atoms: C_11  and  C_12 
REMARK    5  A    between atoms: C_12  and  N_13 
REMARK       I    between atoms: N_13  and  C_14 
REMARK       I    between atoms: C_14  and  N_15 
REMARK    6  A    between atoms: N_15  and  C_16 
ROOT
HETATM    1  C   UNL     1      -4.616   0.617 -31.945  1.00  0.00     0.165 C 
ENDROOT
BRANCH   1   2
HETATM    2  C   UNL     1      -5.025  -0.541 -32.823  1.00  0.00    -0.007 A 
HETATM    3  C   UNL     1      -6.352  -0.702 -33.256  1.00  0.00     0.077 A 
HETATM    4  C   UNL     1      -6.696  -1.796 -34.059  1.00  0.00     0.044 A 
HETATM    5  C   UNL     1      -5.723  -2.721 -34.465  1.00  0.00    -0.059 A 
HETATM    6  C   UNL     1      -6.088  -3.880 -35.346  1.00  0.00     0.048 C 
HETATM    7  C   UNL     1      -4.395  -2.528 -34.077  1.00  0.00     0.007 A 
HETATM    8  C   UNL     1      -4.049  -1.451 -33.259  1.00  0.00     0.012 A 
BRANCH   3   9
HETATM    9  O   UNL     1      -7.246   0.238 -32.821  1.00  0.00    -0.342 OA
BRANCH   9  10
HETATM   10  C   UNL     1      -8.489   0.331 -33.526  1.00  0.00     0.293 C 
BRANCH  10  11
HETATM   11  C   UNL     1      -9.651   0.341 -32.543  1.00  0.00     0.408 C 
HETATM   12  F   UNL     1     -10.388  -0.788 -32.634  1.00  0.00    -0.169 F 
HETATM   13  F   UNL     1      -9.188   0.418 -31.273  1.00  0.00    -0.169 F 
HETATM   14  F   UNL     1     -10.468   1.397 -32.740  1.00  0.00    -0.169 F 
ENDBRANCH  10  11
ENDBRANCH   9  10
ENDBRANCH   3   9
ENDBRANCH   1   2
BRANCH   1  15
HETATM   15  N   UNL     1      -4.610   1.858 -32.690  1.00  0.00    -0.339 N 
HETATM   16  C   UNL     1      -3.717   2.842 -32.323  1.00  0.00     0.321 C 
HETATM   17  N   UNL     1      -3.888   3.965 -33.100  1.00  0.00    -0.307 N 
HETATM   18  O   UNL     1      -2.887   2.694 -31.437  1.00  0.00    -0.247 OA
HETATM   19  H   UNL     1      -4.313   3.792 -33.997  1.00  0.00     0.170 HD
HETATM   20  H   UNL     1      -5.521   2.209 -32.946  1.00  0.00     0.164 HD
BRANCH  17  21
HETATM   21  C   UNL     1      -3.308   5.234 -32.876  1.00  0.00     0.059 A 
HETATM   22  C   UNL     1      -2.349   5.733 -33.775  1.00  0.00    -0.032 A 
HETATM   23  C   UNL     1      -1.849   4.937 -34.947  1.00  0.00     0.050 C 
HETATM   24  C   UNL     1      -1.831   7.018 -33.561  1.00  0.00     0.028 A 
HETATM   25  C   UNL     1      -2.275   7.754 -32.475  1.00  0.00     0.117 A 
HETATM   26  N   UNL     1      -3.189   7.306 -31.596  1.00  0.00    -0.271 NA
HETATM   27  C   UNL     1      -3.681   6.059 -31.812  1.00  0.00     0.146 A 
ENDBRANCH  17  21
ENDBRANCH   1  15
TORSDOF 6
ENDMDL
MODEL 2
REMARK VINA RESULT:      -7.9      0.953      1.523
REMARK  6 active torsions:
REMARK  status: ('A' for Active; 'I' for Inactive)
REMARK    1  A    between atoms: C_4  and  O_5 
REMARK    2  A    between atoms: O_5  and  C_6 
REMARK    3  A    between atoms: C_6  and  C_7 
REMARK    4  A    between atoms: C_11  and  C_12 
REMARK    5  A    between atoms: C_12  and  N_13 
REMARK       I    between atoms: N_13  and  C_14 
REMARK       I    between atoms: C_14  and  N_15 
REMARK    6  A    between atoms: N_15  and  C_16 
ROOT
HETATM    1  C   UNL     1      -5.146   1.040 -31.904  1.00  0.00     0.165 C 
ENDROOT
BRANCH   1   2
HETATM    2  C   UNL     1      -5.403  -0.172 -32.765  1.00  0.00    -0.007 A 
HETATM    3  C   UNL     1      -6.639  -0.373 -33.403  1.00  0.00     0.077 A 
HETATM    4  C   UNL     1      -6.844  -1.517 -34.183  1.00  0.00     0.044 A 
HETATM    5  C   UNL     1      -5.818  -2.455 -34.364  1.00  0.00    -0.059 A 
HETATM    6  C   UNL     1      -6.030  -3.669 -35.220  1.00  0.00     0.048 C 
HETATM    7  C   UNL     1      -4.572  -2.225 -33.772  1.00  0.00     0.007 A 
HETATM    8  C   UNL     1      -4.368  -1.098 -32.975  1.00  0.00     0.012 A 
BRANCH   3   9
HETATM    9  O   UNL     1      -7.594   0.582 -33.181  1.00  0.00    -0.342 OA
BRANCH   9  10
HETATM   10  C   UNL     1      -8.745   0.564 -34.031  1.00  0.00     0.293 C 
BRANCH  10  11
HETATM   11  C   UNL     1     -10.016   0.529 -33.195  1.00  0.00     0.408 C 
HETATM   12  F   UNL     1     -10.198  -0.680 -32.620  1.00  0.00    -0.169 F 
HETATM   13  F   UNL     1      -9.944   1.442 -32.198  1.00  0.00    -0.169 F 
HETATM   14  F   UNL     1     -11.110   0.817 -33.930  1.00  0.00    -0.169 F 
ENDBRANCH  10  11
ENDBRANCH   9  10
ENDBRANCH   3   9
ENDBRANCH   1   2
BRANCH   1  15
HETATM   15  N   UNL     1      -5.096   2.246 -32.704  1.00  0.00    -0.339 N 
HETATM   16  C   UNL     1      -3.946   3.005 -32.678  1.00  0.00     0.321 C 
HETATM   17  N   UNL     1      -4.096   4.135 -33.450  1.00  0.00    -0.307 N 
HETATM   18  O   UNL     1      -2.943   2.679 -32.059  1.00  0.00    -0.247 OA
HETATM   19  H   UNL     1      -4.793   4.058 -34.174  1.00  0.00     0.170 HD
HETATM   20  H   UNL     1      -5.945   2.790 -32.712  1.00  0.00     0.164 HD
BRANCH  17  21
HETATM   21  C   UNL     1      -3.218   5.242 -33.492  1.00  0.00     0.059 A 
HETATM   22  C   UNL     1      -3.398   6.310 -32.594  1.00  0.00    -0.032 A 
HETATM   23  C   UNL     1      -4.542   6.365 -31.622  1.00  0.00     0.050 C 
HETATM   24  C   UNL     1      -2.481   7.370 -32.618  1.00  0.00     0.028 A 
HETATM   25  C   UNL     1      -1.430   7.335 -33.520  1.00  0.00     0.117 A 
HETATM   26  N   UNL     1      -1.231   6.331 -34.392  1.00  0.00    -0.271 NA
HETATM   27  C   UNL     1      -2.128   5.312 -34.362  1.00  0.00     0.146 A 
ENDBRANCH  17  21
ENDBRANCH   1  15
TORSDOF 6
ENDMDL
MODEL 3
REMARK VINA RESULT:      -7.7      4.232      6.987
REMARK  6 active torsions:
REMARK  status: ('A' for Active; 'I' for Inactive)
REMARK    1  A    between atoms: C_4  and  O_5 
REMARK    2  A    between atoms: O_5  and  C_6 
REMARK    3  A    between atoms: C_6  and  C_7 
REMARK    4  A    between atoms: C_11  and  C_12 
REMARK    5  A    between atoms: C_12  and  N_13 
REMARK       I    between atoms: N_13  and  C_14 
REMARK       I    between atoms: C_14  and  N_15 
REMARK    6  A    between atoms: N_15  and  C_16 
ROOT
HETATM    1  C   UNL     1      -7.345   0.820 -34.538  1.00  0.00     0.165 C 
ENDROOT
BRANCH   1   2
HETATM    2  C   UNL     1      -6.448  -0.383 -34.372  1.00  0.00    -0.007 A 
HETATM    3  C   UNL     1      -5.330  -0.355 -33.520  1.00  0.00     0.077 A 
HETATM    4  C   UNL     1      -4.515  -1.486 -33.402  1.00  0.00     0.044 A 
HETATM    5  C   UNL     1      -4.816  -2.663 -34.101  1.00  0.00    -0.059 A 
HETATM    6  C   UNL     1      -3.955  -3.884 -33.957  1.00  0.00     0.048 C 
HETATM    7  C   UNL     1      -5.959  -2.705 -34.906  1.00  0.00     0.007 A 
HETATM    8  C   UNL     1      -6.764  -1.574 -35.045  1.00  0.00     0.012 A 
BRANCH   3   9
HETATM    9  O   UNL     1      -5.097   0.827 -32.870  1.00  0.00    -0.342 OA
BRANCH   9  10
HETATM   10  C   UNL     1      -4.827   0.757 -31.466  1.00  0.00     0.293 C 
BRANCH  10  11
HETATM   11  C   UNL     1      -6.127   0.644 -30.685  1.00  0.00     0.408 C 
HETATM   12  F   UNL     1      -6.517  -0.643 -30.551  1.00  0.00    -0.169 F 
HETATM   13  F   UNL     1      -5.968   1.149 -29.438  1.00  0.00    -0.169 F 
HETATM   14  F   UNL     1      -7.129   1.331 -31.274  1.00  0.00    -0.169 F 
ENDBRANCH  10  11
ENDBRANCH   9  10
ENDBRANCH   3   9
ENDBRANCH   1   2
BRANCH   1  15
HETATM   15  N   UNL     1      -8.714   0.500 -34.192  1.00  0.00    -0.339 N 
HETATM   16  C   UNL     1      -9.640   1.520 -34.162  1.00  0.00     0.321 C 
HETATM   17  N   UNL     1     -10.869   1.045 -33.763  1.00  0.00    -0.307 N 
HETATM   18  O   UNL     1      -9.376   2.673 -34.472  1.00  0.00    -0.247 OA
HETATM   19  H   UNL     1     -11.010   0.060 -33.925  1.00  0.00     0.170 HD
HETATM   20  H   UNL     1      -8.821  -0.172 -33.447  1.00  0.00     0.164 HD
BRANCH  17  21
HETATM   21  C   UNL     1     -11.994   1.825 -33.411  1.00  0.00     0.059 A 
HETATM   22  C   UNL     1     -13.273   1.241 -33.400  1.00  0.00    -0.032 A 
HETATM   23  C   UNL     1     -13.517  -0.180 -33.819  1.00  0.00     0.050 C 
HETATM   24  C   UNL     1     -14.364   2.022 -32.993  1.00  0.00     0.028 A 
HETATM   25  C   UNL     1     -14.152   3.339 -32.617  1.00  0.00     0.117 A 
HETATM   26  N   UNL     1     -12.943   3.927 -32.620  1.00  0.00    -0.271 NA
HETATM   27  C   UNL     1     -11.894   3.162 -33.019  1.00  0.00     0.146 A 
ENDBRANCH  17  21
ENDBRANCH   1  15
TORSDOF 6
ENDMDL
MODEL 4
REMARK VINA RESULT:      -7.6      4.757      7.316
REMARK  6 active torsions:
REMARK  status: ('A' for Active; 'I' for Inactive)
REMARK    1  A    between atoms: C_4  and  O_5 
REMARK    2  A    between atoms: O_5  and  C_6 
REMARK    3  A    between atoms: C_6  and  C_7 
REMARK    4  A    between atoms: C_11  and  C_12 
REMARK    5  A    between atoms: C_12  and  N_13 
REMARK       I    between atoms: N_13  and  C_14 
REMARK       I    between atoms: C_14  and  N_15 
REMARK    6  A    between atoms: N_15  and  C_16 
ROOT
HETATM    1  C   UNL     1      -7.212   0.158 -34.096  1.00  0.00     0.165 C 
ENDROOT
BRANCH   1   2
HETATM    2  C   UNL     1      -6.536  -1.184 -34.231  1.00  0.00    -0.007 A 
HETATM    3  C   UNL     1      -5.162  -1.345 -33.979  1.00  0.00     0.077 A 
HETATM    4  C   UNL     1      -4.568  -2.603 -34.128  1.00  0.00     0.044 A 
HETATM    5  C   UNL     1      -5.334  -3.718 -34.497  1.00  0.00    -0.059 A 
HETATM    6  C   UNL     1      -4.701  -5.072 -34.634  1.00  0.00     0.048 C 
HETATM    7  C   UNL     1      -6.709  -3.566 -34.695  1.00  0.00     0.007 A 
HETATM    8  C   UNL     1      -7.304  -2.309 -34.569  1.00  0.00     0.012 A 
BRANCH   3   9
HETATM    9  O   UNL     1      -4.479  -0.213 -33.624  1.00  0.00    -0.342 OA
BRANCH   9  10
HETATM   10  C   UNL     1      -3.204  -0.391 -32.997  1.00  0.00     0.293 C 
BRANCH  10  11
HETATM   11  C   UNL     1      -3.379  -0.623 -31.504  1.00  0.00     0.408 C 
HETATM   12  F   UNL     1      -4.571  -0.159 -31.066  1.00  0.00    -0.169 F 
HETATM   13  F   UNL     1      -3.337  -1.948 -31.229  1.00  0.00    -0.169 F 
HETATM   14  F   UNL     1      -2.404  -0.029 -30.785  1.00  0.00    -0.169 F 
ENDBRANCH  10  11
ENDBRANCH   9  10
ENDBRANCH   3   9
ENDBRANCH   1   2
BRANCH   1  15
HETATM   15  N   UNL     1      -8.583   0.008 -33.654  1.00  0.00    -0.339 N 
HETATM   16  C   UNL     1      -9.480   1.017 -33.935  1.00  0.00     0.321 C 
HETATM   17  N   UNL     1     -10.714   0.730 -33.397  1.00  0.00    -0.307 N 
HETATM   18  O   UNL     1      -9.188   2.007 -34.592  1.00  0.00    -0.247 OA
HETATM   19  H   UNL     1     -10.886  -0.251 -33.243  1.00  0.00     0.170 HD
HETATM   20  H   UNL     1      -8.696  -0.395 -32.736  1.00  0.00     0.164 HD
BRANCH  17  21
HETATM   21  C   UNL     1     -11.809   1.618 -33.296  1.00  0.00     0.059 A 
HETATM   22  C   UNL     1     -13.120   1.129 -33.435  1.00  0.00    -0.032 A 
HETATM   23  C   UNL     1     -13.417  -0.307 -33.762  1.00  0.00     0.050 C 
HETATM   24  C   UNL     1     -14.190   2.020 -33.274  1.00  0.00     0.028 A 
HETATM   25  C   UNL     1     -13.926   3.350 -32.986  1.00  0.00     0.117 A 
HETATM   26  N   UNL     1     -12.685   3.849 -32.849  1.00  0.00    -0.271 NA
HETATM   27  C   UNL     1     -11.657   2.977 -33.011  1.00  0.00     0.146 A 
ENDBRANCH  17  21
ENDBRANCH   1  15
TORSDOF 6
ENDMDL
MODEL 5
REMARK VINA RESULT:      -7.5      3.495      7.083
REMARK  6 active torsions:
REMARK  status: ('A' for Active; 'I' for Inactive)
REMARK    1  A    between atoms: C_4  and  O_5 
REMARK    2  A    between atoms: O_5  and  C_6 
REMARK    3  A    between atoms: C_6  and  C_7 
REMARK    4  A    between atoms: C_11  and  C_12 
REMARK    5  A    between atoms: C_12  and  N_13 
REMARK       I    between atoms: N_13  and  C_14 
REMARK       I    between atoms: C_14  and  N_15 
REMARK    6  A    between atoms: N_15  and  C_16 
ROOT
HETATM    1  C   UNL     1      -7.573   0.119 -30.944  1.00  0.00     0.165 C 
ENDROOT
BRANCH   1   2
HETATM    2  C   UNL     1      -6.334   0.958 -31.135  1.00  0.00    -0.007 A 
HETATM    3  C   UNL     1      -5.231   0.486 -31.868  1.00  0.00     0.077 A 
HETATM    4  C   UNL     1      -4.094   1.289 -32.013  1.00  0.00     0.044 A 
HETATM    5  C   UNL     1      -4.051   2.577 -31.460  1.00  0.00    -0.059 A 
HETATM    6  C   UNL     1      -2.840   3.446 -31.635  1.00  0.00     0.048 C 
HETATM    7  C   UNL     1      -5.168   3.064 -30.776  1.00  0.00     0.007 A 
HETATM    8  C   UNL     1      -6.297   2.260 -30.610  1.00  0.00     0.012 A 
BRANCH   3   9
HETATM    9  O   UNL     1      -5.345  -0.778 -32.379  1.00  0.00    -0.342 OA
BRANCH   9  10
HETATM   10  C   UNL     1      -4.880  -0.986 -33.717  1.00  0.00     0.293 C 
BRANCH  10  11
HETATM   11  C   UNL     1      -5.963  -1.651 -34.553  1.00  0.00     0.408 C 
HETATM   12  F   UNL     1      -6.937  -2.177 -33.776  1.00  0.00    -0.169 F 
HETATM   13  F   UNL     1      -6.548  -0.742 -35.369  1.00  0.00    -0.169 F 
HETATM   14  F   UNL     1      -5.466  -2.634 -35.332  1.00  0.00    -0.169 F 
ENDBRANCH  10  11
ENDBRANCH   9  10
ENDBRANCH   3   9
ENDBRANCH   1   2
BRANCH   1  15
HETATM   15  N   UNL     1      -8.770   0.893 -31.199  1.00  0.00    -0.339 N 
HETATM   16  C   UNL     1      -9.249   0.957 -32.490  1.00  0.00     0.321 C 
HETATM   17  N   UNL     1     -10.354   1.774 -32.556  1.00  0.00    -0.307 N 
HETATM   18  O   UNL     1      -8.747   0.342 -33.421  1.00  0.00    -0.247 OA
HETATM   19  H   UNL     1     -10.852   1.876 -31.685  1.00  0.00     0.170 HD
HETATM   20  H   UNL     1      -8.831   1.767 -30.698  1.00  0.00     0.164 HD
BRANCH  17  21
HETATM   21  C   UNL     1     -10.978   2.245 -33.734  1.00  0.00     0.059 A 
HETATM   22  C   UNL     1     -12.114   1.586 -34.234  1.00  0.00    -0.032 A 
HETATM   23  C   UNL     1     -12.667   0.339 -33.606  1.00  0.00     0.050 C 
HETATM   24  C   UNL     1     -12.747   2.107 -35.372  1.00  0.00     0.028 A 
HETATM   25  C   UNL     1     -12.237   3.249 -35.967  1.00  0.00     0.117 A 
HETATM   26  N   UNL     1     -11.151   3.902 -35.514  1.00  0.00    -0.271 NA
HETATM   27  C   UNL     1     -10.545   3.386 -34.414  1.00  0.00     0.146 A 
ENDBRANCH  17  21
ENDBRANCH   1  15
TORSDOF 6
ENDMDL
MODEL 6
REMARK VINA RESULT:      -7.4      2.788      4.036
REMARK  6 active torsions:
REMARK  status: ('A' for Active; 'I' for Inactive)
REMARK    1  A    between atoms: C_4  and  O_5 
REMARK    2  A    between atoms: O_5  and  C_6 
REMARK    3  A    between atoms: C_6  and  C_7 
REMARK    4  A    between atoms: C_11  and  C_12 
REMARK    5  A    between atoms: C_12  and  N_13 
REMARK       I    between atoms: N_13  and  C_14 
REMARK       I    between atoms: C_14  and  N_15 
REMARK    6  A    between atoms: N_15  and  C_16 
ROOT
HETATM    1  C   UNL     1      -5.297   1.039 -30.581  1.00  0.00     0.165 C 
ENDROOT
BRANCH   1   2
HETATM    2  C   UNL     1      -6.617   0.909 -31.301  1.00  0.00    -0.007 A 
HETATM    3  C   UNL     1      -6.818  -0.060 -32.299  1.00  0.00     0.077 A 
HETATM    4  C   UNL     1      -8.053  -0.140 -32.954  1.00  0.00     0.044 A 
HETATM    5  C   UNL     1      -9.106   0.716 -32.605  1.00  0.00    -0.059 A 
HETATM    6  C   UNL     1     -10.437   0.614 -33.292  1.00  0.00     0.048 C 
HETATM    7  C   UNL     1      -8.920   1.643 -31.576  1.00  0.00     0.007 A 
HETATM    8  C   UNL     1      -7.685   1.743 -30.934  1.00  0.00     0.012 A 
BRANCH   3   9
HETATM    9  O   UNL     1      -5.746  -0.860 -32.587  1.00  0.00    -0.342 OA
BRANCH   9  10
HETATM   10  C   UNL     1      -5.939  -1.880 -33.573  1.00  0.00     0.293 C 
BRANCH  10  11
HETATM   11  C   UNL     1      -4.596  -2.364 -34.098  1.00  0.00     0.408 C 
HETATM   12  F   UNL     1      -4.672  -2.726 -35.398  1.00  0.00    -0.169 F 
HETATM   13  F   UNL     1      -3.676  -1.375 -34.009  1.00  0.00    -0.169 F 
HETATM   14  F   UNL     1      -4.130  -3.416 -33.393  1.00  0.00    -0.169 F 
ENDBRANCH  10  11
ENDBRANCH   9  10
ENDBRANCH   3   9
ENDBRANCH   1   2
BRANCH   1  15
HETATM   15  N   UNL     1      -4.267   1.537 -31.468  1.00  0.00    -0.339 N 
HETATM   16  C   UNL     1      -4.042   2.897 -31.517  1.00  0.00     0.321 C 
HETATM   17  N   UNL     1      -3.072   3.192 -32.447  1.00  0.00    -0.307 N 
HETATM   18  O   UNL     1      -4.630   3.698 -30.804  1.00  0.00    -0.247 OA
HETATM   19  H   UNL     1      -2.439   2.434 -32.648  1.00  0.00     0.170 HD
HETATM   20  H   UNL     1      -4.218   1.082 -32.367  1.00  0.00     0.164 HD
BRANCH  17  21
HETATM   21  C   UNL     1      -2.734   4.480 -32.923  1.00  0.00     0.059 A 
HETATM   22  C   UNL     1      -1.715   5.213 -32.290  1.00  0.00    -0.032 A 
HETATM   23  C   UNL     1      -1.003   4.716 -31.065  1.00  0.00     0.050 C 
HETATM   24  C   UNL     1      -1.361   6.464 -32.817  1.00  0.00     0.028 A 
HETATM   25  C   UNL     1      -2.021   6.937 -33.939  1.00  0.00     0.117 A 
HETATM   26  N   UNL     1      -3.001   6.262 -34.566  1.00  0.00    -0.271 NA
HETATM   27  C   UNL     1      -3.337   5.054 -34.044  1.00  0.00     0.146 A 
ENDBRANCH  17  21
ENDBRANCH   1  15
TORSDOF 6
ENDMDL
MODEL 7
REMARK VINA RESULT:      -7.4      2.569      3.340
REMARK  6 active torsions:
REMARK  status: ('A' for Active; 'I' for Inactive)
REMARK    1  A    between atoms: C_4  and  O_5 
REMARK    2  A    between atoms: O_5  and  C_6 
REMARK    3  A    between atoms: C_6  and  C_7 
REMARK    4  A    between atoms: C_11  and  C_12 
REMARK    5  A    between atoms: C_12  and  N_13 
REMARK       I    between atoms: N_13  and  C_14 
REMARK       I    between atoms: C_14  and  N_15 
REMARK    6  A    between atoms: N_15  and  C_16 
ROOT
HETATM    1  C   UNL     1      -7.317   2.673 -33.452  1.00  0.00     0.165 C 
ENDROOT
BRANCH   1   2
HETATM    2  C   UNL     1      -7.177   1.205 -33.772  1.00  0.00    -0.007 A 
HETATM    3  C   UNL     1      -7.292   0.220 -32.777  1.00  0.00     0.077 A 
HETATM    4  C   UNL     1      -7.142  -1.131 -33.111  1.00  0.00     0.044 A 
HETATM    5  C   UNL     1      -6.909  -1.519 -34.438  1.00  0.00    -0.059 A 
HETATM    6  C   UNL     1      -6.772  -2.969 -34.800  1.00  0.00     0.048 C 
HETATM    7  C   UNL     1      -6.848  -0.541 -35.435  1.00  0.00     0.007 A 
HETATM    8  C   UNL     1      -6.975   0.809 -35.104  1.00  0.00     0.012 A 
BRANCH   3   9
HETATM    9  O   UNL     1      -7.520   0.672 -31.506  1.00  0.00    -0.342 OA
BRANCH   9  10
HETATM   10  C   UNL     1      -6.866  -0.023 -30.439  1.00  0.00     0.293 C 
BRANCH  10  11
HETATM   11  C   UNL     1      -5.724   0.816 -29.886  1.00  0.00     0.408 C 
HETATM   12  F   UNL     1      -4.638   0.768 -30.689  1.00  0.00    -0.169 F 
HETATM   13  F   UNL     1      -6.099   2.114 -29.796  1.00  0.00    -0.169 F 
HETATM   14  F   UNL     1      -5.356   0.415 -28.651  1.00  0.00    -0.169 F 
ENDBRANCH  10  11
ENDBRANCH   9  10
ENDBRANCH   3   9
ENDBRANCH   1   2
BRANCH   1  15
HETATM   15  N   UNL     1      -6.115   3.187 -32.829  1.00  0.00    -0.339 N 
HETATM   16  C   UNL     1      -5.422   4.194 -33.466  1.00  0.00     0.321 C 
HETATM   17  N   UNL     1      -4.285   4.518 -32.762  1.00  0.00    -0.307 N 
HETATM   18  O   UNL     1      -5.806   4.716 -34.504  1.00  0.00    -0.247 OA
HETATM   19  H   UNL     1      -4.321   4.292 -31.781  1.00  0.00     0.170 HD
HETATM   20  H   UNL     1      -5.523   2.491 -32.401  1.00  0.00     0.164 HD
BRANCH  17  21
HETATM   21  C   UNL     1      -3.229   5.343 -33.213  1.00  0.00     0.059 A 
HETATM   22  C   UNL     1      -3.080   6.638 -32.685  1.00  0.00    -0.032 A 
HETATM   23  C   UNL     1      -4.048   7.225 -31.698  1.00  0.00     0.050 C 
HETATM   24  C   UNL     1      -1.992   7.414 -33.107  1.00  0.00     0.028 A 
HETATM   25  C   UNL     1      -1.100   6.887 -34.027  1.00  0.00     0.117 A 
HETATM   26  N   UNL     1      -1.216   5.654 -34.552  1.00  0.00    -0.271 NA
HETATM   27  C   UNL     1      -2.276   4.913 -34.139  1.00  0.00     0.146 A 
ENDBRANCH  17  21
ENDBRANCH   1  15
TORSDOF 6
ENDMDL
MODEL 8
REMARK VINA RESULT:      -7.3      4.947      8.005
REMARK  6 active torsions:
REMARK  status: ('A' for Active; 'I' for Inactive)
REMARK    1  A    between atoms: C_4  and  O_5 
REMARK    2  A    between atoms: O_5  and  C_6 
REMARK    3  A    between atoms: C_6  and  C_7 
REMARK    4  A    between atoms: C_11  and  C_12 
REMARK    5  A    between atoms: C_12  and  N_13 
REMARK       I    between atoms: N_13  and  C_14 
REMARK       I    between atoms: C_14  and  N_15 
REMARK    6  A    between atoms: N_15  and  C_16 
ROOT
HETATM    1  C   UNL     1     -10.281   1.704 -34.354  1.00  0.00     0.165 C 
ENDROOT
BRANCH   1   2
HETATM    2  C   UNL     1     -11.691   1.811 -33.827  1.00  0.00    -0.007 A 
HETATM    3  C   UNL     1     -12.190   3.014 -33.299  1.00  0.00     0.077 A 
HETATM    4  C   UNL     1     -13.499   3.071 -32.808  1.00  0.00     0.044 A 
HETATM    5  C   UNL     1     -14.335   1.947 -32.864  1.00  0.00    -0.059 A 
HETATM    6  C   UNL     1     -15.747   2.014 -32.358  1.00  0.00     0.048 C 
HETATM    7  C   UNL     1     -13.853   0.766 -33.438  1.00  0.00     0.007 A 
HETATM    8  C   UNL     1     -12.542   0.697 -33.910  1.00  0.00     0.012 A 
BRANCH   3   9
HETATM    9  O   UNL     1     -11.319   4.069 -33.277  1.00  0.00    -0.342 OA
BRANCH   9  10
HETATM   10  C   UNL     1     -11.804   5.326 -33.762  1.00  0.00     0.293 C 
BRANCH  10  11
HETATM   11  C   UNL     1     -11.749   5.361 -35.281  1.00  0.00     0.408 C 
HETATM   12  F   UNL     1     -11.606   6.622 -35.745  1.00  0.00    -0.169 F 
HETATM   13  F   UNL     1     -10.688   4.646 -35.727  1.00  0.00    -0.169 F 
HETATM   14  F   UNL     1     -12.857   4.828 -35.837  1.00  0.00    -0.169 F 
ENDBRANCH  10  11
ENDBRANCH   9  10
ENDBRANCH   3   9
ENDBRANCH   1   2
BRANCH   1  15
HETATM   15  N   UNL     1      -9.554   0.646 -33.684  1.00  0.00    -0.339 N 
HETATM   16  C   UNL     1      -8.322   0.277 -34.180  1.00  0.00     0.321 C 
HETATM   17  N   UNL     1      -7.804  -0.773 -33.457  1.00  0.00    -0.307 N 
HETATM   18  O   UNL     1      -7.785   0.842 -35.123  1.00  0.00    -0.247 OA
HETATM   19  H   UNL     1      -8.163  -0.852 -32.519  1.00  0.00     0.170 HD
HETATM   20  H   UNL     1     -10.118  -0.131 -33.373  1.00  0.00     0.164 HD
BRANCH  17  21
HETATM   21  C   UNL     1      -6.674  -1.549 -33.801  1.00  0.00     0.059 A 
HETATM   22  C   UNL     1      -5.430  -1.274 -33.206  1.00  0.00    -0.032 A 
HETATM   23  C   UNL     1      -5.224  -0.128 -32.257  1.00  0.00     0.050 C 
HETATM   24  C   UNL     1      -4.338  -2.094 -33.522  1.00  0.00     0.028 A 
HETATM   25  C   UNL     1      -4.515  -3.145 -34.407  1.00  0.00     0.117 A 
HETATM   26  N   UNL     1      -5.690  -3.434 -34.994  1.00  0.00    -0.271 NA
HETATM   27  C   UNL     1      -6.739  -2.630 -34.683  1.00  0.00     0.146 A 
ENDBRANCH  17  21
ENDBRANCH   1  15
TORSDOF 6
ENDMDL
MODEL 9
REMARK VINA RESULT:      -7.2      4.297      7.343
REMARK  6 active torsions:
REMARK  status: ('A' for Active; 'I' for Inactive)
REMARK    1  A    between atoms: C_4  and  O_5 
REMARK    2  A    between atoms: O_5  and  C_6 
REMARK    3  A    between atoms: C_6  and  C_7 
REMARK    4  A    between atoms: C_11  and  C_12 
REMARK    5  A    between atoms: C_12  and  N_13 
REMARK       I    between atoms: N_13  and  C_14 
REMARK       I    between atoms: C_14  and  N_15 
REMARK    6  A    between atoms: N_15  and  C_16 
ROOT
HETATM    1  C   UNL     1     -10.721   1.551 -34.350  1.00  0.00     0.165 C 
ENDROOT
BRANCH   1   2
HETATM    2  C   UNL     1     -12.116   1.735 -33.804  1.00  0.00    -0.007 A 
HETATM    3  C   UNL     1     -12.451   2.834 -32.994  1.00  0.00     0.077 A 
HETATM    4  C   UNL     1     -13.753   2.963 -32.497  1.00  0.00     0.044 A 
HETATM    5  C   UNL     1     -14.741   2.023 -32.823  1.00  0.00    -0.059 A 
HETATM    6  C   UNL     1     -16.143   2.175 -32.308  1.00  0.00     0.048 C 
HETATM    7  C   UNL     1     -14.419   0.961 -33.672  1.00  0.00     0.007 A 
HETATM    8  C   UNL     1     -13.117   0.814 -34.154  1.00  0.00     0.012 A 
BRANCH   3   9
HETATM    9  O   UNL     1     -11.436   3.709 -32.718  1.00  0.00    -0.342 OA
BRANCH   9  10
HETATM   10  C   UNL     1     -11.146   3.957 -31.339  1.00  0.00     0.293 C 
BRANCH  10  11
HETATM   11  C   UNL     1      -9.705   3.578 -31.028  1.00  0.00     0.408 C 
HETATM   12  F   UNL     1      -9.220   4.284 -29.983  1.00  0.00    -0.169 F 
HETATM   13  F   UNL     1      -9.628   2.267 -30.698  1.00  0.00    -0.169 F 
HETATM   14  F   UNL     1      -8.893   3.777 -32.087  1.00  0.00    -0.169 F 
ENDBRANCH  10  11
ENDBRANCH   9  10
ENDBRANCH   3   9
ENDBRANCH   1   2
BRANCH   1  15
HETATM   15  N   UNL     1      -9.925   0.718 -33.472  1.00  0.00    -0.339 N 
HETATM   16  C   UNL     1      -8.553   0.844 -33.512  1.00  0.00     0.321 C 
HETATM   17  N   UNL     1      -7.960  -0.056 -32.656  1.00  0.00    -0.307 N 
HETATM   18  O   UNL     1      -7.977   1.667 -34.209  1.00  0.00    -0.247 OA
HETATM   19  H   UNL     1      -8.551  -0.366 -31.900  1.00  0.00     0.170 HD
HETATM   20  H   UNL     1     -10.246  -0.234 -33.377  1.00  0.00     0.164 HD
BRANCH  17  21
HETATM   21  C   UNL     1      -6.583  -0.365 -32.589  1.00  0.00     0.059 A 
HETATM   22  C   UNL     1      -6.021  -1.257 -33.519  1.00  0.00    -0.032 A 
HETATM   23  C   UNL     1      -6.843  -1.967 -34.557  1.00  0.00     0.050 C 
HETATM   24  C   UNL     1      -4.641  -1.503 -33.466  1.00  0.00     0.028 A 
HETATM   25  C   UNL     1      -3.877  -0.864 -32.504  1.00  0.00     0.117 A 
HETATM   26  N   UNL     1      -4.383  -0.007 -31.599  1.00  0.00    -0.271 NA
HETATM   27  C   UNL     1      -5.721   0.220 -31.658  1.00  0.00     0.146 A 
ENDBRANCH  17  21
ENDBRANCH   1  15
TORSDOF 6
ENDMDL
MODEL 10
REMARK VINA RESULT:      -7.1      3.186      4.029
REMARK  6 active torsions:
REMARK  status: ('A' for Active; 'I' for Inactive)
REMARK    1  A    between atoms: C_4  and  O_5 
REMARK    2  A    between atoms: O_5  and  C_6 
REMARK    3  A    between atoms: C_6  and  C_7 
REMARK    4  A    between atoms: C_11  and  C_12 
REMARK    5  A    between atoms: C_12  and  N_13 
REMARK       I    between atoms: N_13  and  C_14 
REMARK       I    between atoms: C_14  and  N_15 
REMARK    6  A    between atoms: N_15  and  C_16 
ROOT
HETATM    1  C   UNL     1      -5.284   1.552 -32.810  1.00  0.00     0.165 C 
ENDROOT
BRANCH   1   2
HETATM    2  C   UNL     1      -5.653   0.197 -33.364  1.00  0.00    -0.007 A 
HETATM    3  C   UNL     1      -6.920  -0.051 -33.919  1.00  0.00     0.077 A 
HETATM    4  C   UNL     1      -7.230  -1.324 -34.411  1.00  0.00     0.044 A 
HETATM    5  C   UNL     1      -6.278  -2.352 -34.387  1.00  0.00    -0.059 A 
HETATM    6  C   UNL     1      -6.602  -3.711 -34.936  1.00  0.00     0.048 C 
HETATM    7  C   UNL     1      -5.001  -2.088 -33.883  1.00  0.00     0.007 A 
HETATM    8  C   UNL     1      -4.693  -0.827 -33.371  1.00  0.00     0.012 A 
BRANCH   3   9
HETATM    9  O   UNL     1      -7.798   1.000 -33.909  1.00  0.00    -0.342 OA
BRANCH   9  10
HETATM   10  C   UNL     1      -9.155   0.719 -34.270  1.00  0.00     0.293 C 
BRANCH  10  11
HETATM   11  C   UNL     1     -10.017   0.599 -33.023  1.00  0.00     0.408 C 
HETATM   12  F   UNL     1     -11.261   1.085 -33.229  1.00  0.00    -0.169 F 
HETATM   13  F   UNL     1     -10.147  -0.702 -32.668  1.00  0.00    -0.169 F 
HETATM   14  F   UNL     1      -9.476   1.252 -31.973  1.00  0.00    -0.169 F 
ENDBRANCH  10  11
ENDBRANCH   9  10
ENDBRANCH   3   9
ENDBRANCH   1   2
BRANCH   1  15
HETATM   15  N   UNL     1      -6.091   1.878 -31.653  1.00  0.00    -0.339 N 
HETATM   16  C   UNL     1      -6.733   3.097 -31.621  1.00  0.00     0.321 C 
HETATM   17  N   UNL     1      -7.405   3.258 -30.431  1.00  0.00    -0.307 N 
HETATM   18  O   UNL     1      -6.704   3.892 -32.549  1.00  0.00    -0.247 OA
HETATM   19  H   UNL     1      -7.649   2.397 -29.968  1.00  0.00     0.170 HD
HETATM   20  H   UNL     1      -5.700   1.599 -30.765  1.00  0.00     0.164 HD
BRANCH  17  21
HETATM   21  C   UNL     1      -7.991   4.453 -29.956  1.00  0.00     0.059 A 
HETATM   22  C   UNL     1      -7.242   5.326 -29.147  1.00  0.00    -0.032 A 
HETATM   23  C   UNL     1      -5.844   5.010 -28.696  1.00  0.00     0.050 C 
HETATM   24  C   UNL     1      -7.827   6.532 -28.737  1.00  0.00     0.028 A 
HETATM   25  C   UNL     1      -9.121   6.827 -29.136  1.00  0.00     0.117 A 
HETATM   26  N   UNL     1      -9.865   6.013 -29.907  1.00  0.00    -0.271 NA
HETATM   27  C   UNL     1      -9.288   4.847 -30.296  1.00  0.00     0.146 A 
ENDBRANCH  17  21
ENDBRANCH   1  15
TORSDOF 6
ENDMDL
