MODEL 1
REMARK VINA RESULT:      -9.8      0.000      0.000
REMARK  6 active torsions:
REMARK  status: ('A' for Active; 'I' for Inactive)
REMARK    1  A    between atoms: C_2  and  O_3 
REMARK    2  A    between atoms: C_2  and  C_4 
REMARK    3  A    between atoms: C_7  and  N_8 
REMARK       I    between atoms: N_8  and  C_9 
REMARK    4  A    between atoms: C_9  and  C_10 
REMARK    5  A    between atoms: C_13  and  C_14 
REMARK    6  A    between atoms: C_19  and  C_20 
ROOT
HETATM    1  C   UNL     1      -5.895   1.371 -31.621  1.00  0.00     0.096 A 
HETATM    2  C   UNL     1      -6.452   0.888 -32.791  1.00  0.00     0.138 A 
HETATM    3  N   UNL     1      -7.695   0.407 -32.445  1.00  0.00    -0.240 N 
HETATM    4  C   UNL     1      -8.613  -0.236 -33.367  1.00  0.00     0.221 C 
HETATM    5  C   UNL     1      -8.154  -0.019 -34.824  1.00  0.00     0.066 C 
HETATM    6  C   UNL     1      -6.633  -0.193 -34.969  1.00  0.00     0.118 C 
HETATM    7  N   UNL     1      -5.991   0.781 -34.069  1.00  0.00    -0.365 N 
HETATM    8  N   UNL     1      -7.915   0.404 -31.122  1.00  0.00    -0.181 NA
HETATM    9  C   UNL     1      -6.831   1.007 -30.624  1.00  0.00     0.160 A 
HETATM   10  H   UNL     1      -4.986   0.857 -34.235  1.00  0.00     0.161 HD
ENDROOT
BRANCH   1  11
HETATM   11  C   UNL     1      -4.621   2.035 -31.417  1.00  0.00     0.261 C 
HETATM   12  N   UNL     1      -4.703   3.410 -31.523  1.00  0.00    -0.323 N 
HETATM   13  H   UNL     1      -5.643   3.784 -31.591  1.00  0.00     0.169 HD
HETATM   14  O   UNL     1      -3.618   1.390 -31.134  1.00  0.00    -0.267 OA
BRANCH  12  15
HETATM   15  C   UNL     1      -3.656   4.344 -31.408  1.00  0.00     0.035 A 
HETATM   16  C   UNL     1      -2.399   4.174 -31.986  1.00  0.00     0.030 A 
HETATM   17  C   UNL     1      -1.406   5.149 -31.830  1.00  0.00     0.012 A 
HETATM   18  C   UNL     1      -1.653   6.312 -31.089  1.00  0.00    -0.030 A 
HETATM   19  C   UNL     1      -2.917   6.477 -30.506  1.00  0.00     0.012 A 
HETATM   20  C   UNL     1      -3.912   5.508 -30.675  1.00  0.00     0.030 A 
BRANCH  18  21
HETATM   21  C   UNL     1      -0.556   7.337 -30.899  1.00  0.00     0.147 C 
HETATM   22  C   UNL     1       0.825   6.741 -31.131  1.00  0.00     0.044 C 
BRANCH  21  23
HETATM   23  O   UNL     1      -0.607   7.886 -29.583  1.00  0.00    -0.391 OA
HETATM   24  H   UNL     1       0.186   8.440 -29.479  1.00  0.00     0.210 HD
ENDBRANCH  21  23
ENDBRANCH  18  21
ENDBRANCH  12  15
ENDBRANCH   1  11
BRANCH   4  25
HETATM   25  C   UNL     1     -10.022   0.289 -33.203  1.00  0.00     0.409 C 
HETATM   26  F   UNL     1     -10.076   1.365 -32.385  1.00  0.00    -0.169 F 
HETATM   27  F   UNL     1     -10.495   0.702 -34.411  1.00  0.00    -0.169 F 
HETATM   28  F   UNL     1     -10.897  -0.631 -32.752  1.00  0.00    -0.169 F 
ENDBRANCH   4  25
BRANCH   6  29
HETATM   29  C   UNL     1      -6.143  -1.628 -34.765  1.00  0.00    -0.035 A 
HETATM   30  C   UNL     1      -4.829  -1.856 -34.307  1.00  0.00     0.012 A 
HETATM   31  C   UNL     1      -4.346  -3.152 -34.109  1.00  0.00     0.043 A 
HETATM   32  C   UNL     1      -5.178  -4.237 -34.346  1.00  0.00     0.116 A 
HETATM   33  F   UNL     1      -4.715  -5.479 -34.154  1.00  0.00    -0.206 F 
HETATM   34  C   UNL     1      -6.483  -4.049 -34.772  1.00  0.00     0.043 A 
HETATM   35  C   UNL     1      -6.964  -2.753 -34.975  1.00  0.00     0.012 A 
ENDBRANCH   6  29
TORSDOF 6
ENDMDL
MODEL 2
REMARK VINA RESULT:      -9.4      4.237      8.237
REMARK  6 active torsions:
REMARK  status: ('A' for Active; 'I' for Inactive)
REMARK    1  A    between atoms: C_2  and  O_3 
REMARK    2  A    between atoms: C_2  and  C_4 
REMARK    3  A    between atoms: C_7  and  N_8 
REMARK       I    between atoms: N_8  and  C_9 
REMARK    4  A    between atoms: C_9  and  C_10 
REMARK    5  A    between atoms: C_13  and  C_14 
REMARK    6  A    between atoms: C_19  and  C_20 
ROOT
HETATM    1  C   UNL     1      -7.441   3.258 -33.056  1.00  0.00     0.096 A 
HETATM    2  C   UNL     1      -6.524   2.475 -32.380  1.00  0.00     0.138 A 
HETATM    3  N   UNL     1      -5.284   2.897 -32.804  1.00  0.00    -0.240 N 
HETATM    4  C   UNL     1      -4.026   2.311 -32.378  1.00  0.00     0.221 C 
HETATM    5  C   UNL     1      -4.246   1.387 -31.163  1.00  0.00     0.066 C 
HETATM    6  C   UNL     1      -5.507   0.522 -31.331  1.00  0.00     0.118 C 
HETATM    7  N   UNL     1      -6.648   1.438 -31.504  1.00  0.00    -0.365 N 
HETATM    8  N   UNL     1      -5.339   3.782 -33.811  1.00  0.00    -0.181 NA
HETATM    9  C   UNL     1      -6.648   4.015 -33.950  1.00  0.00     0.160 A 
HETATM   10  H   UNL     1      -7.545   0.953 -31.441  1.00  0.00     0.161 HD
ENDROOT
BRANCH   1  11
HETATM   11  C   UNL     1      -8.889   3.273 -32.950  1.00  0.00     0.261 C 
HETATM   12  N   UNL     1      -9.501   2.343 -33.769  1.00  0.00    -0.323 N 
HETATM   13  H   UNL     1      -8.875   1.690 -34.227  1.00  0.00     0.169 HD
HETATM   14  O   UNL     1      -9.450   4.022 -32.161  1.00  0.00    -0.267 OA
BRANCH  12  15
HETATM   15  C   UNL     1     -10.881   2.116 -33.927  1.00  0.00     0.035 A 
HETATM   16  C   UNL     1     -11.756   3.030 -34.512  1.00  0.00     0.030 A 
HETATM   17  C   UNL     1     -13.118   2.733 -34.637  1.00  0.00     0.012 A 
HETATM   18  C   UNL     1     -13.631   1.514 -34.175  1.00  0.00    -0.030 A 
HETATM   19  C   UNL     1     -12.750   0.600 -33.583  1.00  0.00     0.012 A 
HETATM   20  C   UNL     1     -11.387   0.893 -33.472  1.00  0.00     0.030 A 
BRANCH  18  21
HETATM   21  C   UNL     1     -15.113   1.226 -34.284  1.00  0.00     0.147 C 
HETATM   22  C   UNL     1     -15.872   1.675 -33.043  1.00  0.00     0.044 C 
BRANCH  21  23
HETATM   23  O   UNL     1     -15.338  -0.168 -34.483  1.00  0.00    -0.391 OA
HETATM   24  H   UNL     1     -16.100  -0.246 -35.084  1.00  0.00     0.210 HD
ENDBRANCH  21  23
ENDBRANCH  18  21
ENDBRANCH  12  15
ENDBRANCH   1  11
BRANCH   4  25
HETATM   25  C   UNL     1      -3.012   3.375 -32.022  1.00  0.00     0.409 C 
HETATM   26  F   UNL     1      -2.267   3.752 -33.087  1.00  0.00    -0.169 F 
HETATM   27  F   UNL     1      -3.661   4.493 -31.594  1.00  0.00    -0.169 F 
HETATM   28  F   UNL     1      -2.177   3.021 -31.025  1.00  0.00    -0.169 F 
ENDBRANCH   4  25
BRANCH   6  29
HETATM   29  C   UNL     1      -5.400  -0.535 -32.431  1.00  0.00    -0.035 A 
HETATM   30  C   UNL     1      -6.512  -0.789 -33.262  1.00  0.00     0.012 A 
HETATM   31  C   UNL     1      -6.452  -1.747 -34.277  1.00  0.00     0.043 A 
HETATM   32  C   UNL     1      -5.275  -2.449 -34.489  1.00  0.00     0.116 A 
HETATM   33  F   UNL     1      -5.218  -3.366 -35.465  1.00  0.00    -0.206 F 
HETATM   34  C   UNL     1      -4.156  -2.208 -33.709  1.00  0.00     0.043 A 
HETATM   35  C   UNL     1      -4.216  -1.253 -32.690  1.00  0.00     0.012 A 
ENDBRANCH   6  29
TORSDOF 6
ENDMDL
MODEL 3
REMARK VINA RESULT:      -9.1      1.371      1.811
REMARK  6 active torsions:
REMARK  status: ('A' for Active; 'I' for Inactive)
REMARK    1  A    between atoms: C_2  and  O_3 
REMARK    2  A    between atoms: C_2  and  C_4 
REMARK    3  A    between atoms: C_7  and  N_8 
REMARK       I    between atoms: N_8  and  C_9 
REMARK    4  A    between atoms: C_9  and  C_10 
REMARK    5  A    between atoms: C_13  and  C_14 
REMARK    6  A    between atoms: C_19  and  C_20 
ROOT
HETATM    1  C   UNL     1      -6.759   3.013 -32.324  1.00  0.00     0.096 A 
HETATM    2  C   UNL     1      -7.157   2.123 -33.305  1.00  0.00     0.138 A 
HETATM    3  N   UNL     1      -8.219   1.428 -32.772  1.00  0.00    -0.240 N 
HETATM    4  C   UNL     1      -8.920   0.353 -33.451  1.00  0.00     0.221 C 
HETATM    5  C   UNL     1      -8.535   0.316 -34.944  1.00  0.00     0.066 C 
HETATM    6  C   UNL     1      -7.025   0.528 -35.144  1.00  0.00     0.118 C 
HETATM    7  N   UNL     1      -6.680   1.830 -34.548  1.00  0.00    -0.365 N 
HETATM    8  N   UNL     1      -8.433   1.694 -31.475  1.00  0.00    -0.181 NA
HETATM    9  C   UNL     1      -7.560   2.670 -31.210  1.00  0.00     0.160 A 
HETATM   10  H   UNL     1      -5.736   2.130 -34.794  1.00  0.00     0.161 HD
ENDROOT
BRANCH   1  11
HETATM   11  C   UNL     1      -5.719   4.024 -32.370  1.00  0.00     0.261 C 
HETATM   12  N   UNL     1      -4.882   3.991 -31.270  1.00  0.00    -0.323 N 
HETATM   13  H   UNL     1      -5.012   3.198 -30.651  1.00  0.00     0.169 HD
HETATM   14  O   UNL     1      -5.613   4.769 -33.336  1.00  0.00    -0.267 OA
BRANCH  12  15
HETATM   15  C   UNL     1      -3.797   4.843 -30.991  1.00  0.00     0.035 A 
HETATM   16  C   UNL     1      -3.916   6.052 -30.307  1.00  0.00     0.030 A 
HETATM   17  C   UNL     1      -2.789   6.846 -30.065  1.00  0.00     0.012 A 
HETATM   18  C   UNL     1      -1.521   6.446 -30.505  1.00  0.00    -0.030 A 
HETATM   19  C   UNL     1      -1.407   5.233 -31.197  1.00  0.00     0.012 A 
HETATM   20  C   UNL     1      -2.531   4.434 -31.425  1.00  0.00     0.030 A 
BRANCH  18  21
HETATM   21  C   UNL     1      -0.321   7.337 -30.267  1.00  0.00     0.147 C 
HETATM   22  C   UNL     1       0.877   6.911 -31.104  1.00  0.00     0.044 C 
BRANCH  21  23
HETATM   23  O   UNL     1       0.049   7.320 -28.890  1.00  0.00    -0.391 OA
HETATM   24  H   UNL     1       0.903   7.780 -28.823  1.00  0.00     0.210 HD
ENDBRANCH  21  23
ENDBRANCH  18  21
ENDBRANCH  12  15
ENDBRANCH   1  11
BRANCH   4  25
HETATM   25  C   UNL     1     -10.420   0.503 -33.324  1.00  0.00     0.409 C 
HETATM   26  F   UNL     1     -11.026   0.638 -34.526  1.00  0.00    -0.169 F 
HETATM   27  F   UNL     1     -10.941  -0.619 -32.756  1.00  0.00    -0.169 F 
HETATM   28  F   UNL     1     -10.801   1.531 -32.540  1.00  0.00    -0.169 F 
ENDBRANCH   4  25
BRANCH   6  29
HETATM   29  C   UNL     1      -6.158  -0.625 -34.635  1.00  0.00    -0.035 A 
HETATM   30  C   UNL     1      -5.119  -0.362 -33.718  1.00  0.00     0.012 A 
HETATM   31  C   UNL     1      -4.306  -1.389 -33.231  1.00  0.00     0.043 A 
HETATM   32  C   UNL     1      -4.534  -2.696 -33.639  1.00  0.00     0.116 A 
HETATM   33  F   UNL     1      -3.756  -3.680 -33.169  1.00  0.00    -0.206 F 
HETATM   34  C   UNL     1      -5.562  -2.994 -34.519  1.00  0.00     0.043 A 
HETATM   35  C   UNL     1      -6.372  -1.966 -35.010  1.00  0.00     0.012 A 
ENDBRANCH   6  29
TORSDOF 6
ENDMDL
MODEL 4
REMARK VINA RESULT:      -8.9      1.642      1.923
REMARK  6 active torsions:
REMARK  status: ('A' for Active; 'I' for Inactive)
REMARK    1  A    between atoms: C_2  and  O_3 
REMARK    2  A    between atoms: C_2  and  C_4 
REMARK    3  A    between atoms: C_7  and  N_8 
REMARK       I    between atoms: N_8  and  C_9 
REMARK    4  A    between atoms: C_9  and  C_10 
REMARK    5  A    between atoms: C_13  and  C_14 
REMARK    6  A    between atoms: C_19  and  C_20 
ROOT
HETATM    1  C   UNL     1      -6.399   2.555 -31.888  1.00  0.00     0.096 A 
HETATM    2  C   UNL     1      -6.846   1.827 -32.975  1.00  0.00     0.138 A 
HETATM    3  N   UNL     1      -7.987   1.183 -32.551  1.00  0.00    -0.240 N 
HETATM    4  C   UNL     1      -8.764   0.267 -33.367  1.00  0.00     0.221 C 
HETATM    5  C   UNL     1      -8.334   0.364 -34.845  1.00  0.00     0.066 C 
HETATM    6  C   UNL     1      -6.805   0.447 -34.984  1.00  0.00     0.118 C 
HETATM    7  N   UNL     1      -6.358   1.632 -34.232  1.00  0.00    -0.365 N 
HETATM    8  N   UNL     1      -8.219   1.320 -31.237  1.00  0.00    -0.181 NA
HETATM    9  C   UNL     1      -7.266   2.168 -30.840  1.00  0.00     0.160 A 
HETATM   10  H   UNL     1      -5.381   1.863 -34.421  1.00  0.00     0.161 HD
ENDROOT
BRANCH   1  11
HETATM   11  C   UNL     1      -5.266   3.457 -31.792  1.00  0.00     0.261 C 
HETATM   12  N   UNL     1      -5.597   4.689 -31.259  1.00  0.00    -0.323 N 
HETATM   13  H   UNL     1      -6.536   4.759 -30.883  1.00  0.00     0.169 HD
HETATM   14  O   UNL     1      -4.144   3.089 -32.121  1.00  0.00    -0.267 OA
BRANCH  12  15
HETATM   15  C   UNL     1      -4.747   5.792 -31.055  1.00  0.00     0.035 A 
HETATM   16  C   UNL     1      -4.138   6.502 -32.088  1.00  0.00     0.030 A 
HETATM   17  C   UNL     1      -3.305   7.592 -31.808  1.00  0.00     0.012 A 
HETATM   18  C   UNL     1      -3.065   7.990 -30.486  1.00  0.00    -0.030 A 
HETATM   19  C   UNL     1      -3.676   7.271 -29.451  1.00  0.00     0.012 A 
HETATM   20  C   UNL     1      -4.519   6.191 -29.733  1.00  0.00     0.030 A 
BRANCH  18  21
HETATM   21  C   UNL     1      -2.132   9.147 -30.201  1.00  0.00     0.147 C 
HETATM   22  C   UNL     1      -2.159   9.551 -28.734  1.00  0.00     0.044 C 
BRANCH  21  23
HETATM   23  O   UNL     1      -2.480  10.278 -30.997  1.00  0.00    -0.391 OA
HETATM   24  H   UNL     1      -3.452  10.328 -31.005  1.00  0.00     0.210 HD
ENDBRANCH  21  23
ENDBRANCH  18  21
ENDBRANCH  12  15
ENDBRANCH   1  11
BRANCH   4  25
HETATM   25  C   UNL     1     -10.247   0.550 -33.257  1.00  0.00     0.409 C 
HETATM   26  F   UNL     1     -10.506   1.642 -32.502  1.00  0.00    -0.169 F 
HETATM   27  F   UNL     1     -10.751   0.812 -34.495  1.00  0.00    -0.169 F 
HETATM   28  F   UNL     1     -10.964  -0.482 -32.771  1.00  0.00    -0.169 F 
ENDBRANCH   4  25
BRANCH   6  29
HETATM   29  C   UNL     1      -6.070  -0.837 -34.595  1.00  0.00    -0.035 A 
HETATM   30  C   UNL     1      -6.536  -2.079 -35.076  1.00  0.00     0.012 A 
HETATM   31  C   UNL     1      -5.891  -3.272 -34.741  1.00  0.00     0.043 A 
HETATM   32  C   UNL     1      -4.760  -3.239 -33.937  1.00  0.00     0.116 A 
HETATM   33  F   UNL     1      -4.141  -4.384 -33.620  1.00  0.00    -0.206 F 
HETATM   34  C   UNL     1      -4.261  -2.035 -33.468  1.00  0.00     0.043 A 
HETATM   35  C   UNL     1      -4.908  -0.841 -33.798  1.00  0.00     0.012 A 
ENDBRANCH   6  29
TORSDOF 6
ENDMDL
MODEL 5
REMARK VINA RESULT:      -8.9      4.660      8.026
REMARK  6 active torsions:
REMARK  status: ('A' for Active; 'I' for Inactive)
REMARK    1  A    between atoms: C_2  and  O_3 
REMARK    2  A    between atoms: C_2  and  C_4 
REMARK    3  A    between atoms: C_7  and  N_8 
REMARK       I    between atoms: N_8  and  C_9 
REMARK    4  A    between atoms: C_9  and  C_10 
REMARK    5  A    between atoms: C_13  and  C_14 
REMARK    6  A    between atoms: C_19  and  C_20 
ROOT
HETATM    1  C   UNL     1      -7.834   3.035 -32.089  1.00  0.00     0.096 A 
HETATM    2  C   UNL     1      -6.724   2.286 -31.744  1.00  0.00     0.138 A 
HETATM    3  N   UNL     1      -5.666   2.847 -32.423  1.00  0.00    -0.240 N 
HETATM    4  C   UNL     1      -4.305   2.342 -32.385  1.00  0.00     0.221 C 
HETATM    5  C   UNL     1      -4.143   1.312 -31.249  1.00  0.00     0.066 C 
HETATM    6  C   UNL     1      -5.346   0.355 -31.179  1.00  0.00     0.118 C 
HETATM    7  N   UNL     1      -6.550   1.177 -30.970  1.00  0.00    -0.365 N 
HETATM    8  N   UNL     1      -6.036   3.798 -33.293  1.00  0.00    -0.181 NA
HETATM    9  C   UNL     1      -7.349   3.925 -33.075  1.00  0.00     0.160 A 
HETATM   10  H   UNL     1      -7.367   0.612 -30.732  1.00  0.00     0.161 HD
ENDROOT
BRANCH   1  11
HETATM   11  C   UNL     1      -9.203   2.914 -31.623  1.00  0.00     0.261 C 
HETATM   12  N   UNL     1     -10.117   3.519 -32.464  1.00  0.00    -0.323 N 
HETATM   13  H   UNL     1      -9.742   3.843 -33.349  1.00  0.00     0.169 HD
HETATM   14  O   UNL     1      -9.463   2.285 -30.604  1.00  0.00    -0.267 OA
BRANCH  12  15
HETATM   15  C   UNL     1     -11.511   3.608 -32.295  1.00  0.00     0.035 A 
HETATM   16  C   UNL     1     -12.128   4.455 -31.375  1.00  0.00     0.030 A 
HETATM   17  C   UNL     1     -13.523   4.491 -31.264  1.00  0.00     0.012 A 
HETATM   18  C   UNL     1     -14.328   3.676 -32.072  1.00  0.00    -0.030 A 
HETATM   19  C   UNL     1     -13.704   2.823 -32.991  1.00  0.00     0.012 A 
HETATM   20  C   UNL     1     -12.311   2.800 -33.111  1.00  0.00     0.030 A 
BRANCH  18  21
HETATM   21  C   UNL     1     -15.833   3.701 -31.911  1.00  0.00     0.147 C 
HETATM   22  C   UNL     1     -16.467   2.371 -32.293  1.00  0.00     0.044 C 
BRANCH  21  23
HETATM   23  O   UNL     1     -16.404   4.732 -32.714  1.00  0.00    -0.391 OA
HETATM   24  H   UNL     1     -17.250   4.390 -33.051  1.00  0.00     0.210 HD
ENDBRANCH  21  23
ENDBRANCH  18  21
ENDBRANCH  12  15
ENDBRANCH   1  11
BRANCH   4  25
HETATM   25  C   UNL     1      -3.305   3.461 -32.193  1.00  0.00     0.409 C 
HETATM   26  F   UNL     1      -2.428   3.200 -31.197  1.00  0.00    -0.169 F 
HETATM   27  F   UNL     1      -2.565   3.606 -33.326  1.00  0.00    -0.169 F 
HETATM   28  F   UNL     1      -3.869   4.662 -31.957  1.00  0.00    -0.169 F 
ENDBRANCH   4  25
BRANCH   6  29
HETATM   29  C   UNL     1      -5.457  -0.600 -32.368  1.00  0.00    -0.035 A 
HETATM   30  C   UNL     1      -4.330  -1.351 -32.765  1.00  0.00     0.012 A 
HETATM   31  C   UNL     1      -4.393  -2.233 -33.847  1.00  0.00     0.043 A 
HETATM   32  C   UNL     1      -5.588  -2.393 -34.533  1.00  0.00     0.116 A 
HETATM   33  F   UNL     1      -5.648  -3.241 -35.568  1.00  0.00    -0.206 F 
HETATM   34  C   UNL     1      -6.721  -1.691 -34.154  1.00  0.00     0.043 A 
HETATM   35  C   UNL     1      -6.658  -0.804 -33.076  1.00  0.00     0.012 A 
ENDBRANCH   6  29
TORSDOF 6
ENDMDL
MODEL 6
REMARK VINA RESULT:      -8.9      4.082      8.467
REMARK  6 active torsions:
REMARK  status: ('A' for Active; 'I' for Inactive)
REMARK    1  A    between atoms: C_2  and  O_3 
REMARK    2  A    between atoms: C_2  and  C_4 
REMARK    3  A    between atoms: C_7  and  N_8 
REMARK       I    between atoms: N_8  and  C_9 
REMARK    4  A    between atoms: C_9  and  C_10 
REMARK    5  A    between atoms: C_13  and  C_14 
REMARK    6  A    between atoms: C_19  and  C_20 
ROOT
HETATM    1  C   UNL     1      -6.960   3.525 -32.635  1.00  0.00     0.096 A 
HETATM    2  C   UNL     1      -6.136   4.373 -31.918  1.00  0.00     0.138 A 
HETATM    3  N   UNL     1      -6.576   5.648 -32.193  1.00  0.00    -0.240 N 
HETATM    4  C   UNL     1      -5.961   6.858 -31.679  1.00  0.00     0.221 C 
HETATM    5  C   UNL     1      -4.970   6.521 -30.546  1.00  0.00     0.066 C 
HETATM    6  C   UNL     1      -4.122   5.284 -30.886  1.00  0.00     0.118 C 
HETATM    7  N   UNL     1      -5.051   4.164 -31.118  1.00  0.00    -0.365 N 
HETATM    8  N   UNL     1      -7.516   5.691 -33.149  1.00  0.00    -0.181 NA
HETATM    9  C   UNL     1      -7.763   4.402 -33.402  1.00  0.00     0.160 A 
HETATM   10  H   UNL     1      -4.568   3.265 -31.172  1.00  0.00     0.161 HD
ENDROOT
BRANCH   1  11
HETATM   11  C   UNL     1      -6.976   2.075 -32.672  1.00  0.00     0.261 C 
HETATM   12  N   UNL     1      -6.062   1.546 -33.563  1.00  0.00    -0.323 N 
HETATM   13  H   UNL     1      -5.415   2.214 -33.969  1.00  0.00     0.169 HD
HETATM   14  O   UNL     1      -7.712   1.438 -31.928  1.00  0.00    -0.267 OA
BRANCH  12  15
HETATM   15  C   UNL     1      -5.839   0.188 -33.860  1.00  0.00     0.035 A 
HETATM   16  C   UNL     1      -4.726  -0.529 -33.423  1.00  0.00     0.030 A 
HETATM   17  C   UNL     1      -4.573  -1.880 -33.757  1.00  0.00     0.012 A 
HETATM   18  C   UNL     1      -5.531  -2.539 -34.538  1.00  0.00    -0.030 A 
HETATM   19  C   UNL     1      -6.646  -1.814 -34.979  1.00  0.00     0.012 A 
HETATM   20  C   UNL     1      -6.804  -0.468 -34.632  1.00  0.00     0.030 A 
BRANCH  18  21
HETATM   21  C   UNL     1      -5.330  -3.989 -34.920  1.00  0.00     0.147 C 
HETATM   22  C   UNL     1      -6.649  -4.688 -35.214  1.00  0.00     0.044 C 
BRANCH  21  23
HETATM   23  O   UNL     1      -4.657  -4.692 -33.877  1.00  0.00    -0.391 OA
HETATM   24  H   UNL     1      -5.272  -4.733 -33.124  1.00  0.00     0.210 HD
ENDBRANCH  21  23
ENDBRANCH  18  21
ENDBRANCH  12  15
ENDBRANCH   1  11
BRANCH   4  25
HETATM   25  C   UNL     1      -6.999   7.831 -31.165  1.00  0.00     0.409 C 
HETATM   26  F   UNL     1      -6.491   8.684 -30.245  1.00  0.00    -0.169 F 
HETATM   27  F   UNL     1      -7.447   8.601 -32.195  1.00  0.00    -0.169 F 
HETATM   28  F   UNL     1      -8.088   7.239 -30.638  1.00  0.00    -0.169 F 
ENDBRANCH   4  25
BRANCH   6  29
HETATM   29  C   UNL     1      -3.129   5.499 -32.029  1.00  0.00    -0.035 A 
HETATM   30  C   UNL     1      -2.391   6.700 -32.091  1.00  0.00     0.012 A 
HETATM   31  C   UNL     1      -1.474   6.934 -33.120  1.00  0.00     0.043 A 
HETATM   32  C   UNL     1      -1.269   5.962 -34.089  1.00  0.00     0.116 A 
HETATM   33  F   UNL     1      -0.388   6.186 -35.073  1.00  0.00    -0.206 F 
HETATM   34  C   UNL     1      -1.958   4.761 -34.045  1.00  0.00     0.043 A 
HETATM   35  C   UNL     1      -2.878   4.529 -33.019  1.00  0.00     0.012 A 
ENDBRANCH   6  29
TORSDOF 6
ENDMDL
MODEL 7
REMARK VINA RESULT:      -8.7     15.455     17.632
REMARK  6 active torsions:
REMARK  status: ('A' for Active; 'I' for Inactive)
REMARK    1  A    between atoms: C_2  and  O_3 
REMARK    2  A    between atoms: C_2  and  C_4 
REMARK    3  A    between atoms: C_7  and  N_8 
REMARK       I    between atoms: N_8  and  C_9 
REMARK    4  A    between atoms: C_9  and  C_10 
REMARK    5  A    between atoms: C_13  and  C_14 
REMARK    6  A    between atoms: C_19  and  C_20 
ROOT
HETATM    1  C   UNL     1      -6.447 -14.551 -36.129  1.00  0.00     0.096 A 
HETATM    2  C   UNL     1      -5.647 -13.664 -36.825  1.00  0.00     0.138 A 
HETATM    3  N   UNL     1      -5.848 -13.943 -38.159  1.00  0.00    -0.240 N 
HETATM    4  C   UNL     1      -5.165 -13.273 -39.250  1.00  0.00     0.221 C 
HETATM    5  C   UNL     1      -4.442 -12.010 -38.740  1.00  0.00     0.066 C 
HETATM    6  C   UNL     1      -3.732 -12.268 -37.400  1.00  0.00     0.118 C 
HETATM    7  N   UNL     1      -4.756 -12.708 -36.437  1.00  0.00    -0.365 N 
HETATM    8  N   UNL     1      -6.595 -15.038 -38.367  1.00  0.00    -0.181 NA
HETATM    9  C   UNL     1      -6.974 -15.394 -37.136  1.00  0.00     0.160 A 
HETATM   10  H   UNL     1      -4.403 -12.728 -35.478  1.00  0.00     0.161 HD
ENDROOT
BRANCH   1  11
HETATM   11  C   UNL     1      -6.661 -14.665 -34.699  1.00  0.00     0.261 C 
HETATM   12  N   UNL     1      -5.902 -15.661 -34.114  1.00  0.00    -0.323 N 
HETATM   13  H   UNL     1      -5.206 -16.085 -34.718  1.00  0.00     0.169 HD
HETATM   14  O   UNL     1      -7.415 -13.895 -34.116  1.00  0.00    -0.267 OA
BRANCH  12  15
HETATM   15  C   UNL     1      -5.889 -16.049 -32.762  1.00  0.00     0.035 A 
HETATM   16  C   UNL     1      -5.135 -15.409 -31.779  1.00  0.00     0.030 A 
HETATM   17  C   UNL     1      -5.175 -15.851 -30.451  1.00  0.00     0.012 A 
HETATM   18  C   UNL     1      -5.968 -16.945 -30.082  1.00  0.00    -0.030 A 
HETATM   19  C   UNL     1      -6.720 -17.588 -31.074  1.00  0.00     0.012 A 
HETATM   20  C   UNL     1      -6.691 -17.136 -32.397  1.00  0.00     0.030 A 
BRANCH  18  21
HETATM   21  C   UNL     1      -5.969 -17.432 -28.649  1.00  0.00     0.147 C 
HETATM   22  C   UNL     1      -7.378 -17.530 -28.083  1.00  0.00     0.044 C 
BRANCH  21  23
HETATM   23  O   UNL     1      -5.199 -16.560 -27.825  1.00  0.00    -0.391 OA
HETATM   24  H   UNL     1      -5.716 -15.742 -27.722  1.00  0.00     0.210 HD
ENDBRANCH  21  23
ENDBRANCH  18  21
ENDBRANCH  12  15
ENDBRANCH   1  11
BRANCH   4  25
HETATM   25  C   UNL     1      -6.127 -12.888 -40.352  1.00  0.00     0.409 C 
HETATM   26  F   UNL     1      -7.375 -12.651 -39.885  1.00  0.00    -0.169 F 
HETATM   27  F   UNL     1      -5.710 -11.729 -40.933  1.00  0.00    -0.169 F 
HETATM   28  F   UNL     1      -6.211 -13.795 -41.345  1.00  0.00    -0.169 F 
ENDBRANCH   4  25
BRANCH   6  29
HETATM   29  C   UNL     1      -2.537 -13.217 -37.497  1.00  0.00    -0.035 A 
HETATM   30  C   UNL     1      -1.541 -12.985 -38.469  1.00  0.00     0.012 A 
HETATM   31  C   UNL     1      -0.435 -13.831 -38.588  1.00  0.00     0.043 A 
HETATM   32  C   UNL     1      -0.299 -14.908 -37.724  1.00  0.00     0.116 A 
HETATM   33  F   UNL     1       0.764 -15.716 -37.837  1.00  0.00    -0.206 F 
HETATM   34  C   UNL     1      -1.244 -15.151 -36.741  1.00  0.00     0.043 A 
HETATM   35  C   UNL     1      -2.354 -14.309 -36.624  1.00  0.00     0.012 A 
ENDBRANCH   6  29
TORSDOF 6
ENDMDL
MODEL 8
REMARK VINA RESULT:      -8.6     16.195     17.633
REMARK  6 active torsions:
REMARK  status: ('A' for Active; 'I' for Inactive)
REMARK    1  A    between atoms: C_2  and  O_3 
REMARK    2  A    between atoms: C_2  and  C_4 
REMARK    3  A    between atoms: C_7  and  N_8 
REMARK       I    between atoms: N_8  and  C_9 
REMARK    4  A    between atoms: C_9  and  C_10 
REMARK    5  A    between atoms: C_13  and  C_14 
REMARK    6  A    between atoms: C_19  and  C_20 
ROOT
HETATM    1  C   UNL     1      -7.193 -14.960 -37.179  1.00  0.00     0.096 A 
HETATM    2  C   UNL     1      -7.134 -13.944 -38.116  1.00  0.00     0.138 A 
HETATM    3  N   UNL     1      -8.181 -14.169 -38.981  1.00  0.00    -0.240 N 
HETATM    4  C   UNL     1      -8.467 -13.360 -40.152  1.00  0.00     0.221 C 
HETATM    5  C   UNL     1      -7.654 -12.049 -40.114  1.00  0.00     0.066 C 
HETATM    6  C   UNL     1      -6.207 -12.295 -39.654  1.00  0.00     0.118 C 
HETATM    7  N   UNL     1      -6.268 -12.910 -38.317  1.00  0.00    -0.365 N 
HETATM    8  N   UNL     1      -8.811 -15.333 -38.763  1.00  0.00    -0.181 NA
HETATM    9  C   UNL     1      -8.224 -15.802 -37.658  1.00  0.00     0.160 A 
HETATM   10  H   UNL     1      -5.354 -12.941 -37.864  1.00  0.00     0.161 HD
ENDROOT
BRANCH   1  11
HETATM   11  C   UNL     1      -6.362 -15.179 -36.011  1.00  0.00     0.261 C 
HETATM   12  N   UNL     1      -7.093 -15.344 -34.849  1.00  0.00    -0.323 N 
HETATM   13  H   UNL     1      -8.095 -15.427 -34.977  1.00  0.00     0.169 HD
HETATM   14  O   UNL     1      -5.143 -15.251 -36.114  1.00  0.00    -0.267 OA
BRANCH  12  15
HETATM   15  C   UNL     1      -6.600 -15.548 -33.547  1.00  0.00     0.035 A 
HETATM   16  C   UNL     1      -5.849 -14.605 -32.846  1.00  0.00     0.030 A 
HETATM   17  C   UNL     1      -5.394 -14.878 -31.550  1.00  0.00     0.012 A 
HETATM   18  C   UNL     1      -5.680 -16.103 -30.933  1.00  0.00    -0.030 A 
HETATM   19  C   UNL     1      -6.430 -17.050 -31.642  1.00  0.00     0.012 A 
HETATM   20  C   UNL     1      -6.896 -16.769 -32.931  1.00  0.00     0.030 A 
BRANCH  18  21
HETATM   21  C   UNL     1      -5.147 -16.395 -29.546  1.00  0.00     0.147 C 
HETATM   22  C   UNL     1      -4.345 -17.688 -29.507  1.00  0.00     0.044 C 
BRANCH  21  23
HETATM   23  O   UNL     1      -6.218 -16.487 -28.609  1.00  0.00    -0.391 OA
HETATM   24  H   UNL     1      -5.927 -16.024 -27.804  1.00  0.00     0.210 HD
ENDBRANCH  21  23
ENDBRANCH  18  21
ENDBRANCH  12  15
ENDBRANCH   1  11
BRANCH   4  25
HETATM   25  C   UNL     1      -9.941 -13.033 -40.252  1.00  0.00     0.409 C 
HETATM   26  F   UNL     1     -10.535 -12.966 -39.039  1.00  0.00    -0.169 F 
HETATM   27  F   UNL     1     -10.094 -11.806 -40.822  1.00  0.00    -0.169 F 
HETATM   28  F   UNL     1     -10.639 -13.892 -41.019  1.00  0.00    -0.169 F 
ENDBRANCH   4  25
BRANCH   6  29
HETATM   29  C   UNL     1      -5.359 -13.085 -40.652  1.00  0.00    -0.035 A 
HETATM   30  C   UNL     1      -4.060 -13.498 -40.286  1.00  0.00     0.012 A 
HETATM   31  C   UNL     1      -3.255 -14.221 -41.171  1.00  0.00     0.043 A 
HETATM   32  C   UNL     1      -3.745 -14.558 -42.425  1.00  0.00     0.116 A 
HETATM   33  F   UNL     1      -2.973 -15.253 -43.271  1.00  0.00    -0.206 F 
HETATM   34  C   UNL     1      -5.024 -14.190 -42.807  1.00  0.00     0.043 A 
HETATM   35  C   UNL     1      -5.828 -13.462 -41.925  1.00  0.00     0.012 A 
ENDBRANCH   6  29
TORSDOF 6
ENDMDL
MODEL 9
REMARK VINA RESULT:      -8.5      4.745      9.796
REMARK  6 active torsions:
REMARK  status: ('A' for Active; 'I' for Inactive)
REMARK    1  A    between atoms: C_2  and  O_3 
REMARK    2  A    between atoms: C_2  and  C_4 
REMARK    3  A    between atoms: C_7  and  N_8 
REMARK       I    between atoms: N_8  and  C_9 
REMARK    4  A    between atoms: C_9  and  C_10 
REMARK    5  A    between atoms: C_13  and  C_14 
REMARK    6  A    between atoms: C_19  and  C_20 
ROOT
HETATM    1  C   UNL     1      -4.997   3.196 -31.331  1.00  0.00     0.096 A 
HETATM    2  C   UNL     1      -4.534   4.497 -31.405  1.00  0.00     0.138 A 
HETATM    3  N   UNL     1      -3.165   4.402 -31.521  1.00  0.00    -0.240 N 
HETATM    4  C   UNL     1      -2.266   5.540 -31.582  1.00  0.00     0.221 C 
HETATM    5  C   UNL     1      -3.057   6.841 -31.825  1.00  0.00     0.066 C 
HETATM    6  C   UNL     1      -4.339   6.889 -30.976  1.00  0.00     0.118 C 
HETATM    7  N   UNL     1      -5.148   5.711 -31.334  1.00  0.00    -0.365 N 
HETATM    8  N   UNL     1      -2.703   3.152 -31.373  1.00  0.00    -0.181 NA
HETATM    9  C   UNL     1      -3.816   2.418 -31.278  1.00  0.00     0.160 A 
HETATM   10  H   UNL     1      -6.094   5.761 -30.951  1.00  0.00     0.161 HD
ENDROOT
BRANCH   1  11
HETATM   11  C   UNL     1      -6.363   2.712 -31.252  1.00  0.00     0.261 C 
HETATM   12  N   UNL     1      -6.873   2.327 -32.478  1.00  0.00    -0.323 N 
HETATM   13  H   UNL     1      -6.201   2.302 -33.238  1.00  0.00     0.169 HD
HETATM   14  O   UNL     1      -6.935   2.629 -30.173  1.00  0.00    -0.267 OA
BRANCH  12  15
HETATM   15  C   UNL     1      -8.163   1.840 -32.756  1.00  0.00     0.035 A 
HETATM   16  C   UNL     1      -8.598   0.559 -32.419  1.00  0.00     0.030 A 
HETATM   17  C   UNL     1      -9.899   0.144 -32.727  1.00  0.00     0.012 A 
HETATM   18  C   UNL     1     -10.790   1.005 -33.381  1.00  0.00    -0.030 A 
HETATM   19  C   UNL     1     -10.348   2.290 -33.722  1.00  0.00     0.012 A 
HETATM   20  C   UNL     1      -9.052   2.707 -33.401  1.00  0.00     0.030 A 
BRANCH  18  21
HETATM   21  C   UNL     1     -12.181   0.527 -33.739  1.00  0.00     0.147 C 
HETATM   22  C   UNL     1     -13.236   1.586 -33.457  1.00  0.00     0.044 C 
BRANCH  21  23
HETATM   23  O   UNL     1     -12.506  -0.655 -33.010  1.00  0.00    -0.391 OA
HETATM   24  H   UNL     1     -11.679  -0.971 -32.606  1.00  0.00     0.210 HD
ENDBRANCH  21  23
ENDBRANCH  18  21
ENDBRANCH  12  15
ENDBRANCH   1  11
BRANCH   4  25
HETATM   25  C   UNL     1      -1.233   5.371 -32.675  1.00  0.00     0.409 C 
HETATM   26  F   UNL     1      -0.863   6.553 -33.219  1.00  0.00    -0.169 F 
HETATM   27  F   UNL     1      -0.104   4.821 -32.150  1.00  0.00    -0.169 F 
HETATM   28  F   UNL     1      -1.622   4.550 -33.670  1.00  0.00    -0.169 F 
ENDBRANCH   4  25
BRANCH   6  29
HETATM   29  C   UNL     1      -4.091   7.025 -29.473  1.00  0.00    -0.035 A 
HETATM   30  C   UNL     1      -5.029   6.497 -28.562  1.00  0.00     0.012 A 
HETATM   31  C   UNL     1      -4.837   6.603 -27.182  1.00  0.00     0.043 A 
HETATM   32  C   UNL     1      -3.694   7.219 -26.694  1.00  0.00     0.116 A 
HETATM   33  F   UNL     1      -3.509   7.317 -25.371  1.00  0.00    -0.206 F 
HETATM   34  C   UNL     1      -2.739   7.727 -27.560  1.00  0.00     0.043 A 
HETATM   35  C   UNL     1      -2.933   7.626 -28.940  1.00  0.00     0.012 A 
ENDBRANCH   6  29
TORSDOF 6
ENDMDL
MODEL 10
REMARK VINA RESULT:      -8.4      5.482      8.832
REMARK  6 active torsions:
REMARK  status: ('A' for Active; 'I' for Inactive)
REMARK    1  A    between atoms: C_2  and  O_3 
REMARK    2  A    between atoms: C_2  and  C_4 
REMARK    3  A    between atoms: C_7  and  N_8 
REMARK       I    between atoms: N_8  and  C_9 
REMARK    4  A    between atoms: C_9  and  C_10 
REMARK    5  A    between atoms: C_13  and  C_14 
REMARK    6  A    between atoms: C_19  and  C_20 
ROOT
HETATM    1  C   UNL     1     -11.173   1.878 -33.448  1.00  0.00     0.096 A 
HETATM    2  C   UNL     1     -11.939   2.918 -32.955  1.00  0.00     0.138 A 
HETATM    3  N   UNL     1     -13.246   2.585 -33.231  1.00  0.00    -0.240 N 
HETATM    4  C   UNL     1     -14.390   3.425 -32.925  1.00  0.00     0.221 C 
HETATM    5  C   UNL     1     -13.980   4.569 -31.975  1.00  0.00     0.066 C 
HETATM    6  C   UNL     1     -12.631   5.185 -32.381  1.00  0.00     0.118 C 
HETATM    7  N   UNL     1     -11.630   4.104 -32.359  1.00  0.00    -0.365 N 
HETATM    8  N   UNL     1     -13.367   1.490 -33.996  1.00  0.00    -0.181 NA
HETATM    9  C   UNL     1     -12.110   1.050 -34.110  1.00  0.00     0.160 A 
HETATM   10  H   UNL     1     -10.675   4.459 -32.440  1.00  0.00     0.161 HD
ENDROOT
BRANCH   1  11
HETATM   11  C   UNL     1      -9.736   1.686 -33.381  1.00  0.00     0.261 C 
HETATM   12  N   UNL     1      -9.366   0.354 -33.411  1.00  0.00    -0.323 N 
HETATM   13  H   UNL     1     -10.115  -0.299 -33.609  1.00  0.00     0.169 HD
HETATM   14  O   UNL     1      -8.977   2.647 -33.353  1.00  0.00    -0.267 OA
BRANCH  12  15
HETATM   15  C   UNL     1      -8.064  -0.176 -33.337  1.00  0.00     0.035 A 
HETATM   16  C   UNL     1      -7.256  -0.093 -32.205  1.00  0.00     0.030 A 
HETATM   17  C   UNL     1      -5.970  -0.647 -32.205  1.00  0.00     0.012 A 
HETATM   18  C   UNL     1      -5.468  -1.293 -33.343  1.00  0.00    -0.030 A 
HETATM   19  C   UNL     1      -6.282  -1.370 -34.480  1.00  0.00     0.012 A 
HETATM   20  C   UNL     1      -7.571  -0.829 -34.473  1.00  0.00     0.030 A 
BRANCH  18  21
HETATM   21  C   UNL     1      -4.061  -1.852 -33.338  1.00  0.00     0.147 C 
HETATM   22  C   UNL     1      -4.023  -3.298 -33.809  1.00  0.00     0.044 C 
BRANCH  21  23
HETATM   23  O   UNL     1      -3.499  -1.778 -32.029  1.00  0.00    -0.391 OA
HETATM   24  H   UNL     1      -4.225  -1.547 -31.424  1.00  0.00     0.210 HD
ENDBRANCH  21  23
ENDBRANCH  18  21
ENDBRANCH  12  15
ENDBRANCH   1  11
BRANCH   4  25
HETATM   25  C   UNL     1     -15.510   2.627 -32.295  1.00  0.00     0.409 C 
HETATM   26  F   UNL     1     -15.070   1.822 -31.301  1.00  0.00    -0.169 F 
HETATM   27  F   UNL     1     -16.409   3.479 -31.727  1.00  0.00    -0.169 F 
HETATM   28  F   UNL     1     -16.206   1.877 -33.171  1.00  0.00    -0.169 F 
ENDBRANCH   4  25
BRANCH   6  29
HETATM   29  C   UNL     1     -12.666   5.958 -33.700  1.00  0.00    -0.035 A 
HETATM   30  C   UNL     1     -11.463   6.205 -34.394  1.00  0.00     0.012 A 
HETATM   31  C   UNL     1     -11.455   6.908 -35.602  1.00  0.00     0.043 A 
HETATM   32  C   UNL     1     -12.652   7.355 -36.142  1.00  0.00     0.116 A 
HETATM   33  F   UNL     1     -12.643   8.027 -37.301  1.00  0.00    -0.206 F 
HETATM   34  C   UNL     1     -13.855   7.109 -35.500  1.00  0.00     0.043 A 
HETATM   35  C   UNL     1     -13.863   6.410 -34.290  1.00  0.00     0.012 A 
ENDBRANCH   6  29
TORSDOF 6
ENDMDL
