MODEL 1
REMARK VINA RESULT:     -10.1      0.000      0.000
REMARK  4 active torsions:
REMARK  status: ('A' for Active; 'I' for Inactive)
REMARK       I    between atoms: N_2  and  C_4 
REMARK       I    between atoms: C_4  and  N_6 
REMARK    1  A    between atoms: N_6  and  C_7 
REMARK    2  A    between atoms: C_12  and  C_13 
REMARK    3  A    between atoms: C_15  and  N_16 
REMARK    4  A    between atoms: N_16  and  C_17 
ROOT
HETATM    1  C   UNL     1      -9.882   1.472 -32.975  1.00  0.00     0.164 A 
HETATM    2  N   UNL     1      -8.948   0.994 -33.809  1.00  0.00    -0.210 NA
HETATM    3  C   UNL     1      -7.655   1.167 -33.490  1.00  0.00     0.143 A 
HETATM    4  C   UNL     1      -7.265   1.837 -32.321  1.00  0.00     0.039 A 
HETATM    5  C   UNL     1      -5.923   2.058 -31.916  1.00  0.00     0.018 A 
HETATM    6  C   UNL     1      -5.638   2.744 -30.738  1.00  0.00     0.001 A 
HETATM    7  C   UNL     1      -6.684   3.209 -29.952  1.00  0.00     0.002 A 
HETATM    8  C   UNL     1      -8.005   2.977 -30.345  1.00  0.00     0.032 A 
HETATM    9  C   UNL     1      -8.316   2.294 -31.514  1.00  0.00     0.073 A 
HETATM   10  N   UNL     1      -9.606   2.104 -31.820  1.00  0.00    -0.228 NA
ENDROOT
BRANCH   1  11
HETATM   11  C   UNL     1     -11.296   1.292 -33.377  1.00  0.00     0.039 A 
HETATM   12  C   UNL     1     -12.164   2.359 -33.733  1.00  0.00     0.050 A 
HETATM   13  C   UNL     1     -13.501   2.081 -34.063  1.00  0.00     0.030 A 
HETATM   14  C   UNL     1     -13.990   0.774 -34.077  1.00  0.00     0.002 A 
HETATM   15  C   UNL     1     -13.154  -0.280 -33.746  1.00  0.00     0.001 A 
HETATM   16  C   UNL     1     -11.830  -0.022 -33.398  1.00  0.00     0.018 A 
BRANCH  12  17
HETATM   17  N   UNL     1     -11.680   3.691 -33.692  1.00  0.00    -0.308 N 
HETATM   18  C   UNL     1     -11.180   4.456 -34.719  1.00  0.00     0.322 C 
HETATM   19  N   UNL     1     -11.014   5.805 -34.398  1.00  0.00    -0.343 N 
HETATM   20  O   UNL     1     -10.882   4.025 -35.830  1.00  0.00    -0.247 OA
HETATM   21  C   UNL     1     -10.413   6.662 -35.407  1.00  0.00     0.154 C 
HETATM   22  C   UNL     1     -11.722   6.498 -33.328  1.00  0.00     0.154 C 
HETATM   23  H   UNL     1     -11.462   4.028 -32.759  1.00  0.00     0.170 HD
ENDBRANCH  12  17
ENDBRANCH   1  11
BRANCH   3  24
HETATM   24  N   UNL     1      -6.666   0.673 -34.384  1.00  0.00    -0.340 N 
HETATM   25  H   UNL     1      -6.903   0.964 -35.327  1.00  0.00     0.167 HD
BRANCH  24  26
HETATM   26  C   UNL     1      -6.096  -0.625 -34.358  1.00  0.00     0.034 A 
HETATM   27  C   UNL     1      -4.861  -0.825 -33.721  1.00  0.00     0.032 A 
HETATM   28  C   UNL     1      -4.259  -2.091 -33.642  1.00  0.00     0.034 A 
HETATM   29  C   UNL     1      -4.958  -3.160 -34.206  1.00  0.00     0.062 A 
HETATM   30  N   UNL     1      -4.665  -4.496 -34.305  1.00  0.00    -0.278 N 
HETATM   31  C   UNL     1      -6.197  -3.014 -34.814  1.00  0.00     0.013 A 
HETATM   32  H   UNL     1      -3.835  -4.973 -33.975  1.00  0.00     0.189 HD
HETATM   33  N   UNL     1      -5.617  -5.225 -34.916  1.00  0.00    -0.186 NA
HETATM   34  C   UNL     1      -6.548  -4.318 -35.224  1.00  0.00     0.152 A 
HETATM   35  C   UNL     1      -6.781  -1.737 -34.880  1.00  0.00     0.044 A 
ENDBRANCH  24  26
ENDBRANCH   3  24
TORSDOF 4
ENDMDL
MODEL 2
REMARK VINA RESULT:      -9.6      3.741      7.058
REMARK  4 active torsions:
REMARK  status: ('A' for Active; 'I' for Inactive)
REMARK       I    between atoms: N_2  and  C_4 
REMARK       I    between atoms: C_4  and  N_6 
REMARK    1  A    between atoms: N_6  and  C_7 
REMARK    2  A    between atoms: C_12  and  C_13 
REMARK    3  A    between atoms: C_15  and  N_16 
REMARK    4  A    between atoms: N_16  and  C_17 
ROOT
HETATM    1  C   UNL     1      -5.769   0.837 -32.262  1.00  0.00     0.164 A 
HETATM    2  N   UNL     1      -4.568   1.401 -32.075  1.00  0.00    -0.210 NA
HETATM    3  C   UNL     1      -4.481   2.471 -31.270  1.00  0.00     0.143 A 
HETATM    4  C   UNL     1      -5.609   3.011 -30.633  1.00  0.00     0.039 A 
HETATM    5  C   UNL     1      -5.597   4.137 -29.770  1.00  0.00     0.018 A 
HETATM    6  C   UNL     1      -6.775   4.604 -29.192  1.00  0.00     0.001 A 
HETATM    7  C   UNL     1      -7.970   3.951 -29.462  1.00  0.00     0.002 A 
HETATM    8  C   UNL     1      -7.977   2.833 -30.301  1.00  0.00     0.032 A 
HETATM    9  C   UNL     1      -6.815   2.347 -30.889  1.00  0.00     0.073 A 
HETATM   10  N   UNL     1      -6.901   1.266 -31.675  1.00  0.00    -0.228 NA
ENDROOT
BRANCH   1  11
HETATM   11  C   UNL     1      -5.830  -0.322 -33.183  1.00  0.00     0.039 A 
HETATM   12  C   UNL     1      -6.830  -0.495 -34.178  1.00  0.00     0.050 A 
HETATM   13  C   UNL     1      -6.818  -1.651 -34.976  1.00  0.00     0.030 A 
HETATM   14  C   UNL     1      -5.827  -2.624 -34.832  1.00  0.00     0.002 A 
HETATM   15  C   UNL     1      -4.836  -2.465 -33.876  1.00  0.00     0.001 A 
HETATM   16  C   UNL     1      -4.843  -1.333 -33.063  1.00  0.00     0.018 A 
BRANCH  12  17
HETATM   17  N   UNL     1      -7.855   0.475 -34.308  1.00  0.00    -0.308 N 
HETATM   18  C   UNL     1      -9.095   0.501 -33.714  1.00  0.00     0.322 C 
HETATM   19  N   UNL     1      -9.773   1.713 -33.859  1.00  0.00    -0.343 N 
HETATM   20  O   UNL     1      -9.600  -0.443 -33.111  1.00  0.00    -0.247 OA
HETATM   21  C   UNL     1     -11.123   1.790 -33.327  1.00  0.00     0.154 C 
HETATM   22  C   UNL     1      -9.134   2.994 -34.134  1.00  0.00     0.154 C 
HETATM   23  H   UNL     1      -7.750   1.090 -35.109  1.00  0.00     0.170 HD
ENDBRANCH  12  17
ENDBRANCH   1  11
BRANCH   3  24
HETATM   24  N   UNL     1      -3.208   3.078 -31.086  1.00  0.00    -0.340 N 
HETATM   25  H   UNL     1      -2.991   3.089 -30.096  1.00  0.00     0.167 HD
BRANCH  24  26
HETATM   26  C   UNL     1      -2.739   4.243 -31.745  1.00  0.00     0.034 A 
HETATM   27  C   UNL     1      -2.306   4.157 -33.078  1.00  0.00     0.032 A 
HETATM   28  C   UNL     1      -1.854   5.281 -33.788  1.00  0.00     0.034 A 
HETATM   29  C   UNL     1      -1.878   6.505 -33.118  1.00  0.00     0.062 A 
HETATM   30  N   UNL     1      -1.513   7.769 -33.505  1.00  0.00    -0.278 N 
HETATM   31  C   UNL     1      -2.331   6.641 -31.813  1.00  0.00     0.013 A 
HETATM   32  H   UNL     1      -1.130   8.056 -34.397  1.00  0.00     0.189 HD
HETATM   33  N   UNL     1      -1.704   8.710 -32.563  1.00  0.00    -0.186 NA
HETATM   34  C   UNL     1      -2.203   8.019 -31.534  1.00  0.00     0.152 A 
HETATM   35  C   UNL     1      -2.780   5.503 -31.121  1.00  0.00     0.044 A 
ENDBRANCH  24  26
ENDBRANCH   3  24
TORSDOF 4
ENDMDL
MODEL 3
REMARK VINA RESULT:      -9.5      2.862      5.672
REMARK  4 active torsions:
REMARK  status: ('A' for Active; 'I' for Inactive)
REMARK       I    between atoms: N_2  and  C_4 
REMARK       I    between atoms: C_4  and  N_6 
REMARK    1  A    between atoms: N_6  and  C_7 
REMARK    2  A    between atoms: C_12  and  C_13 
REMARK    3  A    between atoms: C_15  and  N_16 
REMARK    4  A    between atoms: N_16  and  C_17 
ROOT
HETATM    1  C   UNL     1      -8.214   0.496 -33.311  1.00  0.00     0.164 A 
HETATM    2  N   UNL     1      -7.449   1.025 -32.346  1.00  0.00    -0.210 NA
HETATM    3  C   UNL     1      -6.247   0.479 -32.110  1.00  0.00     0.143 A 
HETATM    4  C   UNL     1      -5.781  -0.627 -32.837  1.00  0.00     0.039 A 
HETATM    5  C   UNL     1      -4.524  -1.258 -32.648  1.00  0.00     0.018 A 
HETATM    6  C   UNL     1      -4.156  -2.359 -33.417  1.00  0.00     0.001 A 
HETATM    7  C   UNL     1      -5.031  -2.835 -34.384  1.00  0.00     0.002 A 
HETATM    8  C   UNL     1      -6.262  -2.202 -34.579  1.00  0.00     0.032 A 
HETATM    9  C   UNL     1      -6.652  -1.102 -33.826  1.00  0.00     0.073 A 
HETATM   10  N   UNL     1      -7.844  -0.546 -34.077  1.00  0.00    -0.228 NA
ENDROOT
BRANCH   1  11
HETATM   11  C   UNL     1      -9.549   1.105 -33.519  1.00  0.00     0.039 A 
HETATM   12  C   UNL     1      -9.755   2.461 -33.891  1.00  0.00     0.050 A 
HETATM   13  C   UNL     1     -11.065   2.949 -34.027  1.00  0.00     0.030 A 
HETATM   14  C   UNL     1     -12.173   2.122 -33.831  1.00  0.00     0.002 A 
HETATM   15  C   UNL     1     -11.990   0.794 -33.481  1.00  0.00     0.001 A 
HETATM   16  C   UNL     1     -10.697   0.297 -33.324  1.00  0.00     0.018 A 
BRANCH  12  17
HETATM   17  N   UNL     1      -8.634   3.312 -34.062  1.00  0.00    -0.308 N 
HETATM   18  C   UNL     1      -8.281   4.424 -33.336  1.00  0.00     0.322 C 
HETATM   19  N   UNL     1      -6.994   4.898 -33.606  1.00  0.00    -0.343 N 
HETATM   20  O   UNL     1      -9.008   4.988 -32.523  1.00  0.00    -0.247 OA
HETATM   21  C   UNL     1      -6.579   6.119 -32.936  1.00  0.00     0.154 C 
HETATM   22  C   UNL     1      -5.917   4.097 -34.174  1.00  0.00     0.154 C 
HETATM   23  H   UNL     1      -8.177   3.224 -34.965  1.00  0.00     0.170 HD
ENDBRANCH  12  17
ENDBRANCH   1  11
BRANCH   3  24
HETATM   24  N   UNL     1      -5.444   1.032 -31.075  1.00  0.00    -0.340 N 
HETATM   25  H   UNL     1      -5.860   0.802 -30.179  1.00  0.00     0.167 HD
BRANCH  24  26
HETATM   26  C   UNL     1      -4.866   2.327 -31.072  1.00  0.00     0.034 A 
HETATM   27  C   UNL     1      -5.486   3.360 -30.350  1.00  0.00     0.032 A 
HETATM   28  C   UNL     1      -4.948   4.655 -30.291  1.00  0.00     0.034 A 
HETATM   29  C   UNL     1      -3.745   4.872 -30.965  1.00  0.00     0.062 A 
HETATM   30  N   UNL     1      -2.966   5.990 -31.112  1.00  0.00    -0.278 N 
HETATM   31  C   UNL     1      -3.080   3.872 -31.661  1.00  0.00     0.013 A 
HETATM   32  H   UNL     1      -3.138   6.917 -30.742  1.00  0.00     0.189 HD
HETATM   33  N   UNL     1      -1.848   5.792 -31.835  1.00  0.00    -0.186 NA
HETATM   34  C   UNL     1      -1.922   4.501 -32.168  1.00  0.00     0.152 A 
HETATM   35  C   UNL     1      -3.637   2.582 -31.706  1.00  0.00     0.044 A 
ENDBRANCH  24  26
ENDBRANCH   3  24
TORSDOF 4
ENDMDL
MODEL 4
REMARK VINA RESULT:      -9.4      2.759      7.204
REMARK  4 active torsions:
REMARK  status: ('A' for Active; 'I' for Inactive)
REMARK       I    between atoms: N_2  and  C_4 
REMARK       I    between atoms: C_4  and  N_6 
REMARK    1  A    between atoms: N_6  and  C_7 
REMARK    2  A    between atoms: C_12  and  C_13 
REMARK    3  A    between atoms: C_15  and  N_16 
REMARK    4  A    between atoms: N_16  and  C_17 
ROOT
HETATM    1  C   UNL     1      -6.994   2.741 -31.839  1.00  0.00     0.164 A 
HETATM    2  N   UNL     1      -7.957   3.029 -32.725  1.00  0.00    -0.210 NA
HETATM    3  C   UNL     1      -8.219   2.142 -33.697  1.00  0.00     0.143 A 
HETATM    4  C   UNL     1      -7.510   0.937 -33.809  1.00  0.00     0.039 A 
HETATM    5  C   UNL     1      -7.729  -0.049 -34.806  1.00  0.00     0.018 A 
HETATM    6  C   UNL     1      -6.963  -1.212 -34.838  1.00  0.00     0.001 A 
HETATM    7  C   UNL     1      -5.980  -1.406 -33.878  1.00  0.00     0.002 A 
HETATM    8  C   UNL     1      -5.777  -0.440 -32.887  1.00  0.00     0.032 A 
HETATM    9  C   UNL     1      -6.527   0.728 -32.832  1.00  0.00     0.073 A 
HETATM   10  N   UNL     1      -6.279   1.602 -31.850  1.00  0.00    -0.228 NA
ENDROOT
BRANCH   1  11
HETATM   11  C   UNL     1      -6.711   3.760 -30.801  1.00  0.00     0.039 A 
HETATM   12  C   UNL     1      -5.549   4.578 -30.785  1.00  0.00     0.050 A 
HETATM   13  C   UNL     1      -5.359   5.488 -29.732  1.00  0.00     0.030 A 
HETATM   14  C   UNL     1      -6.302   5.628 -28.712  1.00  0.00     0.002 A 
HETATM   15  C   UNL     1      -7.447   4.848 -28.719  1.00  0.00     0.001 A 
HETATM   16  C   UNL     1      -7.643   3.926 -29.746  1.00  0.00     0.018 A 
BRANCH  12  17
HETATM   17  N   UNL     1      -4.574   4.419 -31.802  1.00  0.00    -0.308 N 
HETATM   18  C   UNL     1      -4.527   5.002 -33.046  1.00  0.00     0.322 C 
HETATM   19  N   UNL     1      -3.314   4.827 -33.715  1.00  0.00    -0.343 N 
HETATM   20  O   UNL     1      -5.454   5.620 -33.564  1.00  0.00    -0.247 OA
HETATM   21  C   UNL     1      -3.216   5.345 -35.069  1.00  0.00     0.154 C 
HETATM   22  C   UNL     1      -2.043   4.530 -33.064  1.00  0.00     0.154 C 
HETATM   23  H   UNL     1      -3.977   3.606 -31.686  1.00  0.00     0.170 HD
ENDBRANCH  12  17
ENDBRANCH   1  11
BRANCH   3  24
HETATM   24  N   UNL     1      -9.231   2.457 -34.646  1.00  0.00    -0.340 N 
HETATM   25  H   UNL     1      -8.973   3.312 -35.127  1.00  0.00     0.167 HD
BRANCH  24  26
HETATM   26  C   UNL     1     -10.629   2.373 -34.429  1.00  0.00     0.034 A 
HETATM   27  C   UNL     1     -11.419   3.527 -34.551  1.00  0.00     0.032 A 
HETATM   28  C   UNL     1     -12.812   3.500 -34.372  1.00  0.00     0.034 A 
HETATM   29  C   UNL     1     -13.390   2.260 -34.091  1.00  0.00     0.062 A 
HETATM   30  N   UNL     1     -14.688   1.886 -33.862  1.00  0.00    -0.278 N 
HETATM   31  C   UNL     1     -12.651   1.089 -33.997  1.00  0.00     0.013 A 
HETATM   32  H   UNL     1     -15.509   2.478 -33.846  1.00  0.00     0.189 HD
HETATM   33  N   UNL     1     -14.851   0.569 -33.640  1.00  0.00    -0.186 NA
HETATM   34  C   UNL     1     -13.607   0.087 -33.723  1.00  0.00     0.152 A 
HETATM   35  C   UNL     1     -11.258   1.139 -34.181  1.00  0.00     0.044 A 
ENDBRANCH  24  26
ENDBRANCH   3  24
TORSDOF 4
ENDMDL
MODEL 5
REMARK VINA RESULT:      -9.4      2.579      7.109
REMARK  4 active torsions:
REMARK  status: ('A' for Active; 'I' for Inactive)
REMARK       I    between atoms: N_2  and  C_4 
REMARK       I    between atoms: C_4  and  N_6 
REMARK    1  A    between atoms: N_6  and  C_7 
REMARK    2  A    between atoms: C_12  and  C_13 
REMARK    3  A    between atoms: C_15  and  N_16 
REMARK    4  A    between atoms: N_16  and  C_17 
ROOT
HETATM    1  C   UNL     1      -4.997   1.989 -32.870  1.00  0.00     0.164 A 
HETATM    2  N   UNL     1      -6.126   2.174 -33.567  1.00  0.00    -0.210 NA
HETATM    3  C   UNL     1      -6.667   1.123 -34.202  1.00  0.00     0.143 A 
HETATM    4  C   UNL     1      -6.079  -0.150 -34.157  1.00  0.00     0.039 A 
HETATM    5  C   UNL     1      -6.589  -1.309 -34.799  1.00  0.00     0.018 A 
HETATM    6  C   UNL     1      -5.924  -2.528 -34.702  1.00  0.00     0.001 A 
HETATM    7  C   UNL     1      -4.752  -2.607 -33.963  1.00  0.00     0.002 A 
HETATM    8  C   UNL     1      -4.259  -1.468 -33.319  1.00  0.00     0.032 A 
HETATM    9  C   UNL     1      -4.904  -0.240 -33.398  1.00  0.00     0.073 A 
HETATM   10  N   UNL     1      -4.374   0.803 -32.748  1.00  0.00    -0.228 NA
ENDROOT
BRANCH   1  11
HETATM   11  C   UNL     1      -4.412   3.181 -32.211  1.00  0.00     0.039 A 
HETATM   12  C   UNL     1      -5.180   4.252 -31.678  1.00  0.00     0.050 A 
HETATM   13  C   UNL     1      -4.523   5.354 -31.107  1.00  0.00     0.030 A 
HETATM   14  C   UNL     1      -3.131   5.410 -31.025  1.00  0.00     0.002 A 
HETATM   15  C   UNL     1      -2.367   4.368 -31.528  1.00  0.00     0.001 A 
HETATM   16  C   UNL     1      -3.001   3.274 -32.115  1.00  0.00     0.018 A 
BRANCH  12  17
HETATM   17  N   UNL     1      -6.593   4.214 -31.785  1.00  0.00    -0.308 N 
HETATM   18  C   UNL     1      -7.505   3.649 -30.925  1.00  0.00     0.322 C 
HETATM   19  N   UNL     1      -8.832   3.993 -31.193  1.00  0.00    -0.343 N 
HETATM   20  O   UNL     1      -7.218   2.894 -30.000  1.00  0.00    -0.247 OA
HETATM   21  C   UNL     1      -9.860   3.371 -30.377  1.00  0.00     0.154 C 
HETATM   22  C   UNL     1      -9.249   5.180 -31.930  1.00  0.00     0.154 C 
HETATM   23  H   UNL     1      -6.947   4.419 -32.714  1.00  0.00     0.170 HD
ENDBRANCH  12  17
ENDBRANCH   1  11
BRANCH   3  24
HETATM   24  N   UNL     1      -7.856   1.325 -34.954  1.00  0.00    -0.340 N 
HETATM   25  H   UNL     1      -7.670   2.005 -35.683  1.00  0.00     0.167 HD
BRANCH  24  26
HETATM   26  C   UNL     1      -9.163   1.463 -34.423  1.00  0.00     0.034 A 
HETATM   27  C   UNL     1      -9.729   0.404 -33.694  1.00  0.00     0.032 A 
HETATM   28  C   UNL     1     -11.009   0.492 -33.124  1.00  0.00     0.034 A 
HETATM   29  C   UNL     1     -11.695   1.697 -33.289  1.00  0.00     0.062 A 
HETATM   30  N   UNL     1     -12.934   2.110 -32.874  1.00  0.00    -0.278 N 
HETATM   31  C   UNL     1     -11.159   2.781 -33.970  1.00  0.00     0.013 A 
HETATM   32  H   UNL     1     -13.619   1.580 -32.349  1.00  0.00     0.189 HD
HETATM   33  N   UNL     1     -13.237   3.374 -33.220  1.00  0.00    -0.186 NA
HETATM   34  C   UNL     1     -12.154   3.779 -33.888  1.00  0.00     0.152 A 
HETATM   35  C   UNL     1      -9.875   2.671 -34.533  1.00  0.00     0.044 A 
ENDBRANCH  24  26
ENDBRANCH   3  24
TORSDOF 4
ENDMDL
MODEL 6
REMARK VINA RESULT:      -9.2      3.289      7.197
REMARK  4 active torsions:
REMARK  status: ('A' for Active; 'I' for Inactive)
REMARK       I    between atoms: N_2  and  C_4 
REMARK       I    between atoms: C_4  and  N_6 
REMARK    1  A    between atoms: N_6  and  C_7 
REMARK    2  A    between atoms: C_12  and  C_13 
REMARK    3  A    between atoms: C_15  and  N_16 
REMARK    4  A    between atoms: N_16  and  C_17 
ROOT
HETATM    1  C   UNL     1      -5.383   2.849 -31.184  1.00  0.00     0.164 A 
HETATM    2  N   UNL     1      -6.256   2.630 -32.178  1.00  0.00    -0.210 NA
HETATM    3  C   UNL     1      -6.170   1.480 -32.864  1.00  0.00     0.143 A 
HETATM    4  C   UNL     1      -5.194   0.515 -32.572  1.00  0.00     0.039 A 
HETATM    5  C   UNL     1      -5.041  -0.722 -33.250  1.00  0.00     0.018 A 
HETATM    6  C   UNL     1      -4.031  -1.611 -32.890  1.00  0.00     0.001 A 
HETATM    7  C   UNL     1      -3.173  -1.281 -31.851  1.00  0.00     0.002 A 
HETATM    8  C   UNL     1      -3.335  -0.068 -31.175  1.00  0.00     0.032 A 
HETATM    9  C   UNL     1      -4.334   0.836 -31.513  1.00  0.00     0.073 A 
HETATM   10  N   UNL     1      -4.431   1.974 -30.814  1.00  0.00    -0.228 NA
ENDROOT
BRANCH   1  11
HETATM   11  C   UNL     1      -5.488   4.144 -30.472  1.00  0.00     0.039 A 
HETATM   12  C   UNL     1      -4.532   5.190 -30.581  1.00  0.00     0.050 A 
HETATM   13  C   UNL     1      -4.707   6.366 -29.832  1.00  0.00     0.030 A 
HETATM   14  C   UNL     1      -5.816   6.542 -29.003  1.00  0.00     0.002 A 
HETATM   15  C   UNL     1      -6.765   5.537 -28.895  1.00  0.00     0.001 A 
HETATM   16  C   UNL     1      -6.598   4.356 -29.617  1.00  0.00     0.018 A 
BRANCH  12  17
HETATM   17  N   UNL     1      -3.389   5.005 -31.398  1.00  0.00    -0.308 N 
HETATM   18  C   UNL     1      -3.242   5.263 -32.741  1.00  0.00     0.322 C 
HETATM   19  N   UNL     1      -1.922   5.199 -33.193  1.00  0.00    -0.343 N 
HETATM   20  O   UNL     1      -4.166   5.518 -33.509  1.00  0.00    -0.247 OA
HETATM   21  C   UNL     1      -1.695   5.380 -34.618  1.00  0.00     0.154 C 
HETATM   22  C   UNL     1      -0.745   5.354 -32.347  1.00  0.00     0.154 C 
HETATM   23  H   UNL     1      -2.683   4.395 -30.998  1.00  0.00     0.170 HD
ENDBRANCH  12  17
ENDBRANCH   1  11
BRANCH   3  24
HETATM   24  N   UNL     1      -7.086   1.258 -33.929  1.00  0.00    -0.340 N 
HETATM   25  H   UNL     1      -6.873   1.900 -34.684  1.00  0.00     0.167 HD
BRANCH  24  26
HETATM   26  C   UNL     1      -8.481   1.044 -33.794  1.00  0.00     0.034 A 
HETATM   27  C   UNL     1      -8.946  -0.010 -32.991  1.00  0.00     0.032 A 
HETATM   28  C   UNL     1     -10.315  -0.255 -32.801  1.00  0.00     0.034 A 
HETATM   29  C   UNL     1     -11.207   0.617 -33.428  1.00  0.00     0.062 A 
HETATM   30  N   UNL     1     -12.577   0.663 -33.454  1.00  0.00    -0.278 N 
HETATM   31  C   UNL     1     -10.792   1.692 -34.201  1.00  0.00     0.013 A 
HETATM   32  H   UNL     1     -13.226   0.030 -33.003  1.00  0.00     0.189 HD
HETATM   33  N   UNL     1     -13.080   1.686 -34.169  1.00  0.00    -0.186 NA
HETATM   34  C   UNL     1     -11.989   2.310 -34.623  1.00  0.00     0.152 A 
HETATM   35  C   UNL     1      -9.416   1.919 -34.377  1.00  0.00     0.044 A 
ENDBRANCH  24  26
ENDBRANCH   3  24
TORSDOF 4
ENDMDL
MODEL 7
REMARK VINA RESULT:      -9.1     15.388     17.828
REMARK  4 active torsions:
REMARK  status: ('A' for Active; 'I' for Inactive)
REMARK       I    between atoms: N_2  and  C_4 
REMARK       I    between atoms: C_4  and  N_6 
REMARK    1  A    between atoms: N_6  and  C_7 
REMARK    2  A    between atoms: C_12  and  C_13 
REMARK    3  A    between atoms: C_15  and  N_16 
REMARK    4  A    between atoms: N_16  and  C_17 
ROOT
HETATM    1  C   UNL     1      -5.032 -13.612 -38.945  1.00  0.00     0.164 A 
HETATM    2  N   UNL     1      -5.486 -14.343 -37.917  1.00  0.00    -0.210 NA
HETATM    3  C   UNL     1      -6.810 -14.401 -37.708  1.00  0.00     0.143 A 
HETATM    4  C   UNL     1      -7.719 -13.716 -38.528  1.00  0.00     0.039 A 
HETATM    5  C   UNL     1      -9.130 -13.729 -38.373  1.00  0.00     0.018 A 
HETATM    6  C   UNL     1      -9.949 -13.006 -39.236  1.00  0.00     0.001 A 
HETATM    7  C   UNL     1      -9.373 -12.271 -40.263  1.00  0.00     0.002 A 
HETATM    8  C   UNL     1      -7.984 -12.272 -40.424  1.00  0.00     0.032 A 
HETATM    9  C   UNL     1      -7.145 -12.985 -39.578  1.00  0.00     0.073 A 
HETATM   10  N   UNL     1      -5.826 -12.943 -39.800  1.00  0.00    -0.228 NA
ENDROOT
BRANCH   1  11
HETATM   11  C   UNL     1      -3.563 -13.545 -39.124  1.00  0.00     0.039 A 
HETATM   12  C   UNL     1      -2.847 -14.278 -40.109  1.00  0.00     0.050 A 
HETATM   13  C   UNL     1      -1.447 -14.170 -40.168  1.00  0.00     0.030 A 
HETATM   14  C   UNL     1      -0.744 -13.336 -39.297  1.00  0.00     0.002 A 
HETATM   15  C   UNL     1      -1.427 -12.604 -38.339  1.00  0.00     0.001 A 
HETATM   16  C   UNL     1      -2.814 -12.712 -38.254  1.00  0.00     0.018 A 
BRANCH  12  17
HETATM   17  N   UNL     1      -3.553 -15.148 -40.976  1.00  0.00    -0.308 N 
HETATM   18  C   UNL     1      -3.979 -14.920 -42.264  1.00  0.00     0.322 C 
HETATM   19  N   UNL     1      -4.433 -16.062 -42.926  1.00  0.00    -0.343 N 
HETATM   20  O   UNL     1      -3.986 -13.821 -42.812  1.00  0.00    -0.247 OA
HETATM   21  C   UNL     1      -4.975 -15.887 -44.264  1.00  0.00     0.154 C 
HETATM   22  C   UNL     1      -4.066 -17.428 -42.573  1.00  0.00     0.154 C 
HETATM   23  H   UNL     1      -3.996 -15.934 -40.510  1.00  0.00     0.170 HD
ENDBRANCH  12  17
ENDBRANCH   1  11
BRANCH   3  24
HETATM   24  N   UNL     1      -7.288 -15.163 -36.607  1.00  0.00    -0.340 N 
HETATM   25  H   UNL     1      -8.294 -15.262 -36.690  1.00  0.00     0.167 HD
BRANCH  24  26
HETATM   26  C   UNL     1      -6.880 -15.021 -35.257  1.00  0.00     0.034 A 
HETATM   27  C   UNL     1      -6.753 -13.737 -34.704  1.00  0.00     0.032 A 
HETATM   28  C   UNL     1      -6.376 -13.534 -33.367  1.00  0.00     0.034 A 
HETATM   29  C   UNL     1      -6.155 -14.675 -32.592  1.00  0.00     0.062 A 
HETATM   30  N   UNL     1      -5.781 -14.835 -31.283  1.00  0.00    -0.278 N 
HETATM   31  C   UNL     1      -6.303 -15.962 -33.088  1.00  0.00     0.013 A 
HETATM   32  H   UNL     1      -5.578 -14.110 -30.605  1.00  0.00     0.189 HD
HETATM   33  N   UNL     1      -5.688 -16.118 -30.890  1.00  0.00    -0.186 NA
HETATM   34  C   UNL     1      -6.006 -16.802 -31.992  1.00  0.00     0.152 A 
HETATM   35  C   UNL     1      -6.682 -16.141 -34.430  1.00  0.00     0.044 A 
ENDBRANCH  24  26
ENDBRANCH   3  24
TORSDOF 4
ENDMDL
MODEL 8
REMARK VINA RESULT:      -9.1      2.535      5.923
REMARK  4 active torsions:
REMARK  status: ('A' for Active; 'I' for Inactive)
REMARK       I    between atoms: N_2  and  C_4 
REMARK       I    between atoms: C_4  and  N_6 
REMARK    1  A    between atoms: N_6  and  C_7 
REMARK    2  A    between atoms: C_12  and  C_13 
REMARK    3  A    between atoms: C_15  and  N_16 
REMARK    4  A    between atoms: N_16  and  C_17 
ROOT
HETATM    1  C   UNL     1      -9.232   1.419 -33.819  1.00  0.00     0.164 A 
HETATM    2  N   UNL     1      -8.860   1.707 -32.564  1.00  0.00    -0.210 NA
HETATM    3  C   UNL     1      -7.804   1.061 -32.045  1.00  0.00     0.143 A 
HETATM    4  C   UNL     1      -7.094   0.097 -32.776  1.00  0.00     0.039 A 
HETATM    5  C   UNL     1      -5.970  -0.626 -32.297  1.00  0.00     0.018 A 
HETATM    6  C   UNL     1      -5.338  -1.573 -33.100  1.00  0.00     0.001 A 
HETATM    7  C   UNL     1      -5.814  -1.803 -34.383  1.00  0.00     0.002 A 
HETATM    8  C   UNL     1      -6.912  -1.079 -34.858  1.00  0.00     0.032 A 
HETATM    9  C   UNL     1      -7.559  -0.128 -34.078  1.00  0.00     0.073 A 
HETATM   10  N   UNL     1      -8.599   0.530 -34.605  1.00  0.00    -0.228 NA
ENDROOT
BRANCH   1  11
HETATM   11  C   UNL     1     -10.422   2.128 -34.345  1.00  0.00     0.039 A 
HETATM   12  C   UNL     1     -10.460   3.522 -34.621  1.00  0.00     0.050 A 
HETATM   13  C   UNL     1     -11.652   4.102 -35.084  1.00  0.00     0.030 A 
HETATM   14  C   UNL     1     -12.797   3.334 -35.306  1.00  0.00     0.002 A 
HETATM   15  C   UNL     1     -12.774   1.971 -35.055  1.00  0.00     0.001 A 
HETATM   16  C   UNL     1     -11.604   1.381 -34.578  1.00  0.00     0.018 A 
BRANCH  12  17
HETATM   17  N   UNL     1      -9.309   4.311 -34.369  1.00  0.00    -0.308 N 
HETATM   18  C   UNL     1      -9.093   5.217 -33.358  1.00  0.00     0.322 C 
HETATM   19  N   UNL     1      -7.769   5.648 -33.251  1.00  0.00    -0.343 N 
HETATM   20  O   UNL     1      -9.964   5.643 -32.604  1.00  0.00    -0.247 OA
HETATM   21  C   UNL     1      -7.478   6.668 -32.257  1.00  0.00     0.154 C 
HETATM   22  C   UNL     1      -6.614   4.914 -33.753  1.00  0.00     0.154 C 
HETATM   23  H   UNL     1      -8.673   4.386 -35.157  1.00  0.00     0.170 HD
ENDBRANCH  12  17
ENDBRANCH   1  11
BRANCH   3  24
HETATM   24  N   UNL     1      -7.421   1.357 -30.707  1.00  0.00    -0.340 N 
HETATM   25  H   UNL     1      -8.105   0.956 -30.075  1.00  0.00     0.167 HD
BRANCH  24  26
HETATM   26  C   UNL     1      -6.932   2.602 -30.239  1.00  0.00     0.034 A 
HETATM   27  C   UNL     1      -5.613   2.982 -30.531  1.00  0.00     0.032 A 
HETATM   28  C   UNL     1      -5.081   4.214 -30.114  1.00  0.00     0.034 A 
HETATM   29  C   UNL     1      -5.936   5.066 -29.413  1.00  0.00     0.062 A 
HETATM   30  N   UNL     1      -5.745   6.311 -28.871  1.00  0.00    -0.278 N 
HETATM   31  C   UNL     1      -7.257   4.746 -29.133  1.00  0.00     0.013 A 
HETATM   32  H   UNL     1      -4.897   6.864 -28.875  1.00  0.00     0.189 HD
HETATM   33  N   UNL     1      -6.836   6.825 -28.275  1.00  0.00    -0.186 NA
HETATM   34  C   UNL     1      -7.755   5.869 -28.437  1.00  0.00     0.152 A 
HETATM   35  C   UNL     1      -7.768   3.509 -29.561  1.00  0.00     0.044 A 
ENDBRANCH  24  26
ENDBRANCH   3  24
TORSDOF 4
ENDMDL
MODEL 9
REMARK VINA RESULT:      -9.0      2.504      7.025
REMARK  4 active torsions:
REMARK  status: ('A' for Active; 'I' for Inactive)
REMARK       I    between atoms: N_2  and  C_4 
REMARK       I    between atoms: C_4  and  N_6 
REMARK    1  A    between atoms: N_6  and  C_7 
REMARK    2  A    between atoms: C_12  and  C_13 
REMARK    3  A    between atoms: C_15  and  N_16 
REMARK    4  A    between atoms: N_16  and  C_17 
ROOT
HETATM    1  C   UNL     1      -5.253   0.585 -32.586  1.00  0.00     0.164 A 
HETATM    2  N   UNL     1      -6.096   0.906 -31.595  1.00  0.00    -0.210 NA
HETATM    3  C   UNL     1      -5.895   2.054 -30.929  1.00  0.00     0.143 A 
HETATM    4  C   UNL     1      -4.829   2.912 -31.240  1.00  0.00     0.039 A 
HETATM    5  C   UNL     1      -4.552   4.140 -30.584  1.00  0.00     0.018 A 
HETATM    6  C   UNL     1      -3.460   4.918 -30.961  1.00  0.00     0.001 A 
HETATM    7  C   UNL     1      -2.641   4.486 -31.995  1.00  0.00     0.002 A 
HETATM    8  C   UNL     1      -2.925   3.283 -32.649  1.00  0.00     0.032 A 
HETATM    9  C   UNL     1      -4.008   2.489 -32.294  1.00  0.00     0.073 A 
HETATM   10  N   UNL     1      -4.219   1.355 -32.973  1.00  0.00    -0.228 NA
ENDROOT
BRANCH   1  11
HETATM   11  C   UNL     1      -5.487  -0.705 -33.275  1.00  0.00     0.039 A 
HETATM   12  C   UNL     1      -6.766  -1.164 -33.690  1.00  0.00     0.050 A 
HETATM   13  C   UNL     1      -6.883  -2.423 -34.303  1.00  0.00     0.030 A 
HETATM   14  C   UNL     1      -5.765  -3.224 -34.539  1.00  0.00     0.002 A 
HETATM   15  C   UNL     1      -4.508  -2.786 -34.153  1.00  0.00     0.001 A 
HETATM   16  C   UNL     1      -4.375  -1.548 -33.527  1.00  0.00     0.018 A 
BRANCH  12  17
HETATM   17  N   UNL     1      -7.909  -0.368 -33.427  1.00  0.00    -0.308 N 
HETATM   18  C   UNL     1      -8.401   0.695 -34.147  1.00  0.00     0.322 C 
HETATM   19  N   UNL     1      -9.675   1.110 -33.754  1.00  0.00    -0.343 N 
HETATM   20  O   UNL     1      -7.797   1.264 -35.052  1.00  0.00    -0.247 OA
HETATM   21  C   UNL     1     -10.229   2.281 -34.415  1.00  0.00     0.154 C 
HETATM   22  C   UNL     1     -10.639   0.276 -33.046  1.00  0.00     0.154 C 
HETATM   23  H   UNL     1      -8.262  -0.444 -32.477  1.00  0.00     0.170 HD
ENDBRANCH  12  17
ENDBRANCH   1  11
BRANCH   3  24
HETATM   24  N   UNL     1      -6.782   2.385 -29.868  1.00  0.00    -0.340 N 
HETATM   25  H   UNL     1      -7.034   1.535 -29.376  1.00  0.00     0.167 HD
BRANCH  24  26
HETATM   26  C   UNL     1      -7.866   3.295 -29.943  1.00  0.00     0.034 A 
HETATM   27  C   UNL     1      -7.724   4.586 -29.410  1.00  0.00     0.032 A 
HETATM   28  C   UNL     1      -8.755   5.538 -29.476  1.00  0.00     0.034 A 
HETATM   29  C   UNL     1      -9.929   5.154 -30.125  1.00  0.00     0.062 A 
HETATM   30  N   UNL     1     -11.104   5.819 -30.362  1.00  0.00    -0.278 N 
HETATM   31  C   UNL     1     -10.099   3.901 -30.698  1.00  0.00     0.013 A 
HETATM   32  H   UNL     1     -11.349   6.762 -30.083  1.00  0.00     0.189 HD
HETATM   33  N   UNL     1     -12.013   5.104 -31.049  1.00  0.00    -0.186 NA
HETATM   34  C   UNL     1     -11.397   3.936 -31.252  1.00  0.00     0.152 A 
HETATM   35  C   UNL     1      -9.054   2.964 -30.620  1.00  0.00     0.044 A 
ENDBRANCH  24  26
ENDBRANCH   3  24
TORSDOF 4
ENDMDL
MODEL 10
REMARK VINA RESULT:      -9.0      3.117      7.195
REMARK  4 active torsions:
REMARK  status: ('A' for Active; 'I' for Inactive)
REMARK       I    between atoms: N_2  and  C_4 
REMARK       I    between atoms: C_4  and  N_6 
REMARK    1  A    between atoms: N_6  and  C_7 
REMARK    2  A    between atoms: C_12  and  C_13 
REMARK    3  A    between atoms: C_15  and  N_16 
REMARK    4  A    between atoms: N_16  and  C_17 
ROOT
HETATM    1  C   UNL     1      -8.539   0.879 -33.748  1.00  0.00     0.164 A 
HETATM    2  N   UNL     1      -8.256   2.173 -33.947  1.00  0.00    -0.210 NA
HETATM    3  C   UNL     1      -9.272   3.046 -34.027  1.00  0.00     0.143 A 
HETATM    4  C   UNL     1     -10.609   2.637 -33.916  1.00  0.00     0.039 A 
HETATM    5  C   UNL     1     -11.735   3.497 -33.989  1.00  0.00     0.018 A 
HETATM    6  C   UNL     1     -13.028   2.990 -33.876  1.00  0.00     0.001 A 
HETATM    7  C   UNL     1     -13.209   1.628 -33.683  1.00  0.00     0.002 A 
HETATM    8  C   UNL     1     -12.098   0.784 -33.597  1.00  0.00     0.032 A 
HETATM    9  C   UNL     1     -10.799   1.264 -33.705  1.00  0.00     0.073 A 
HETATM   10  N   UNL     1      -9.786   0.395 -33.604  1.00  0.00    -0.228 NA
ENDROOT
BRANCH   1  11
HETATM   11  C   UNL     1      -7.392  -0.059 -33.699  1.00  0.00     0.039 A 
HETATM   12  C   UNL     1      -6.410  -0.061 -32.672  1.00  0.00     0.050 A 
HETATM   13  C   UNL     1      -5.341  -0.969 -32.741  1.00  0.00     0.030 A 
HETATM   14  C   UNL     1      -5.236  -1.892 -33.783  1.00  0.00     0.002 A 
HETATM   15  C   UNL     1      -6.192  -1.913 -34.786  1.00  0.00     0.001 A 
HETATM   16  C   UNL     1      -7.250  -1.007 -34.744  1.00  0.00     0.018 A 
BRANCH  12  17
HETATM   17  N   UNL     1      -6.496   0.893 -31.627  1.00  0.00    -0.308 N 
HETATM   18  C   UNL     1      -5.669   1.960 -31.367  1.00  0.00     0.322 C 
HETATM   19  N   UNL     1      -6.165   2.847 -30.408  1.00  0.00    -0.343 N 
HETATM   20  O   UNL     1      -4.578   2.145 -31.901  1.00  0.00    -0.247 OA
HETATM   21  C   UNL     1      -5.310   3.957 -30.021  1.00  0.00     0.154 C 
HETATM   22  C   UNL     1      -7.572   2.987 -30.056  1.00  0.00     0.154 C 
HETATM   23  H   UNL     1      -7.095   0.615 -30.855  1.00  0.00     0.170 HD
ENDBRANCH  12  17
ENDBRANCH   1  11
BRANCH   3  24
HETATM   24  N   UNL     1      -8.970   4.417 -34.254  1.00  0.00    -0.340 N 
HETATM   25  H   UNL     1      -9.034   4.606 -35.249  1.00  0.00     0.167 HD
BRANCH  24  26
HETATM   26  C   UNL     1      -7.922   5.150 -33.642  1.00  0.00     0.034 A 
HETATM   27  C   UNL     1      -8.228   6.104 -32.658  1.00  0.00     0.032 A 
HETATM   28  C   UNL     1      -7.231   6.843 -32.001  1.00  0.00     0.034 A 
HETATM   29  C   UNL     1      -5.907   6.569 -32.349  1.00  0.00     0.062 A 
HETATM   30  N   UNL     1      -4.718   7.095 -31.915  1.00  0.00    -0.278 N 
HETATM   31  C   UNL     1      -5.558   5.610 -33.290  1.00  0.00     0.013 A 
HETATM   32  H   UNL     1      -4.579   7.827 -31.228  1.00  0.00     0.189 HD
HETATM   33  N   UNL     1      -3.631   6.547 -32.488  1.00  0.00    -0.186 NA
HETATM   34  C   UNL     1      -4.147   5.643 -33.325  1.00  0.00     0.152 A 
HETATM   35  C   UNL     1      -6.573   4.882 -33.935  1.00  0.00     0.044 A 
ENDBRANCH  24  26
ENDBRANCH   3  24
TORSDOF 4
ENDMDL
