MODEL 1
REMARK VINA RESULT:      -7.2      0.000      0.000
REMARK  3 active torsions:
REMARK  status: ('A' for Active; 'I' for Inactive)
REMARK       I    between atoms: C_2  and  N_3 
REMARK    1  A    between atoms: N_3  and  C_4 
REMARK    2  A    between atoms: C_7  and  N_8 
REMARK       I    between atoms: N_8  and  C_9 
REMARK    3  A    between atoms: C_9  and  C_10 
ROOT
HETATM    1  C   UNL     1       1.480   7.804 -26.286  1.00  0.00     0.034 A 
HETATM    2  C   UNL     1       1.767   8.493 -27.469  1.00  0.00     0.032 A 
HETATM    3  C   UNL     1       1.113   8.172 -28.666  1.00  0.00     0.032 A 
HETATM    4  C   UNL     1       0.164   7.152 -28.702  1.00  0.00     0.035 A 
HETATM    5  C   UNL     1      -0.108   6.451 -27.523  1.00  0.00     0.032 A 
HETATM    6  C   UNL     1       0.543   6.773 -26.326  1.00  0.00     0.032 A 
ENDROOT
BRANCH   4   7
HETATM    7  N   UNL     1      -0.572   6.794 -29.851  1.00  0.00    -0.323 N 
HETATM    8  C   UNL     1      -0.303   5.758 -30.727  1.00  0.00     0.257 C 
HETATM    9  O   UNL     1       0.546   4.885 -30.594  1.00  0.00    -0.267 OA
HETATM   10  H   UNL     1      -1.403   7.345 -30.018  1.00  0.00     0.169 HD
BRANCH   8  11
HETATM   11  C   UNL     1      -1.164   5.708 -31.935  1.00  0.00     0.050 A 
HETATM   12  C   UNL     1      -2.022   4.625 -32.104  1.00  0.00     0.135 A 
HETATM   13  N   UNL     1      -2.842   4.469 -33.173  1.00  0.00    -0.248 NA
HETATM   14  C   UNL     1      -2.784   5.426 -34.119  1.00  0.00     0.125 A 
HETATM   15 CL   UNL     1      -3.827   5.183 -35.457  1.00  0.00    -0.063 Cl
HETATM   16  C   UNL     1      -1.952   6.533 -34.059  1.00  0.00     0.045 A 
HETATM   17  C   UNL     1      -1.124   6.675 -32.946  1.00  0.00     0.022 A 
ENDBRANCH   8  11
ENDBRANCH   4   7
BRANCH   1  18
HETATM   18  N   UNL     1       2.160   8.211 -25.120  1.00  0.00    -0.328 N 
HETATM   19  C   UNL     1       1.847   9.275 -24.293  1.00  0.00     0.218 C 
HETATM   20  C   UNL     1       2.836   9.417 -23.163  1.00  0.00     0.117 C 
HETATM   21  O   UNL     1       0.901  10.046 -24.403  1.00  0.00    -0.274 OA
HETATM   22  H   UNL     1       2.981   7.673 -24.875  1.00  0.00     0.169 HD
ENDBRANCH   1  18
TORSDOF 3
ENDMDL
MODEL 2
REMARK VINA RESULT:      -7.1      5.002      9.822
REMARK  3 active torsions:
REMARK  status: ('A' for Active; 'I' for Inactive)
REMARK       I    between atoms: C_2  and  N_3 
REMARK    1  A    between atoms: N_3  and  C_4 
REMARK    2  A    between atoms: C_7  and  N_8 
REMARK       I    between atoms: N_8  and  C_9 
REMARK    3  A    between atoms: C_9  and  C_10 
ROOT
HETATM    1  C   UNL     1      -5.241   0.060 -32.810  1.00  0.00     0.034 A 
HETATM    2  C   UNL     1      -5.637   1.366 -33.114  1.00  0.00     0.032 A 
HETATM    3  C   UNL     1      -4.926   2.468 -32.620  1.00  0.00     0.032 A 
HETATM    4  C   UNL     1      -3.809   2.282 -31.808  1.00  0.00     0.035 A 
HETATM    5  C   UNL     1      -3.425   0.975 -31.489  1.00  0.00     0.032 A 
HETATM    6  C   UNL     1      -4.133  -0.126 -31.985  1.00  0.00     0.032 A 
ENDROOT
BRANCH   4   7
HETATM    7  N   UNL     1      -3.012   3.331 -31.305  1.00  0.00    -0.323 N 
HETATM    8  C   UNL     1      -2.254   4.229 -32.035  1.00  0.00     0.257 C 
HETATM    9  O   UNL     1      -2.239   4.358 -33.253  1.00  0.00    -0.267 OA
HETATM   10  H   UNL     1      -3.035   3.446 -30.301  1.00  0.00     0.169 HD
BRANCH   8  11
HETATM   11  C   UNL     1      -1.395   5.135 -31.232  1.00  0.00     0.050 A 
HETATM   12  C   UNL     1      -1.997   5.997 -30.321  1.00  0.00     0.135 A 
HETATM   13  N   UNL     1      -1.315   6.876 -29.545  1.00  0.00    -0.248 NA
HETATM   14  C   UNL     1       0.023   6.906 -29.706  1.00  0.00     0.125 A 
HETATM   15 CL   UNL     1       0.844   8.039 -28.717  1.00  0.00    -0.063 Cl
HETATM   16  C   UNL     1       0.719   6.106 -30.599  1.00  0.00     0.045 A 
HETATM   17  C   UNL     1      -0.006   5.206 -31.380  1.00  0.00     0.022 A 
ENDBRANCH   8  11
ENDBRANCH   4   7
BRANCH   1  18
HETATM   18  N   UNL     1      -5.992  -0.991 -33.375  1.00  0.00    -0.328 N 
HETATM   19  C   UNL     1      -5.519  -2.061 -34.115  1.00  0.00     0.218 C 
HETATM   20  C   UNL     1      -6.638  -2.958 -34.582  1.00  0.00     0.117 C 
HETATM   21  O   UNL     1      -4.352  -2.310 -34.394  1.00  0.00    -0.274 OA
HETATM   22  H   UNL     1      -6.993  -0.944 -33.237  1.00  0.00     0.169 HD
ENDBRANCH   1  18
TORSDOF 3
ENDMDL
MODEL 3
REMARK VINA RESULT:      -7.0      5.474      7.994
REMARK  3 active torsions:
REMARK  status: ('A' for Active; 'I' for Inactive)
REMARK       I    between atoms: C_2  and  N_3 
REMARK    1  A    between atoms: N_3  and  C_4 
REMARK    2  A    between atoms: C_7  and  N_8 
REMARK       I    between atoms: N_8  and  C_9 
REMARK    3  A    between atoms: C_9  and  C_10 
ROOT
HETATM    1  C   UNL     1      -3.202   4.986 -31.388  1.00  0.00     0.034 A 
HETATM    2  C   UNL     1      -4.428   4.545 -30.881  1.00  0.00     0.032 A 
HETATM    3  C   UNL     1      -5.005   3.349 -31.329  1.00  0.00     0.032 A 
HETATM    4  C   UNL     1      -4.367   2.576 -32.297  1.00  0.00     0.035 A 
HETATM    5  C   UNL     1      -3.150   3.027 -32.817  1.00  0.00     0.032 A 
HETATM    6  C   UNL     1      -2.572   4.221 -32.368  1.00  0.00     0.032 A 
ENDROOT
BRANCH   4   7
HETATM    7  N   UNL     1      -4.854   1.340 -32.771  1.00  0.00    -0.323 N 
HETATM    8  C   UNL     1      -4.371   0.079 -32.467  1.00  0.00     0.257 C 
HETATM    9  O   UNL     1      -3.520  -0.199 -31.632  1.00  0.00    -0.267 OA
HETATM   10  H   UNL     1      -5.665   1.398 -33.371  1.00  0.00     0.169 HD
BRANCH   8  11
HETATM   11  C   UNL     1      -4.985  -1.037 -33.230  1.00  0.00     0.050 A 
HETATM   12  C   UNL     1      -4.213  -2.159 -33.514  1.00  0.00     0.135 A 
HETATM   13  N   UNL     1      -4.664  -3.230 -34.214  1.00  0.00    -0.248 NA
HETATM   14  C   UNL     1      -5.932  -3.162 -34.665  1.00  0.00     0.125 A 
HETATM   15 CL   UNL     1      -6.456  -4.530 -35.554  1.00  0.00    -0.063 Cl
HETATM   16  C   UNL     1      -6.777  -2.084 -34.455  1.00  0.00     0.045 A 
HETATM   17  C   UNL     1      -6.292  -0.998 -33.726  1.00  0.00     0.022 A 
ENDBRANCH   8  11
ENDBRANCH   4   7
BRANCH   1  18
HETATM   18  N   UNL     1      -2.677   6.183 -30.860  1.00  0.00    -0.328 N 
HETATM   19  C   UNL     1      -1.445   6.368 -30.256  1.00  0.00     0.218 C 
HETATM   20  C   UNL     1      -1.261   7.787 -29.782  1.00  0.00     0.117 C 
HETATM   21  O   UNL     1      -0.567   5.529 -30.094  1.00  0.00    -0.274 OA
HETATM   22  H   UNL     1      -3.282   6.993 -30.913  1.00  0.00     0.169 HD
ENDBRANCH   1  18
TORSDOF 3
ENDMDL
MODEL 4
REMARK VINA RESULT:      -7.0     11.592     13.024
REMARK  3 active torsions:
REMARK  status: ('A' for Active; 'I' for Inactive)
REMARK       I    between atoms: C_2  and  N_3 
REMARK    1  A    between atoms: N_3  and  C_4 
REMARK    2  A    between atoms: C_7  and  N_8 
REMARK       I    between atoms: N_8  and  C_9 
REMARK    3  A    between atoms: C_9  and  C_10 
ROOT
HETATM    1  C   UNL     1     -11.114   2.690 -32.955  1.00  0.00     0.034 A 
HETATM    2  C   UNL     1      -9.817   3.054 -32.579  1.00  0.00     0.032 A 
HETATM    3  C   UNL     1      -8.759   2.139 -32.662  1.00  0.00     0.032 A 
HETATM    4  C   UNL     1      -8.982   0.841 -33.117  1.00  0.00     0.035 A 
HETATM    5  C   UNL     1     -10.282   0.472 -33.476  1.00  0.00     0.032 A 
HETATM    6  C   UNL     1     -11.339   1.387 -33.396  1.00  0.00     0.032 A 
ENDROOT
BRANCH   4   7
HETATM    7  N   UNL     1      -7.969  -0.128 -33.274  1.00  0.00    -0.323 N 
HETATM    8  C   UNL     1      -7.268  -0.426 -34.430  1.00  0.00     0.257 C 
HETATM    9  O   UNL     1      -7.309   0.184 -35.491  1.00  0.00    -0.267 OA
HETATM   10  H   UNL     1      -7.716  -0.627 -32.432  1.00  0.00     0.169 HD
BRANCH   8  11
HETATM   11  C   UNL     1      -6.362  -1.598 -34.338  1.00  0.00     0.050 A 
HETATM   12  C   UNL     1      -5.088  -1.421 -33.808  1.00  0.00     0.135 A 
HETATM   13  N   UNL     1      -4.173  -2.414 -33.688  1.00  0.00    -0.248 NA
HETATM   14  C   UNL     1      -4.543  -3.629 -34.139  1.00  0.00     0.125 A 
HETATM   15 CL   UNL     1      -3.353  -4.852 -33.981  1.00  0.00    -0.063 Cl
HETATM   16  C   UNL     1      -5.779  -3.908 -34.702  1.00  0.00     0.045 A 
HETATM   17  C   UNL     1      -6.705  -2.870 -34.807  1.00  0.00     0.022 A 
ENDBRANCH   8  11
ENDBRANCH   4   7
BRANCH   1  18
HETATM   18  N   UNL     1     -12.113   3.681 -32.871  1.00  0.00    -0.328 N 
HETATM   19  C   UNL     1     -12.738   4.337 -33.917  1.00  0.00     0.218 C 
HETATM   20  C   UNL     1     -13.728   5.363 -33.425  1.00  0.00     0.117 C 
HETATM   21  O   UNL     1     -12.558   4.158 -35.116  1.00  0.00    -0.274 OA
HETATM   22  H   UNL     1     -12.389   3.954 -31.936  1.00  0.00     0.169 HD
ENDBRANCH   1  18
TORSDOF 3
ENDMDL
MODEL 5
REMARK VINA RESULT:      -7.0     11.681     13.111
REMARK  3 active torsions:
REMARK  status: ('A' for Active; 'I' for Inactive)
REMARK       I    between atoms: C_2  and  N_3 
REMARK    1  A    between atoms: N_3  and  C_4 
REMARK    2  A    between atoms: C_7  and  N_8 
REMARK       I    between atoms: N_8  and  C_9 
REMARK    3  A    between atoms: C_9  and  C_10 
ROOT
HETATM    1  C   UNL     1      -5.539  -1.894 -33.935  1.00  0.00     0.034 A 
HETATM    2  C   UNL     1      -5.762  -1.144 -32.776  1.00  0.00     0.032 A 
HETATM    3  C   UNL     1      -6.769  -0.171 -32.730  1.00  0.00     0.032 A 
HETATM    4  C   UNL     1      -7.567   0.074 -33.846  1.00  0.00     0.035 A 
HETATM    5  C   UNL     1      -7.332  -0.664 -35.011  1.00  0.00     0.032 A 
HETATM    6  C   UNL     1      -6.327  -1.639 -35.056  1.00  0.00     0.032 A 
ENDROOT
BRANCH   4   7
HETATM    7  N   UNL     1      -8.630   1.002 -33.873  1.00  0.00    -0.323 N 
HETATM    8  C   UNL     1      -9.936   0.789 -33.469  1.00  0.00     0.257 C 
HETATM    9  O   UNL     1     -10.375  -0.200 -32.895  1.00  0.00    -0.267 OA
HETATM   10  H   UNL     1      -8.384   1.928 -34.194  1.00  0.00     0.169 HD
BRANCH   8  11
HETATM   11  C   UNL     1     -10.876   1.902 -33.751  1.00  0.00     0.050 A 
HETATM   12  C   UNL     1     -10.833   3.037 -32.947  1.00  0.00     0.135 A 
HETATM   13  N   UNL     1     -11.652   4.107 -33.103  1.00  0.00    -0.248 NA
HETATM   14  C   UNL     1     -12.564   4.026 -34.091  1.00  0.00     0.125 A 
HETATM   15 CL   UNL     1     -13.586   5.393 -34.245  1.00  0.00    -0.063 Cl
HETATM   16  C   UNL     1     -12.705   2.935 -34.935  1.00  0.00     0.045 A 
HETATM   17  C   UNL     1     -11.845   1.850 -34.758  1.00  0.00     0.022 A 
ENDBRANCH   8  11
ENDBRANCH   4   7
BRANCH   1  18
HETATM   18  N   UNL     1      -4.528  -2.875 -33.886  1.00  0.00    -0.328 N 
HETATM   19  C   UNL     1      -4.650  -4.224 -34.170  1.00  0.00     0.218 C 
HETATM   20  C   UNL     1      -3.349  -4.960 -33.963  1.00  0.00     0.117 C 
HETATM   21  O   UNL     1      -5.655  -4.814 -34.547  1.00  0.00    -0.274 OA
HETATM   22  H   UNL     1      -3.615  -2.555 -33.589  1.00  0.00     0.169 HD
ENDBRANCH   1  18
TORSDOF 3
ENDMDL
MODEL 6
REMARK VINA RESULT:      -6.9      9.803     12.775
REMARK  3 active torsions:
REMARK  status: ('A' for Active; 'I' for Inactive)
REMARK       I    between atoms: C_2  and  N_3 
REMARK    1  A    between atoms: N_3  and  C_4 
REMARK    2  A    between atoms: C_7  and  N_8 
REMARK       I    between atoms: N_8  and  C_9 
REMARK    3  A    between atoms: C_9  and  C_10 
ROOT
HETATM    1  C   UNL     1      -6.294  -0.549 -32.352  1.00  0.00     0.034 A 
HETATM    2  C   UNL     1      -6.952   0.186 -31.361  1.00  0.00     0.032 A 
HETATM    3  C   UNL     1      -8.307   0.518 -31.490  1.00  0.00     0.032 A 
HETATM    4  C   UNL     1      -9.027   0.123 -32.616  1.00  0.00     0.035 A 
HETATM    5  C   UNL     1      -8.364  -0.598 -33.615  1.00  0.00     0.032 A 
HETATM    6  C   UNL     1      -7.010  -0.931 -33.485  1.00  0.00     0.032 A 
ENDROOT
BRANCH   4   7
HETATM    7  N   UNL     1     -10.402   0.374 -32.806  1.00  0.00    -0.323 N 
HETATM    8  C   UNL     1     -10.972   1.316 -33.644  1.00  0.00     0.257 C 
HETATM    9  O   UNL     1     -10.392   2.014 -34.467  1.00  0.00    -0.267 OA
HETATM   10  H   UNL     1     -11.026  -0.234 -32.292  1.00  0.00     0.169 HD
BRANCH   8  11
HETATM   11  C   UNL     1     -12.445   1.459 -33.529  1.00  0.00     0.050 A 
HETATM   12  C   UNL     1     -12.962   2.569 -32.868  1.00  0.00     0.135 A 
HETATM   13  N   UNL     1     -14.288   2.796 -32.692  1.00  0.00    -0.248 NA
HETATM   14  C   UNL     1     -15.127   1.861 -33.179  1.00  0.00     0.125 A 
HETATM   15 CL   UNL     1     -16.791   2.180 -32.924  1.00  0.00    -0.063 Cl
HETATM   16  C   UNL     1     -14.716   0.710 -33.835  1.00  0.00     0.045 A 
HETATM   17  C   UNL     1     -13.348   0.505 -34.010  1.00  0.00     0.022 A 
ENDBRANCH   8  11
ENDBRANCH   4   7
BRANCH   1  18
HETATM   18  N   UNL     1      -4.939  -0.867 -32.127  1.00  0.00    -0.328 N 
HETATM   19  C   UNL     1      -3.853  -0.010 -32.182  1.00  0.00     0.218 C 
HETATM   20  C   UNL     1      -2.555  -0.733 -31.921  1.00  0.00     0.117 C 
HETATM   21  O   UNL     1      -3.871   1.194 -32.407  1.00  0.00    -0.274 OA
HETATM   22  H   UNL     1      -4.740  -1.838 -31.922  1.00  0.00     0.169 HD
ENDBRANCH   1  18
TORSDOF 3
ENDMDL
MODEL 7
REMARK VINA RESULT:      -6.8      5.289     10.167
REMARK  3 active torsions:
REMARK  status: ('A' for Active; 'I' for Inactive)
REMARK       I    between atoms: C_2  and  N_3 
REMARK    1  A    between atoms: N_3  and  C_4 
REMARK    2  A    between atoms: C_7  and  N_8 
REMARK       I    between atoms: N_8  and  C_9 
REMARK    3  A    between atoms: C_9  and  C_10 
ROOT
HETATM    1  C   UNL     1      -5.496  -0.340 -33.207  1.00  0.00     0.034 A 
HETATM    2  C   UNL     1      -4.283  -0.540 -32.539  1.00  0.00     0.032 A 
HETATM    3  C   UNL     1      -3.547   0.544 -32.043  1.00  0.00     0.032 A 
HETATM    4  C   UNL     1      -4.009   1.848 -32.211  1.00  0.00     0.035 A 
HETATM    5  C   UNL     1      -5.213   2.048 -32.895  1.00  0.00     0.032 A 
HETATM    6  C   UNL     1      -5.950   0.965 -33.388  1.00  0.00     0.032 A 
ENDROOT
BRANCH   4   7
HETATM    7  N   UNL     1      -3.356   2.992 -31.705  1.00  0.00    -0.323 N 
HETATM    8  C   UNL     1      -2.583   3.895 -32.414  1.00  0.00     0.257 C 
HETATM    9  O   UNL     1      -2.432   3.938 -33.628  1.00  0.00    -0.267 OA
HETATM   10  H   UNL     1      -3.508   3.175 -30.723  1.00  0.00     0.169 HD
BRANCH   8  11
HETATM   11  C   UNL     1      -1.895   4.923 -31.592  1.00  0.00     0.050 A 
HETATM   12  C   UNL     1      -2.656   5.732 -30.755  1.00  0.00     0.135 A 
HETATM   13  N   UNL     1      -2.138   6.710 -29.971  1.00  0.00    -0.248 NA
HETATM   14  C   UNL     1      -0.806   6.898 -30.048  1.00  0.00     0.125 A 
HETATM   15 CL   UNL     1      -0.195   8.151 -29.052  1.00  0.00    -0.063 Cl
HETATM   16  C   UNL     1       0.040   6.162 -30.864  1.00  0.00     0.045 A 
HETATM   17  C   UNL     1      -0.517   5.157 -31.654  1.00  0.00     0.022 A 
ENDBRANCH   8  11
ENDBRANCH   4   7
BRANCH   1  18
HETATM   18  N   UNL     1      -6.188  -1.487 -33.645  1.00  0.00    -0.328 N 
HETATM   19  C   UNL     1      -5.708  -2.502 -34.454  1.00  0.00     0.218 C 
HETATM   20  C   UNL     1      -6.764  -3.541 -34.737  1.00  0.00     0.117 C 
HETATM   21  O   UNL     1      -4.579  -2.608 -34.918  1.00  0.00    -0.274 OA
HETATM   22  H   UNL     1      -7.153  -1.563 -33.348  1.00  0.00     0.169 HD
ENDBRANCH   1  18
TORSDOF 3
ENDMDL
MODEL 8
REMARK VINA RESULT:      -6.8     22.646     24.045
REMARK  3 active torsions:
REMARK  status: ('A' for Active; 'I' for Inactive)
REMARK       I    between atoms: C_2  and  N_3 
REMARK    1  A    between atoms: N_3  and  C_4 
REMARK    2  A    between atoms: C_7  and  N_8 
REMARK       I    between atoms: N_8  and  C_9 
REMARK    3  A    between atoms: C_9  and  C_10 
ROOT
HETATM    1  C   UNL     1      -7.849 -12.276 -39.972  1.00  0.00     0.034 A 
HETATM    2  C   UNL     1      -7.633 -12.509 -38.610  1.00  0.00     0.032 A 
HETATM    3  C   UNL     1      -6.413 -13.019 -38.150  1.00  0.00     0.032 A 
HETATM    4  C   UNL     1      -5.386 -13.311 -39.046  1.00  0.00     0.035 A 
HETATM    5  C   UNL     1      -5.608 -13.096 -40.411  1.00  0.00     0.032 A 
HETATM    6  C   UNL     1      -6.828 -12.583 -40.870  1.00  0.00     0.032 A 
ENDROOT
BRANCH   4   7
HETATM    7  N   UNL     1      -4.113 -13.785 -38.666  1.00  0.00    -0.323 N 
HETATM    8  C   UNL     1      -2.998 -13.027 -38.353  1.00  0.00     0.257 C 
HETATM    9  O   UNL     1      -2.951 -11.810 -38.222  1.00  0.00    -0.267 OA
HETATM   10  H   UNL     1      -4.033 -14.789 -38.586  1.00  0.00     0.169 HD
BRANCH   8  11
HETATM   11  C   UNL     1      -1.748 -13.797 -38.132  1.00  0.00     0.050 A 
HETATM   12  C   UNL     1      -1.689 -14.690 -37.067  1.00  0.00     0.135 A 
HETATM   13  N   UNL     1      -0.598 -15.435 -36.763  1.00  0.00    -0.248 NA
HETATM   14  C   UNL     1       0.485 -15.261 -37.546  1.00  0.00     0.125 A 
HETATM   15 CL   UNL     1       1.845 -16.211 -37.120  1.00  0.00    -0.063 Cl
HETATM   16  C   UNL     1       0.538 -14.384 -38.618  1.00  0.00     0.045 A 
HETATM   17  C   UNL     1      -0.600 -13.635 -38.915  1.00  0.00     0.022 A 
ENDBRANCH   8  11
ENDBRANCH   4   7
BRANCH   1  18
HETATM   18  N   UNL     1      -9.094 -11.731 -40.346  1.00  0.00    -0.328 N 
HETATM   19  C   UNL     1     -10.340 -12.323 -40.232  1.00  0.00     0.218 C 
HETATM   20  C   UNL     1     -11.432 -11.438 -40.779  1.00  0.00     0.117 C 
HETATM   21  O   UNL     1     -10.597 -13.422 -39.757  1.00  0.00    -0.274 OA
HETATM   22  H   UNL     1      -9.066 -10.809 -40.762  1.00  0.00     0.169 HD
ENDBRANCH   1  18
TORSDOF 3
ENDMDL
MODEL 9
REMARK VINA RESULT:      -6.5      4.022      8.594
REMARK  3 active torsions:
REMARK  status: ('A' for Active; 'I' for Inactive)
REMARK       I    between atoms: C_2  and  N_3 
REMARK    1  A    between atoms: N_3  and  C_4 
REMARK    2  A    between atoms: C_7  and  N_8 
REMARK       I    between atoms: N_8  and  C_9 
REMARK    3  A    between atoms: C_9  and  C_10 
ROOT
HETATM    1  C   UNL     1      -1.132   6.342 -31.531  1.00  0.00     0.034 A 
HETATM    2  C   UNL     1      -1.866   7.314 -30.845  1.00  0.00     0.032 A 
HETATM    3  C   UNL     1      -1.357   7.918 -29.688  1.00  0.00     0.032 A 
HETATM    4  C   UNL     1      -0.106   7.555 -29.192  1.00  0.00     0.035 A 
HETATM    5  C   UNL     1       0.620   6.569 -29.869  1.00  0.00     0.032 A 
HETATM    6  C   UNL     1       0.112   5.967 -31.027  1.00  0.00     0.032 A 
ENDROOT
BRANCH   4   7
HETATM    7  N   UNL     1       0.500   8.142 -28.062  1.00  0.00    -0.323 N 
HETATM    8  C   UNL     1       0.512   7.649 -26.769  1.00  0.00     0.257 C 
HETATM    9  O   UNL     1       0.111   6.553 -26.397  1.00  0.00    -0.267 OA
HETATM   10  H   UNL     1       1.006   8.998 -28.241  1.00  0.00     0.169 HD
BRANCH   8  11
HETATM   11  C   UNL     1       1.100   8.555 -25.750  1.00  0.00     0.050 A 
HETATM   12  C   UNL     1       0.258   9.411 -25.048  1.00  0.00     0.135 A 
HETATM   13  N   UNL     1       0.685  10.289 -24.106  1.00  0.00    -0.248 NA
HETATM   14  C   UNL     1       2.012  10.324 -23.876  1.00  0.00     0.125 A 
HETATM   15 CL   UNL     1       2.510  11.455 -22.689  1.00  0.00    -0.063 Cl
HETATM   16  C   UNL     1       2.939   9.530 -24.534  1.00  0.00     0.045 A 
HETATM   17  C   UNL     1       2.473   8.630 -25.492  1.00  0.00     0.022 A 
ENDBRANCH   8  11
ENDBRANCH   4   7
BRANCH   1  18
HETATM   18  N   UNL     1      -1.704   5.809 -32.704  1.00  0.00    -0.328 N 
HETATM   19  C   UNL     1      -1.940   6.467 -33.899  1.00  0.00     0.218 C 
HETATM   20  C   UNL     1      -2.605   5.568 -34.911  1.00  0.00     0.117 C 
HETATM   21  O   UNL     1      -1.669   7.630 -34.170  1.00  0.00    -0.274 OA
HETATM   22  H   UNL     1      -1.990   4.839 -32.657  1.00  0.00     0.169 HD
ENDBRANCH   1  18
TORSDOF 3
ENDMDL
MODEL 10
REMARK VINA RESULT:      -6.4     11.187     14.032
REMARK  3 active torsions:
REMARK  status: ('A' for Active; 'I' for Inactive)
REMARK       I    between atoms: C_2  and  N_3 
REMARK    1  A    between atoms: N_3  and  C_4 
REMARK    2  A    between atoms: C_7  and  N_8 
REMARK       I    between atoms: N_8  and  C_9 
REMARK    3  A    between atoms: C_9  and  C_10 
ROOT
HETATM    1  C   UNL     1     -13.694   3.352 -32.917  1.00  0.00     0.034 A 
HETATM    2  C   UNL     1     -13.603   2.315 -33.850  1.00  0.00     0.032 A 
HETATM    3  C   UNL     1     -12.378   1.687 -34.113  1.00  0.00     0.032 A 
HETATM    4  C   UNL     1     -11.221   2.091 -33.450  1.00  0.00     0.035 A 
HETATM    5  C   UNL     1     -11.309   3.140 -32.529  1.00  0.00     0.032 A 
HETATM    6  C   UNL     1     -12.534   3.765 -32.265  1.00  0.00     0.032 A 
ENDROOT
BRANCH   4   7
HETATM    7  N   UNL     1      -9.957   1.486 -33.620  1.00  0.00    -0.323 N 
HETATM    8  C   UNL     1      -9.553   0.249 -33.151  1.00  0.00     0.257 C 
HETATM    9  O   UNL     1     -10.256  -0.599 -32.616  1.00  0.00    -0.267 OA
HETATM   10  H   UNL     1      -9.300   2.013 -34.178  1.00  0.00     0.169 HD
BRANCH   8  11
HETATM   11  C   UNL     1      -8.116  -0.067 -33.353  1.00  0.00     0.050 A 
HETATM   12  C   UNL     1      -7.236   0.104 -32.289  1.00  0.00     0.135 A 
HETATM   13  N   UNL     1      -5.904  -0.140 -32.361  1.00  0.00    -0.248 NA
HETATM   14  C   UNL     1      -5.433  -0.551 -33.555  1.00  0.00     0.125 A 
HETATM   15 CL   UNL     1      -3.744  -0.836 -33.607  1.00  0.00    -0.063 Cl
HETATM   16  C   UNL     1      -6.219  -0.734 -34.682  1.00  0.00     0.045 A 
HETATM   17  C   UNL     1      -7.588  -0.483 -34.579  1.00  0.00     0.022 A 
ENDBRANCH   8  11
ENDBRANCH   4   7
BRANCH   1  18
HETATM   18  N   UNL     1     -14.970   3.906 -32.689  1.00  0.00    -0.328 N 
HETATM   19  C   UNL     1     -16.070   3.282 -32.127  1.00  0.00     0.218 C 
HETATM   20  C   UNL     1     -17.272   4.193 -32.087  1.00  0.00     0.117 C 
HETATM   21  O   UNL     1     -16.132   2.137 -31.694  1.00  0.00    -0.274 OA
HETATM   22  H   UNL     1     -15.097   4.863 -32.990  1.00  0.00     0.169 HD
ENDBRANCH   1  18
TORSDOF 3
ENDMDL
