MODEL 1
REMARK VINA RESULT:      -7.5      0.000      0.000
REMARK  5 active torsions:
REMARK  status: ('A' for Active; 'I' for Inactive)
REMARK    1  A    between atoms: C_3  and  N_4 
REMARK       I    between atoms: N_4  and  C_5 
REMARK       I    between atoms: C_5  and  N_6 
REMARK    2  A    between atoms: N_6  and  C_7 
REMARK    3  A    between atoms: C_7  and  C_8 
REMARK    4  A    between atoms: C_8  and  O_9 
REMARK    5  A    between atoms: O_9  and  C_10 
ROOT
HETATM    1  N   UNL     1      -5.513   3.183 -32.383  1.00  0.00    -0.307 N 
HETATM    2  C   UNL     1      -6.402   3.697 -31.488  1.00  0.00     0.320 C 
HETATM    3  N   UNL     1      -7.300   2.803 -30.985  1.00  0.00    -0.340 N 
HETATM    4  O   UNL     1      -6.424   4.846 -31.064  1.00  0.00    -0.247 OA
HETATM    5  H   UNL     1      -5.210   2.261 -32.089  1.00  0.00     0.170 HD
HETATM    6  H   UNL     1      -7.884   3.276 -30.305  1.00  0.00     0.164 HD
ENDROOT
BRANCH   3   7
HETATM    7  C   UNL     1      -7.950   1.681 -31.665  1.00  0.00     0.156 C 
BRANCH   7   8
HETATM    8  C   UNL     1      -7.239   0.310 -31.673  1.00  0.00     0.142 C 
HETATM    9  C   UNL     1      -6.415   0.167 -30.392  1.00  0.00     0.042 C 
BRANCH   8  10
HETATM   10  O   UNL     1      -6.381   0.267 -32.819  1.00  0.00    -0.343 OA
BRANCH  10  11
HETATM   11  C   UNL     1      -6.139  -0.916 -33.462  1.00  0.00     0.086 A 
HETATM   12  C   UNL     1      -4.796  -1.315 -33.559  1.00  0.00     0.044 A 
HETATM   13 BR   UNL     1      -3.395  -0.269 -32.812  1.00  0.00    -0.048 Br
HETATM   14  C   UNL     1      -4.446  -2.503 -34.206  1.00  0.00     0.022 A 
HETATM   15  C   UNL     1      -5.435  -3.303 -34.772  1.00  0.00     0.002 A 
HETATM   16  C   UNL     1      -6.770  -2.912 -34.693  1.00  0.00     0.003 A 
HETATM   17  C   UNL     1      -7.121  -1.723 -34.044  1.00  0.00     0.038 A 
ENDBRANCH  10  11
ENDBRANCH   8  10
ENDBRANCH   7   8
ENDBRANCH   3   7
BRANCH   1  18
HETATM   18  C   UNL     1      -4.590   3.908 -33.172  1.00  0.00     0.059 A 
HETATM   19  C   UNL     1      -3.249   4.164 -32.848  1.00  0.00    -0.032 A 
HETATM   20  C   UNL     1      -2.576   3.732 -31.577  1.00  0.00     0.050 C 
HETATM   21  C   UNL     1      -2.471   4.888 -33.770  1.00  0.00     0.028 A 
HETATM   22  C   UNL     1      -3.055   5.377 -34.927  1.00  0.00     0.117 A 
HETATM   23  N   UNL     1      -4.353   5.203 -35.235  1.00  0.00    -0.271 NA
HETATM   24  C   UNL     1      -5.080   4.474 -34.356  1.00  0.00     0.146 A 
ENDBRANCH   1  18
TORSDOF 5
ENDMDL
MODEL 2
REMARK VINA RESULT:      -7.3      2.118      2.917
REMARK  5 active torsions:
REMARK  status: ('A' for Active; 'I' for Inactive)
REMARK    1  A    between atoms: C_3  and  N_4 
REMARK       I    between atoms: N_4  and  C_5 
REMARK       I    between atoms: C_5  and  N_6 
REMARK    2  A    between atoms: N_6  and  C_7 
REMARK    3  A    between atoms: C_7  and  C_8 
REMARK    4  A    between atoms: C_8  and  O_9 
REMARK    5  A    between atoms: O_9  and  C_10 
ROOT
HETATM    1  N   UNL     1      -3.228   3.285 -32.458  1.00  0.00    -0.307 N 
HETATM    2  C   UNL     1      -4.154   3.130 -31.470  1.00  0.00     0.320 C 
HETATM    3  N   UNL     1      -4.698   1.884 -31.376  1.00  0.00    -0.340 N 
HETATM    4  O   UNL     1      -4.484   3.973 -30.644  1.00  0.00    -0.247 OA
HETATM    5  H   UNL     1      -2.640   2.463 -32.523  1.00  0.00     0.170 HD
HETATM    6  H   UNL     1      -5.338   1.866 -30.592  1.00  0.00     0.164 HD
ENDROOT
BRANCH   3   7
HETATM    7  C   UNL     1      -5.035   0.953 -32.455  1.00  0.00     0.156 C 
BRANCH   7   8
HETATM    8  C   UNL     1      -4.437  -0.471 -32.417  1.00  0.00     0.142 C 
HETATM    9  C   UNL     1      -3.039  -0.409 -31.797  1.00  0.00     0.042 C 
BRANCH   8  10
HETATM   10  O   UNL     1      -4.359  -0.950 -33.765  1.00  0.00    -0.343 OA
BRANCH  10  11
HETATM   11  C   UNL     1      -4.821  -2.196 -34.087  1.00  0.00     0.086 A 
HETATM   12  C   UNL     1      -6.116  -2.264 -34.627  1.00  0.00     0.044 A 
HETATM   13 BR   UNL     1      -7.156  -0.698 -34.912  1.00  0.00    -0.048 Br
HETATM   14  C   UNL     1      -6.681  -3.493 -34.979  1.00  0.00     0.022 A 
HETATM   15  C   UNL     1      -5.961  -4.669 -34.788  1.00  0.00     0.002 A 
HETATM   16  C   UNL     1      -4.681  -4.614 -34.242  1.00  0.00     0.003 A 
HETATM   17  C   UNL     1      -4.113  -3.385 -33.891  1.00  0.00     0.038 A 
ENDBRANCH  10  11
ENDBRANCH   8  10
ENDBRANCH   7   8
ENDBRANCH   3   7
BRANCH   1  18
HETATM   18  C   UNL     1      -2.634   4.497 -32.879  1.00  0.00     0.059 A 
HETATM   19  C   UNL     1      -3.088   5.322 -33.920  1.00  0.00    -0.032 A 
HETATM   20  C   UNL     1      -4.278   5.029 -34.789  1.00  0.00     0.050 C 
HETATM   21  C   UNL     1      -2.378   6.507 -34.185  1.00  0.00     0.028 A 
HETATM   22  C   UNL     1      -1.230   6.795 -33.466  1.00  0.00     0.117 A 
HETATM   23  N   UNL     1      -0.733   5.994 -32.506  1.00  0.00    -0.271 NA
HETATM   24  C   UNL     1      -1.447   4.875 -32.238  1.00  0.00     0.146 A 
ENDBRANCH   1  18
TORSDOF 5
ENDMDL
MODEL 3
REMARK VINA RESULT:      -7.2      3.012      7.549
REMARK  5 active torsions:
REMARK  status: ('A' for Active; 'I' for Inactive)
REMARK    1  A    between atoms: C_3  and  N_4 
REMARK       I    between atoms: N_4  and  C_5 
REMARK       I    between atoms: C_5  and  N_6 
REMARK    2  A    between atoms: N_6  and  C_7 
REMARK    3  A    between atoms: C_7  and  C_8 
REMARK    4  A    between atoms: C_8  and  O_9 
REMARK    5  A    between atoms: O_9  and  C_10 
ROOT
HETATM    1  N   UNL     1      -4.855  -0.221 -32.963  1.00  0.00    -0.307 N 
HETATM    2  C   UNL     1      -5.317   0.133 -31.732  1.00  0.00     0.320 C 
HETATM    3  N   UNL     1      -4.844   1.320 -31.255  1.00  0.00    -0.340 N 
HETATM    4  O   UNL     1      -6.144  -0.475 -31.062  1.00  0.00    -0.247 OA
HETATM    5  H   UNL     1      -4.804   0.590 -33.568  1.00  0.00     0.170 HD
HETATM    6  H   UNL     1      -5.277   1.507 -30.358  1.00  0.00     0.164 HD
ENDROOT
BRANCH   3   7
HETATM    7  C   UNL     1      -3.510   1.900 -31.416  1.00  0.00     0.156 C 
BRANCH   7   8
HETATM    8  C   UNL     1      -3.379   3.436 -31.523  1.00  0.00     0.142 C 
HETATM    9  C   UNL     1      -4.570   3.985 -32.312  1.00  0.00     0.042 C 
BRANCH   8  10
HETATM   10  O   UNL     1      -2.156   3.725 -32.210  1.00  0.00    -0.343 OA
BRANCH  10  11
HETATM   11  C   UNL     1      -1.394   4.802 -31.850  1.00  0.00     0.086 A 
HETATM   12  C   UNL     1      -1.216   5.799 -32.823  1.00  0.00     0.044 A 
HETATM   13 BR   UNL     1      -2.016   5.660 -34.543  1.00  0.00    -0.048 Br
HETATM   14  C   UNL     1      -0.446   6.934 -32.554  1.00  0.00     0.022 A 
HETATM   15  C   UNL     1       0.162   7.081 -31.311  1.00  0.00     0.002 A 
HETATM   16  C   UNL     1       0.003   6.093 -30.342  1.00  0.00     0.003 A 
HETATM   17  C   UNL     1      -0.769   4.958 -30.610  1.00  0.00     0.038 A 
ENDBRANCH  10  11
ENDBRANCH   8  10
ENDBRANCH   7   8
ENDBRANCH   3   7
BRANCH   1  18
HETATM   18  C   UNL     1      -5.051  -1.460 -33.617  1.00  0.00     0.059 A 
HETATM   19  C   UNL     1      -6.147  -1.805 -34.422  1.00  0.00    -0.032 A 
HETATM   20  C   UNL     1      -7.324  -0.912 -34.697  1.00  0.00     0.050 C 
HETATM   21  C   UNL     1      -6.162  -3.082 -35.012  1.00  0.00     0.028 A 
HETATM   22  C   UNL     1      -5.141  -3.977 -34.736  1.00  0.00     0.117 A 
HETATM   23  N   UNL     1      -4.110  -3.699 -33.918  1.00  0.00    -0.271 NA
HETATM   24  C   UNL     1      -4.092  -2.454 -33.387  1.00  0.00     0.146 A 
ENDBRANCH   1  18
TORSDOF 5
ENDMDL
MODEL 4
REMARK VINA RESULT:      -7.1      1.386      1.830
REMARK  5 active torsions:
REMARK  status: ('A' for Active; 'I' for Inactive)
REMARK    1  A    between atoms: C_3  and  N_4 
REMARK       I    between atoms: N_4  and  C_5 
REMARK       I    between atoms: C_5  and  N_6 
REMARK    2  A    between atoms: N_6  and  C_7 
REMARK    3  A    between atoms: C_7  and  C_8 
REMARK    4  A    between atoms: C_8  and  O_9 
REMARK    5  A    between atoms: O_9  and  C_10 
ROOT
HETATM    1  N   UNL     1      -5.952   3.334 -32.877  1.00  0.00    -0.307 N 
HETATM    2  C   UNL     1      -6.708   3.790 -31.840  1.00  0.00     0.320 C 
HETATM    3  N   UNL     1      -7.903   3.156 -31.670  1.00  0.00    -0.340 N 
HETATM    4  O   UNL     1      -6.387   4.654 -31.032  1.00  0.00    -0.247 OA
HETATM    5  H   UNL     1      -6.010   2.324 -32.939  1.00  0.00     0.170 HD
HETATM    6  H   UNL     1      -8.364   3.542 -30.855  1.00  0.00     0.164 HD
ENDROOT
BRANCH   3   7
HETATM    7  C   UNL     1      -8.814   2.640 -32.693  1.00  0.00     0.156 C 
BRANCH   7   8
HETATM    8  C   UNL     1      -8.701   1.155 -33.103  1.00  0.00     0.142 C 
HETATM    9  C   UNL     1     -10.096   0.526 -33.091  1.00  0.00     0.042 C 
BRANCH   8  10
HETATM   10  O   UNL     1      -7.856   0.500 -32.150  1.00  0.00    -0.343 OA
BRANCH  10  11
HETATM   11  C   UNL     1      -6.778  -0.233 -32.565  1.00  0.00     0.086 A 
HETATM   12  C   UNL     1      -5.676  -0.275 -31.696  1.00  0.00     0.044 A 
HETATM   13 BR   UNL     1      -5.698   0.624 -30.021  1.00  0.00    -0.048 Br
HETATM   14  C   UNL     1      -4.523  -0.989 -32.035  1.00  0.00     0.022 A 
HETATM   15  C   UNL     1      -4.456  -1.662 -33.252  1.00  0.00     0.002 A 
HETATM   16  C   UNL     1      -5.539  -1.617 -34.127  1.00  0.00     0.003 A 
HETATM   17  C   UNL     1      -6.694  -0.904 -33.788  1.00  0.00     0.038 A 
ENDBRANCH  10  11
ENDBRANCH   8  10
ENDBRANCH   7   8
ENDBRANCH   3   7
BRANCH   1  18
HETATM   18  C   UNL     1      -4.760   3.909 -33.374  1.00  0.00     0.059 A 
HETATM   19  C   UNL     1      -3.474   3.735 -32.840  1.00  0.00    -0.032 A 
HETATM   20  C   UNL     1      -3.156   2.924 -31.617  1.00  0.00     0.050 C 
HETATM   21  C   UNL     1      -2.397   4.372 -33.484  1.00  0.00     0.028 A 
HETATM   22  C   UNL     1      -2.636   5.193 -34.574  1.00  0.00     0.117 A 
HETATM   23  N   UNL     1      -3.864   5.431 -35.069  1.00  0.00    -0.271 NA
HETATM   24  C   UNL     1      -4.886   4.783 -34.461  1.00  0.00     0.146 A 
ENDBRANCH   1  18
TORSDOF 5
ENDMDL
MODEL 5
REMARK VINA RESULT:      -7.0      2.115      2.609
REMARK  5 active torsions:
REMARK  status: ('A' for Active; 'I' for Inactive)
REMARK    1  A    between atoms: C_3  and  N_4 
REMARK       I    between atoms: N_4  and  C_5 
REMARK       I    between atoms: C_5  and  N_6 
REMARK    2  A    between atoms: N_6  and  C_7 
REMARK    3  A    between atoms: C_7  and  C_8 
REMARK    4  A    between atoms: C_8  and  O_9 
REMARK    5  A    between atoms: O_9  and  C_10 
ROOT
HETATM    1  N   UNL     1      -3.554   4.311 -32.928  1.00  0.00    -0.307 N 
HETATM    2  C   UNL     1      -3.295   3.227 -32.145  1.00  0.00     0.320 C 
HETATM    3  N   UNL     1      -4.107   2.152 -32.356  1.00  0.00    -0.340 N 
HETATM    4  O   UNL     1      -2.382   3.116 -31.335  1.00  0.00    -0.247 OA
HETATM    5  H   UNL     1      -3.784   4.019 -33.870  1.00  0.00     0.170 HD
HETATM    6  H   UNL     1      -3.806   1.393 -31.757  1.00  0.00     0.164 HD
ENDROOT
BRANCH   3   7
HETATM    7  C   UNL     1      -5.535   2.138 -32.680  1.00  0.00     0.156 C 
BRANCH   7   8
HETATM    8  C   UNL     1      -6.474   1.242 -31.842  1.00  0.00     0.142 C 
HETATM    9  C   UNL     1      -6.657   1.868 -30.457  1.00  0.00     0.042 C 
BRANCH   8  10
HETATM   10  O   UNL     1      -5.860  -0.047 -31.723  1.00  0.00    -0.343 OA
BRANCH  10  11
HETATM   11  C   UNL     1      -5.862  -0.916 -32.779  1.00  0.00     0.086 A 
HETATM   12  C   UNL     1      -4.656  -1.587 -33.041  1.00  0.00     0.044 A 
HETATM   13 BR   UNL     1      -3.113  -1.312 -31.964  1.00  0.00    -0.048 Br
HETATM   14  C   UNL     1      -4.554  -2.489 -34.105  1.00  0.00     0.022 A 
HETATM   15  C   UNL     1      -5.654  -2.723 -34.924  1.00  0.00     0.002 A 
HETATM   16  C   UNL     1      -6.852  -2.054 -34.682  1.00  0.00     0.003 A 
HETATM   17  C   UNL     1      -6.955  -1.153 -33.616  1.00  0.00     0.038 A 
ENDBRANCH  10  11
ENDBRANCH   8  10
ENDBRANCH   7   8
ENDBRANCH   3   7
BRANCH   1  18
HETATM   18  C   UNL     1      -2.981   5.598 -32.808  1.00  0.00     0.059 A 
HETATM   19  C   UNL     1      -1.966   6.129 -33.619  1.00  0.00    -0.032 A 
HETATM   20  C   UNL     1      -1.291   5.392 -34.740  1.00  0.00     0.050 C 
HETATM   21  C   UNL     1      -1.533   7.443 -33.365  1.00  0.00     0.028 A 
HETATM   22  C   UNL     1      -2.066   8.147 -32.298  1.00  0.00     0.117 A 
HETATM   23  N   UNL     1      -2.994   7.644 -31.464  1.00  0.00    -0.271 NA
HETATM   24  C   UNL     1      -3.426   6.391 -31.742  1.00  0.00     0.146 A 
ENDBRANCH   1  18
TORSDOF 5
ENDMDL
MODEL 6
REMARK VINA RESULT:      -6.9      3.557      5.692
REMARK  5 active torsions:
REMARK  status: ('A' for Active; 'I' for Inactive)
REMARK    1  A    between atoms: C_3  and  N_4 
REMARK       I    between atoms: N_4  and  C_5 
REMARK       I    between atoms: C_5  and  N_6 
REMARK    2  A    between atoms: N_6  and  C_7 
REMARK    3  A    between atoms: C_7  and  C_8 
REMARK    4  A    between atoms: C_8  and  O_9 
REMARK    5  A    between atoms: O_9  and  C_10 
ROOT
HETATM    1  N   UNL     1      -9.812   3.179 -34.414  1.00  0.00    -0.307 N 
HETATM    2  C   UNL     1      -9.676   4.370 -33.767  1.00  0.00     0.320 C 
HETATM    3  N   UNL     1      -8.439   4.937 -33.850  1.00  0.00    -0.340 N 
HETATM    4  O   UNL     1     -10.561   4.987 -33.185  1.00  0.00    -0.247 OA
HETATM    5  H   UNL     1      -9.315   3.199 -35.297  1.00  0.00     0.170 HD
HETATM    6  H   UNL     1      -8.457   5.830 -33.372  1.00  0.00     0.164 HD
ENDROOT
BRANCH   3   7
HETATM    7  C   UNL     1      -7.132   4.277 -33.850  1.00  0.00     0.156 C 
BRANCH   7   8
HETATM    8  C   UNL     1      -6.835   3.225 -32.759  1.00  0.00     0.142 C 
HETATM    9  C   UNL     1      -6.259   3.930 -31.528  1.00  0.00     0.042 C 
BRANCH   8  10
HETATM   10  O   UNL     1      -5.878   2.300 -33.290  1.00  0.00    -0.343 OA
BRANCH  10  11
HETATM   11  C   UNL     1      -6.275   1.069 -33.736  1.00  0.00     0.086 A 
HETATM   12  C   UNL     1      -5.888  -0.034 -32.958  1.00  0.00     0.044 A 
HETATM   13 BR   UNL     1      -4.884   0.183 -31.358  1.00  0.00    -0.048 Br
HETATM   14  C   UNL     1      -6.237  -1.334 -33.336  1.00  0.00     0.022 A 
HETATM   15  C   UNL     1      -6.969  -1.546 -34.500  1.00  0.00     0.002 A 
HETATM   16  C   UNL     1      -7.348  -0.460 -35.286  1.00  0.00     0.003 A 
HETATM   17  C   UNL     1      -7.001   0.842 -34.908  1.00  0.00     0.038 A 
ENDBRANCH  10  11
ENDBRANCH   8  10
ENDBRANCH   7   8
ENDBRANCH   3   7
BRANCH   1  18
HETATM   18  C   UNL     1     -10.922   2.306 -34.357  1.00  0.00     0.059 A 
HETATM   19  C   UNL     1     -11.005   1.124 -33.604  1.00  0.00    -0.032 A 
HETATM   20  C   UNL     1      -9.899   0.571 -32.751  1.00  0.00     0.050 C 
HETATM   21  C   UNL     1     -12.203   0.389 -33.653  1.00  0.00     0.028 A 
HETATM   22  C   UNL     1     -13.234   0.809 -34.478  1.00  0.00     0.117 A 
HETATM   23  N   UNL     1     -13.161   1.901 -35.260  1.00  0.00    -0.271 NA
HETATM   24  C   UNL     1     -12.015   2.617 -35.176  1.00  0.00     0.146 A 
ENDBRANCH   1  18
TORSDOF 5
ENDMDL
MODEL 7
REMARK VINA RESULT:      -6.8      2.038      2.740
REMARK  5 active torsions:
REMARK  status: ('A' for Active; 'I' for Inactive)
REMARK    1  A    between atoms: C_3  and  N_4 
REMARK       I    between atoms: N_4  and  C_5 
REMARK       I    between atoms: C_5  and  N_6 
REMARK    2  A    between atoms: N_6  and  C_7 
REMARK    3  A    between atoms: C_7  and  C_8 
REMARK    4  A    between atoms: C_8  and  O_9 
REMARK    5  A    between atoms: O_9  and  C_10 
ROOT
HETATM    1  N   UNL     1      -3.892   3.715 -31.546  1.00  0.00    -0.307 N 
HETATM    2  C   UNL     1      -4.651   4.292 -30.573  1.00  0.00     0.320 C 
HETATM    3  N   UNL     1      -5.239   3.420 -29.704  1.00  0.00    -0.340 N 
HETATM    4  O   UNL     1      -4.798   5.493 -30.381  1.00  0.00    -0.247 OA
HETATM    5  H   UNL     1      -3.367   2.936 -31.168  1.00  0.00     0.170 HD
HETATM    6  H   UNL     1      -5.744   3.950 -29.003  1.00  0.00     0.164 HD
ENDROOT
BRANCH   3   7
HETATM    7  C   UNL     1      -5.796   2.095 -29.980  1.00  0.00     0.156 C 
BRANCH   7   8
HETATM    8  C   UNL     1      -6.888   1.963 -31.064  1.00  0.00     0.142 C 
HETATM    9  C   UNL     1      -8.123   2.756 -30.630  1.00  0.00     0.042 C 
BRANCH   8  10
HETATM   10  O   UNL     1      -7.213   0.573 -31.192  1.00  0.00    -0.343 OA
BRANCH  10  11
HETATM   11  C   UNL     1      -6.762  -0.151 -32.261  1.00  0.00     0.086 A 
HETATM   12  C   UNL     1      -7.682  -0.379 -33.298  1.00  0.00     0.044 A 
HETATM   13 BR   UNL     1      -9.454   0.306 -33.220  1.00  0.00    -0.048 Br
HETATM   14  C   UNL     1      -7.319  -1.116 -34.429  1.00  0.00     0.022 A 
HETATM   15  C   UNL     1      -6.034  -1.641 -34.532  1.00  0.00     0.002 A 
HETATM   16  C   UNL     1      -5.117  -1.432 -33.504  1.00  0.00     0.003 A 
HETATM   17  C   UNL     1      -5.479  -0.693 -32.373  1.00  0.00     0.038 A 
ENDBRANCH  10  11
ENDBRANCH   8  10
ENDBRANCH   7   8
ENDBRANCH   3   7
BRANCH   1  18
HETATM   18  C   UNL     1      -3.310   4.362 -32.660  1.00  0.00     0.059 A 
HETATM   19  C   UNL     1      -3.968   4.709 -33.851  1.00  0.00    -0.032 A 
HETATM   20  C   UNL     1      -5.410   4.415 -34.150  1.00  0.00     0.050 C 
HETATM   21  C   UNL     1      -3.229   5.371 -34.848  1.00  0.00     0.028 A 
HETATM   22  C   UNL     1      -1.877   5.605 -34.660  1.00  0.00     0.117 A 
HETATM   23  N   UNL     1      -1.203   5.228 -33.558  1.00  0.00    -0.271 NA
HETATM   24  C   UNL     1      -1.935   4.623 -32.593  1.00  0.00     0.146 A 
ENDBRANCH   1  18
TORSDOF 5
ENDMDL
MODEL 8
REMARK VINA RESULT:      -6.8      3.091      4.800
REMARK  5 active torsions:
REMARK  status: ('A' for Active; 'I' for Inactive)
REMARK    1  A    between atoms: C_3  and  N_4 
REMARK       I    between atoms: N_4  and  C_5 
REMARK       I    between atoms: C_5  and  N_6 
REMARK    2  A    between atoms: N_6  and  C_7 
REMARK    3  A    between atoms: C_7  and  C_8 
REMARK    4  A    between atoms: C_8  and  O_9 
REMARK    5  A    between atoms: O_9  and  C_10 
ROOT
HETATM    1  N   UNL     1      -7.910   1.207 -32.680  1.00  0.00    -0.307 N 
HETATM    2  C   UNL     1      -7.441   1.536 -31.444  1.00  0.00     0.320 C 
HETATM    3  N   UNL     1      -6.281   0.916 -31.082  1.00  0.00    -0.340 N 
HETATM    4  O   UNL     1      -7.923   2.362 -30.679  1.00  0.00    -0.247 OA
HETATM    5  H   UNL     1      -7.144   1.126 -33.339  1.00  0.00     0.170 HD
HETATM    6  H   UNL     1      -6.001   1.258 -30.170  1.00  0.00     0.164 HD
ENDROOT
BRANCH   3   7
HETATM    7  C   UNL     1      -5.847  -0.451 -31.376  1.00  0.00     0.156 C 
BRANCH   7   8
HETATM    8  C   UNL     1      -4.366  -0.694 -31.740  1.00  0.00     0.142 C 
HETATM    9  C   UNL     1      -3.569   0.585 -31.473  1.00  0.00     0.042 C 
BRANCH   8  10
HETATM   10  O   UNL     1      -4.306  -1.032 -33.131  1.00  0.00    -0.343 OA
BRANCH  10  11
HETATM   11  C   UNL     1      -4.436  -2.332 -33.537  1.00  0.00     0.086 A 
HETATM   12  C   UNL     1      -5.521  -2.621 -34.380  1.00  0.00     0.044 A 
HETATM   13 BR   UNL     1      -6.729  -1.264 -34.942  1.00  0.00    -0.048 Br
HETATM   14  C   UNL     1      -5.744  -3.922 -34.840  1.00  0.00     0.022 A 
HETATM   15  C   UNL     1      -4.889  -4.950 -34.455  1.00  0.00     0.002 A 
HETATM   16  C   UNL     1      -3.817  -4.678 -33.609  1.00  0.00     0.003 A 
HETATM   17  C   UNL     1      -3.592  -3.376 -33.149  1.00  0.00     0.038 A 
ENDBRANCH  10  11
ENDBRANCH   8  10
ENDBRANCH   7   8
ENDBRANCH   3   7
BRANCH   1  18
HETATM   18  C   UNL     1      -9.159   1.571 -33.236  1.00  0.00     0.059 A 
HETATM   19  C   UNL     1      -9.471   2.803 -33.831  1.00  0.00    -0.032 A 
HETATM   20  C   UNL     1      -8.525   3.964 -33.946  1.00  0.00     0.050 C 
HETATM   21  C   UNL     1     -10.766   2.979 -34.351  1.00  0.00     0.028 A 
HETATM   22  C   UNL     1     -11.706   1.971 -34.210  1.00  0.00     0.117 A 
HETATM   23  N   UNL     1     -11.457   0.804 -33.588  1.00  0.00    -0.271 NA
HETATM   24  C   UNL     1     -10.196   0.636 -33.124  1.00  0.00     0.146 A 
ENDBRANCH   1  18
TORSDOF 5
ENDMDL
MODEL 9
REMARK VINA RESULT:      -6.8      3.550      5.042
REMARK  5 active torsions:
REMARK  status: ('A' for Active; 'I' for Inactive)
REMARK    1  A    between atoms: C_3  and  N_4 
REMARK       I    between atoms: N_4  and  C_5 
REMARK       I    between atoms: C_5  and  N_6 
REMARK    2  A    between atoms: N_6  and  C_7 
REMARK    3  A    between atoms: C_7  and  C_8 
REMARK    4  A    between atoms: C_8  and  O_9 
REMARK    5  A    between atoms: O_9  and  C_10 
ROOT
HETATM    1  N   UNL     1      -9.604   2.098 -33.095  1.00  0.00    -0.307 N 
HETATM    2  C   UNL     1      -9.508   2.420 -31.775  1.00  0.00     0.320 C 
HETATM    3  N   UNL     1      -8.553   1.738 -31.080  1.00  0.00    -0.340 N 
HETATM    4  O   UNL     1     -10.145   3.288 -31.189  1.00  0.00    -0.247 OA
HETATM    5  H   UNL     1      -8.682   1.958 -33.492  1.00  0.00     0.170 HD
HETATM    6  H   UNL     1      -8.538   2.079 -30.126  1.00  0.00     0.164 HD
ENDROOT
BRANCH   3   7
HETATM    7  C   UNL     1      -8.139   0.342 -31.230  1.00  0.00     0.156 C 
BRANCH   7   8
HETATM    8  C   UNL     1      -6.643  -0.007 -31.068  1.00  0.00     0.142 C 
HETATM    9  C   UNL     1      -6.009   0.964 -30.069  1.00  0.00     0.042 C 
BRANCH   8  10
HETATM   10  O   UNL     1      -6.019   0.127 -32.351  1.00  0.00    -0.343 OA
BRANCH  10  11
HETATM   11  C   UNL     1      -5.888  -0.956 -33.176  1.00  0.00     0.086 A 
HETATM   12  C   UNL     1      -4.606  -1.522 -33.269  1.00  0.00     0.044 A 
HETATM   13 BR   UNL     1      -3.140  -0.827 -32.277  1.00  0.00    -0.048 Br
HETATM   14  C   UNL     1      -4.368  -2.626 -34.094  1.00  0.00     0.022 A 
HETATM   15  C   UNL     1      -5.408  -3.169 -34.842  1.00  0.00     0.002 A 
HETATM   16  C   UNL     1      -6.681  -2.608 -34.768  1.00  0.00     0.003 A 
HETATM   17  C   UNL     1      -6.920  -1.505 -33.941  1.00  0.00     0.038 A 
ENDBRANCH  10  11
ENDBRANCH   8  10
ENDBRANCH   7   8
ENDBRANCH   3   7
BRANCH   1  18
HETATM   18  C   UNL     1     -10.602   2.526 -34.000  1.00  0.00     0.059 A 
HETATM   19  C   UNL     1     -11.809   1.864 -34.272  1.00  0.00    -0.032 A 
HETATM   20  C   UNL     1     -12.227   0.558 -33.660  1.00  0.00     0.050 C 
HETATM   21  C   UNL     1     -12.696   2.453 -35.192  1.00  0.00     0.028 A 
HETATM   22  C   UNL     1     -12.334   3.620 -35.844  1.00  0.00     0.117 A 
HETATM   23  N   UNL     1     -11.157   4.244 -35.653  1.00  0.00    -0.271 NA
HETATM   24  C   UNL     1     -10.330   3.685 -34.739  1.00  0.00     0.146 A 
ENDBRANCH   1  18
TORSDOF 5
ENDMDL
MODEL 10
REMARK VINA RESULT:      -6.7      1.982      2.425
REMARK  5 active torsions:
REMARK  status: ('A' for Active; 'I' for Inactive)
REMARK    1  A    between atoms: C_3  and  N_4 
REMARK       I    between atoms: N_4  and  C_5 
REMARK       I    between atoms: C_5  and  N_6 
REMARK    2  A    between atoms: N_6  and  C_7 
REMARK    3  A    between atoms: C_7  and  C_8 
REMARK    4  A    between atoms: C_8  and  O_9 
REMARK    5  A    between atoms: O_9  and  C_10 
ROOT
HETATM    1  N   UNL     1      -3.135   3.932 -31.442  1.00  0.00    -0.307 N 
HETATM    2  C   UNL     1      -4.353   4.174 -30.881  1.00  0.00     0.320 C 
HETATM    3  N   UNL     1      -4.916   3.111 -30.238  1.00  0.00    -0.340 N 
HETATM    4  O   UNL     1      -4.940   5.249 -30.852  1.00  0.00    -0.247 OA
HETATM    5  H   UNL     1      -2.576   3.346 -30.833  1.00  0.00     0.170 HD
HETATM    6  H   UNL     1      -5.793   3.408 -29.826  1.00  0.00     0.164 HD
ENDROOT
BRANCH   3   7
HETATM    7  C   UNL     1      -4.866   1.695 -30.602  1.00  0.00     0.156 C 
BRANCH   7   8
HETATM    8  C   UNL     1      -5.937   1.140 -31.567  1.00  0.00     0.142 C 
HETATM    9  C   UNL     1      -6.465  -0.187 -31.018  1.00  0.00     0.042 C 
BRANCH   8  10
HETATM   10  O   UNL     1      -5.315   0.935 -32.841  1.00  0.00    -0.343 OA
BRANCH  10  11
HETATM   11  C   UNL     1      -5.223  -0.321 -33.375  1.00  0.00     0.086 A 
HETATM   12  C   UNL     1      -6.196  -0.671 -34.326  1.00  0.00     0.044 A 
HETATM   13 BR   UNL     1      -7.552   0.552 -34.855  1.00  0.00    -0.048 Br
HETATM   14  C   UNL     1      -6.193  -1.936 -34.922  1.00  0.00     0.022 A 
HETATM   15  C   UNL     1      -5.222  -2.868 -34.566  1.00  0.00     0.002 A 
HETATM   16  C   UNL     1      -4.260  -2.536 -33.615  1.00  0.00     0.003 A 
HETATM   17  C   UNL     1      -4.261  -1.270 -33.019  1.00  0.00     0.038 A 
ENDBRANCH  10  11
ENDBRANCH   8  10
ENDBRANCH   7   8
ENDBRANCH   3   7
BRANCH   1  18
HETATM   18  C   UNL     1      -2.410   4.795 -32.296  1.00  0.00     0.059 A 
HETATM   19  C   UNL     1      -1.601   5.868 -31.892  1.00  0.00    -0.032 A 
HETATM   20  C   UNL     1      -1.398   6.301 -30.468  1.00  0.00     0.050 C 
HETATM   21  C   UNL     1      -0.935   6.607 -32.886  1.00  0.00     0.028 A 
HETATM   22  C   UNL     1      -1.140   6.302 -34.222  1.00  0.00     0.117 A 
HETATM   23  N   UNL     1      -1.959   5.322 -34.644  1.00  0.00    -0.271 NA
HETATM   24  C   UNL     1      -2.565   4.597 -33.674  1.00  0.00     0.146 A 
ENDBRANCH   1  18
TORSDOF 5
ENDMDL
