MODEL 1
REMARK VINA RESULT:      -9.3      0.000      0.000
REMARK  9 active torsions:
REMARK  status: ('A' for Active; 'I' for Inactive)
REMARK    1  A    between atoms: O_2  and  C_3 
REMARK    2  A    between atoms: C_6  and  N_7 
REMARK       I    between atoms: N_7  and  C_8 
REMARK    3  A    between atoms: C_8  and  C_9 
REMARK    4  A    between atoms: C_9  and  N_10 
REMARK    5  A    between atoms: N_10  and  C_12 
REMARK    6  A    between atoms: N_10  and  C_24 
REMARK    7  A    between atoms: C_12  and  S_13 
REMARK    8  A    between atoms: S_13  and  C_14 
REMARK    9  A    between atoms: C_24  and  C_25 
ROOT
HETATM    1  N   UNL     1      -7.711   2.988 -33.105  1.00  0.00    -0.041 N 
HETATM    2  H   UNL     1      -6.904   2.994 -33.766  1.00  0.00     0.282 HD
ENDROOT
BRANCH   1   3
HETATM    3  C   UNL     1      -8.709   1.832 -33.665  1.00  0.00     0.208 C 
HETATM    4  C   UNL     1      -9.750   2.522 -34.587  1.00  0.00     0.049 C 
HETATM    5  C   UNL     1     -11.076   1.784 -34.824  1.00  0.00     0.003 C 
HETATM    6  C   UNL     1     -11.623   1.071 -33.597  1.00  0.00     0.000 C 
HETATM    7  C   UNL     1     -10.565   0.215 -32.916  1.00  0.00     0.003 C 
HETATM    8  C   UNL     1      -9.381   1.085 -32.494  1.00  0.00     0.049 C 
BRANCH   3   9
HETATM    9  C   UNL     1      -7.794   0.757 -34.389  1.00  0.00     0.259 C 
HETATM   10  N   UNL     1      -7.598  -0.442 -33.746  1.00  0.00    -0.325 N 
HETATM   11  H   UNL     1      -8.169  -0.669 -32.947  1.00  0.00     0.169 HD
HETATM   12  O   UNL     1      -7.277   1.074 -35.462  1.00  0.00    -0.270 OA
BRANCH  10  13
HETATM   13  C   UNL     1      -6.629  -1.430 -34.028  1.00  0.00     0.035 A 
HETATM   14  C   UNL     1      -5.265  -1.289 -33.785  1.00  0.00     0.032 A 
HETATM   15  C   UNL     1      -4.397  -2.363 -34.020  1.00  0.00     0.039 A 
HETATM   16  C   UNL     1      -4.874  -3.586 -34.492  1.00  0.00     0.068 A 
HETATM   17  C   UNL     1      -6.232  -3.721 -34.766  1.00  0.00     0.039 A 
HETATM   18  C   UNL     1      -7.103  -2.650 -34.532  1.00  0.00     0.032 A 
BRANCH  16  19
HETATM   19  O   UNL     1      -3.926  -4.558 -34.649  1.00  0.00    -0.356 OA
HETATM   20  C   UNL     1      -3.211  -4.947 -33.482  1.00  0.00     0.210 C 
ENDBRANCH  16  19
ENDBRANCH  10  13
ENDBRANCH   3   9
ENDBRANCH   1   3
BRANCH   1  21
HETATM   21  C   UNL     1      -8.312   4.370 -33.344  1.00  0.00     0.318 C 
BRANCH  21  22
HETATM   22  S   UNL     1      -7.547   5.723 -32.440  1.00  0.00    -0.064 SA
BRANCH  22  23
HETATM   23  C   UNL     1      -5.935   5.697 -33.024  1.00  0.00     0.169 A 
HETATM   24  N   UNL     1      -5.554   5.336 -34.222  1.00  0.00    -0.223 NA
HETATM   25  C   UNL     1      -4.175   5.405 -34.174  1.00  0.00     0.086 A 
HETATM   26  C   UNL     1      -3.737   5.793 -32.909  1.00  0.00     0.063 A 
HETATM   27  C   UNL     1      -3.226   5.128 -35.169  1.00  0.00     0.034 A 
HETATM   28  N   UNL     1      -4.892   5.982 -32.194  1.00  0.00    -0.333 N 
HETATM   29  C   UNL     1      -2.391   5.918 -32.565  1.00  0.00     0.032 A 
HETATM   30  H   UNL     1      -4.958   6.260 -31.226  1.00  0.00     0.168 HD
HETATM   31  C   UNL     1      -1.459   5.632 -33.569  1.00  0.00     0.002 A 
HETATM   32  C   UNL     1      -1.866   5.245 -34.847  1.00  0.00     0.002 A 
ENDBRANCH  22  23
ENDBRANCH  21  22
ENDBRANCH   1  21
BRANCH   1  33
HETATM   33  C   UNL     1      -7.149   2.842 -31.700  1.00  0.00     0.275 C 
BRANCH  33  34
HETATM   34  C   UNL     1      -5.900   2.019 -31.507  1.00  0.00    -0.033 A 
HETATM   35  C   UNL     1      -5.860   0.916 -30.643  1.00  0.00     0.009 A 
HETATM   36  C   UNL     1      -4.683   0.182 -30.480  1.00  0.00     0.001 A 
HETATM   37  C   UNL     1      -3.537   0.528 -31.191  1.00  0.00     0.000 A 
HETATM   38  C   UNL     1      -3.569   1.599 -32.079  1.00  0.00     0.001 A 
HETATM   39  C   UNL     1      -4.744   2.333 -32.245  1.00  0.00     0.009 A 
ENDBRANCH  33  34
ENDBRANCH   1  33
TORSDOF 9
ENDMDL
MODEL 2
REMARK VINA RESULT:      -9.0      1.784      3.040
REMARK  9 active torsions:
REMARK  status: ('A' for Active; 'I' for Inactive)
REMARK    1  A    between atoms: O_2  and  C_3 
REMARK    2  A    between atoms: C_6  and  N_7 
REMARK       I    between atoms: N_7  and  C_8 
REMARK    3  A    between atoms: C_8  and  C_9 
REMARK    4  A    between atoms: C_9  and  N_10 
REMARK    5  A    between atoms: N_10  and  C_12 
REMARK    6  A    between atoms: N_10  and  C_24 
REMARK    7  A    between atoms: C_12  and  S_13 
REMARK    8  A    between atoms: S_13  and  C_14 
REMARK    9  A    between atoms: C_24  and  C_25 
ROOT
HETATM    1  N   UNL     1      -6.158   3.536 -31.691  1.00  0.00    -0.041 N 
HETATM    2  H   UNL     1      -6.335   4.442 -32.177  1.00  0.00     0.282 HD
ENDROOT
BRANCH   1   3
HETATM    3  C   UNL     1      -7.304   2.525 -32.249  1.00  0.00     0.208 C 
HETATM    4  C   UNL     1      -7.772   3.066 -33.627  1.00  0.00     0.049 C 
HETATM    5  C   UNL     1      -9.158   2.626 -34.121  1.00  0.00     0.003 C 
HETATM    6  C   UNL     1     -10.214   2.545 -33.029  1.00  0.00     0.000 C 
HETATM    7  C   UNL     1      -9.724   1.765 -31.818  1.00  0.00     0.003 C 
HETATM    8  C   UNL     1      -8.470   2.424 -31.244  1.00  0.00     0.049 C 
BRANCH   3   9
HETATM    9  C   UNL     1      -6.650   1.080 -32.294  1.00  0.00     0.259 C 
HETATM   10  N   UNL     1      -6.241   0.609 -33.520  1.00  0.00    -0.325 N 
HETATM   11  H   UNL     1      -6.200   1.245 -34.300  1.00  0.00     0.169 HD
HETATM   12  O   UNL     1      -6.588   0.446 -31.238  1.00  0.00    -0.270 OA
BRANCH  10  13
HETATM   13  C   UNL     1      -5.901  -0.716 -33.870  1.00  0.00     0.035 A 
HETATM   14  C   UNL     1      -4.640  -1.279 -33.691  1.00  0.00     0.032 A 
HETATM   15  C   UNL     1      -4.429  -2.632 -33.991  1.00  0.00     0.039 A 
HETATM   16  C   UNL     1      -5.466  -3.436 -34.464  1.00  0.00     0.068 A 
HETATM   17  C   UNL     1      -6.719  -2.869 -34.672  1.00  0.00     0.039 A 
HETATM   18  C   UNL     1      -6.934  -1.518 -34.374  1.00  0.00     0.032 A 
BRANCH  16  19
HETATM   19  O   UNL     1      -5.132  -4.742 -34.686  1.00  0.00    -0.356 OA
HETATM   20  C   UNL     1      -4.058  -5.268 -33.915  1.00  0.00     0.210 C 
ENDBRANCH  16  19
ENDBRANCH  10  13
ENDBRANCH   3   9
ENDBRANCH   1   3
BRANCH   1  21
HETATM   21  C   UNL     1      -6.439   3.908 -30.238  1.00  0.00     0.318 C 
BRANCH  21  22
HETATM   22  S   UNL     1      -6.610   5.665 -29.901  1.00  0.00    -0.064 SA
BRANCH  22  23
HETATM   23  C   UNL     1      -5.080   6.285 -30.367  1.00  0.00     0.169 A 
HETATM   24  N   UNL     1      -4.841   7.052 -31.399  1.00  0.00    -0.223 NA
HETATM   25  C   UNL     1      -3.468   7.206 -31.395  1.00  0.00     0.086 A 
HETATM   26  C   UNL     1      -2.887   6.491 -30.349  1.00  0.00     0.063 A 
HETATM   27  C   UNL     1      -2.642   7.926 -32.270  1.00  0.00     0.034 A 
HETATM   28  N   UNL     1      -3.950   5.916 -29.701  1.00  0.00    -0.333 N 
HETATM   29  C   UNL     1      -1.513   6.442 -30.120  1.00  0.00     0.032 A 
HETATM   30  H   UNL     1      -3.903   5.314 -28.892  1.00  0.00     0.168 HD
HETATM   31  C   UNL     1      -0.704   7.161 -31.008  1.00  0.00     0.002 A 
HETATM   32  C   UNL     1      -1.256   7.891 -32.063  1.00  0.00     0.002 A 
ENDBRANCH  22  23
ENDBRANCH  21  22
ENDBRANCH   1  21
BRANCH   1  33
HETATM   33  C   UNL     1      -4.699   3.174 -31.919  1.00  0.00     0.275 C 
BRANCH  33  34
HETATM   34  C   UNL     1      -3.928   3.926 -32.974  1.00  0.00    -0.033 A 
HETATM   35  C   UNL     1      -4.564   4.610 -34.019  1.00  0.00     0.009 A 
HETATM   36  C   UNL     1      -3.817   5.288 -34.985  1.00  0.00     0.001 A 
HETATM   37  C   UNL     1      -2.427   5.307 -34.910  1.00  0.00     0.000 A 
HETATM   38  C   UNL     1      -1.780   4.663 -33.860  1.00  0.00     0.001 A 
HETATM   39  C   UNL     1      -2.524   3.987 -32.892  1.00  0.00     0.009 A 
ENDBRANCH  33  34
ENDBRANCH   1  33
TORSDOF 9
ENDMDL
MODEL 3
REMARK VINA RESULT:      -9.0      2.578      5.536
REMARK  9 active torsions:
REMARK  status: ('A' for Active; 'I' for Inactive)
REMARK    1  A    between atoms: O_2  and  C_3 
REMARK    2  A    between atoms: C_6  and  N_7 
REMARK       I    between atoms: N_7  and  C_8 
REMARK    3  A    between atoms: C_8  and  C_9 
REMARK    4  A    between atoms: C_9  and  N_10 
REMARK    5  A    between atoms: N_10  and  C_12 
REMARK    6  A    between atoms: N_10  and  C_24 
REMARK    7  A    between atoms: C_12  and  S_13 
REMARK    8  A    between atoms: S_13  and  C_14 
REMARK    9  A    between atoms: C_24  and  C_25 
ROOT
HETATM    1  N   UNL     1      -5.896   1.633 -32.075  1.00  0.00    -0.041 N 
HETATM    2  H   UNL     1      -5.200   1.550 -32.848  1.00  0.00     0.282 HD
ENDROOT
BRANCH   1   3
HETATM    3  C   UNL     1      -6.696   3.018 -32.373  1.00  0.00     0.208 C 
HETATM    4  C   UNL     1      -6.159   3.587 -33.714  1.00  0.00     0.049 C 
HETATM    5  C   UNL     1      -6.349   5.090 -33.967  1.00  0.00     0.003 C 
HETATM    6  C   UNL     1      -6.155   5.960 -32.735  1.00  0.00     0.000 C 
HETATM    7  C   UNL     1      -6.941   5.440 -31.540  1.00  0.00     0.003 C 
HETATM    8  C   UNL     1      -6.506   4.013 -31.210  1.00  0.00     0.049 C 
BRANCH   3   9
HETATM    9  C   UNL     1      -8.241   2.656 -32.380  1.00  0.00     0.259 C 
HETATM   10  N   UNL     1      -8.773   2.181 -33.556  1.00  0.00    -0.325 N 
HETATM   11  H   UNL     1      -8.151   1.910 -34.302  1.00  0.00     0.169 HD
HETATM   12  O   UNL     1      -8.883   2.864 -31.349  1.00  0.00    -0.270 OA
BRANCH  10  13
HETATM   13  C   UNL     1     -10.136   2.058 -33.904  1.00  0.00     0.035 A 
HETATM   14  C   UNL     1     -10.828   2.959 -34.710  1.00  0.00     0.032 A 
HETATM   15  C   UNL     1     -12.158   2.699 -35.068  1.00  0.00     0.039 A 
HETATM   16  C   UNL     1     -12.809   1.543 -34.635  1.00  0.00     0.068 A 
HETATM   17  C   UNL     1     -12.130   0.657 -33.805  1.00  0.00     0.039 A 
HETATM   18  C   UNL     1     -10.802   0.913 -33.444  1.00  0.00     0.032 A 
BRANCH  16  19
HETATM   19  O   UNL     1     -14.092   1.398 -35.081  1.00  0.00    -0.356 OA
HETATM   20  C   UNL     1     -15.009   0.762 -34.199  1.00  0.00     0.210 C 
ENDBRANCH  16  19
ENDBRANCH  10  13
ENDBRANCH   3   9
ENDBRANCH   1   3
BRANCH   1  21
HETATM   21  C   UNL     1      -4.987   1.796 -30.860  1.00  0.00     0.318 C 
BRANCH  21  22
HETATM   22  S   UNL     1      -3.222   1.788 -31.199  1.00  0.00    -0.064 SA
BRANCH  22  23
HETATM   23  C   UNL     1      -2.952   3.367 -31.811  1.00  0.00     0.169 A 
HETATM   24  N   UNL     1      -2.630   3.672 -33.042  1.00  0.00    -0.223 NA
HETATM   25  C   UNL     1      -2.442   5.041 -33.012  1.00  0.00     0.086 A 
HETATM   26  C   UNL     1      -2.634   5.545 -31.727  1.00  0.00     0.063 A 
HETATM   27  C   UNL     1      -2.082   5.921 -34.044  1.00  0.00     0.034 A 
HETATM   28  N   UNL     1      -2.970   4.446 -30.979  1.00  0.00    -0.333 N 
HETATM   29  C   UNL     1      -2.482   6.892 -31.398  1.00  0.00     0.032 A 
HETATM   30  H   UNL     1      -3.172   4.435 -29.990  1.00  0.00     0.168 HD
HETATM   31  C   UNL     1      -2.116   7.753 -32.439  1.00  0.00     0.002 A 
HETATM   32  C   UNL     1      -1.921   7.280 -33.738  1.00  0.00     0.002 A 
ENDBRANCH  22  23
ENDBRANCH  21  22
ENDBRANCH   1  21
BRANCH   1  33
HETATM   33  C   UNL     1      -6.686   0.335 -32.032  1.00  0.00     0.275 C 
BRANCH  33  34
HETATM   34  C   UNL     1      -6.301  -0.773 -32.979  1.00  0.00    -0.033 A 
HETATM   35  C   UNL     1      -7.232  -1.387 -33.829  1.00  0.00     0.009 A 
HETATM   36  C   UNL     1      -6.843  -2.417 -34.686  1.00  0.00     0.001 A 
HETATM   37  C   UNL     1      -5.516  -2.838 -34.720  1.00  0.00     0.000 A 
HETATM   38  C   UNL     1      -4.571  -2.217 -33.909  1.00  0.00     0.001 A 
HETATM   39  C   UNL     1      -4.957  -1.184 -33.053  1.00  0.00     0.009 A 
ENDBRANCH  33  34
ENDBRANCH   1  33
TORSDOF 9
ENDMDL
MODEL 4
REMARK VINA RESULT:      -8.6      3.109      6.414
REMARK  9 active torsions:
REMARK  status: ('A' for Active; 'I' for Inactive)
REMARK    1  A    between atoms: O_2  and  C_3 
REMARK    2  A    between atoms: C_6  and  N_7 
REMARK       I    between atoms: N_7  and  C_8 
REMARK    3  A    between atoms: C_8  and  C_9 
REMARK    4  A    between atoms: C_9  and  N_10 
REMARK    5  A    between atoms: N_10  and  C_12 
REMARK    6  A    between atoms: N_10  and  C_24 
REMARK    7  A    between atoms: C_12  and  S_13 
REMARK    8  A    between atoms: S_13  and  C_14 
REMARK    9  A    between atoms: C_24  and  C_25 
ROOT
HETATM    1  N   UNL     1      -5.888   0.567 -32.932  1.00  0.00    -0.041 N 
HETATM    2  H   UNL     1      -5.257   1.385 -32.786  1.00  0.00     0.282 HD
ENDROOT
BRANCH   1   3
HETATM    3  C   UNL     1      -7.395   1.167 -32.808  1.00  0.00     0.208 C 
HETATM    4  C   UNL     1      -8.226   0.172 -31.955  1.00  0.00     0.049 C 
HETATM    5  C   UNL     1      -9.753   0.217 -32.110  1.00  0.00     0.003 C 
HETATM    6  C   UNL     1     -10.230   0.450 -33.536  1.00  0.00     0.000 C 
HETATM    7  C   UNL     1      -9.517   1.624 -34.190  1.00  0.00     0.003 C 
HETATM    8  C   UNL     1      -8.009   1.377 -34.208  1.00  0.00     0.049 C 
BRANCH   3   9
HETATM    9  C   UNL     1      -7.254   2.618 -32.181  1.00  0.00     0.259 C 
HETATM   10  N   UNL     1      -7.684   2.790 -30.886  1.00  0.00    -0.325 N 
HETATM   11  H   UNL     1      -7.898   1.979 -30.328  1.00  0.00     0.169 HD
HETATM   12  O   UNL     1      -6.811   3.514 -32.903  1.00  0.00    -0.270 OA
BRANCH  10  13
HETATM   13  C   UNL     1      -7.927   4.005 -30.208  1.00  0.00     0.035 A 
HETATM   14  C   UNL     1      -9.030   4.825 -30.432  1.00  0.00     0.032 A 
HETATM   15  C   UNL     1      -9.226   5.967 -29.643  1.00  0.00     0.039 A 
HETATM   16  C   UNL     1      -8.333   6.300 -28.624  1.00  0.00     0.068 A 
HETATM   17  C   UNL     1      -7.214   5.500 -28.417  1.00  0.00     0.039 A 
HETATM   18  C   UNL     1      -7.015   4.359 -29.203  1.00  0.00     0.032 A 
BRANCH  16  19
HETATM   19  O   UNL     1      -8.658   7.420 -27.911  1.00  0.00    -0.356 OA
HETATM   20  C   UNL     1      -7.674   8.446 -27.848  1.00  0.00     0.210 C 
ENDBRANCH  16  19
ENDBRANCH  10  13
ENDBRANCH   3   9
ENDBRANCH   1   3
BRANCH   1  21
HETATM   21  C   UNL     1      -5.558  -0.293 -31.715  1.00  0.00     0.318 C 
BRANCH  21  22
HETATM   22  S   UNL     1      -4.048   0.136 -30.841  1.00  0.00    -0.064 SA
BRANCH  22  23
HETATM   23  C   UNL     1      -3.731   1.726 -31.401  1.00  0.00     0.169 A 
HETATM   24  N   UNL     1      -3.032   2.046 -32.460  1.00  0.00    -0.223 NA
HETATM   25  C   UNL     1      -2.994   3.427 -32.436  1.00  0.00     0.086 A 
HETATM   26  C   UNL     1      -3.668   3.927 -31.322  1.00  0.00     0.063 A 
HETATM   27  C   UNL     1      -2.383   4.325 -33.323  1.00  0.00     0.034 A 
HETATM   28  N   UNL     1      -4.138   2.810 -30.682  1.00  0.00    -0.333 N 
HETATM   29  C   UNL     1      -3.767   5.287 -31.029  1.00  0.00     0.032 A 
HETATM   30  H   UNL     1      -4.669   2.791 -29.823  1.00  0.00     0.168 HD
HETATM   31  C   UNL     1      -3.144   6.167 -31.922  1.00  0.00     0.002 A 
HETATM   32  C   UNL     1      -2.466   5.697 -33.049  1.00  0.00     0.002 A 
ENDBRANCH  22  23
ENDBRANCH  21  22
ENDBRANCH   1  21
BRANCH   1  33
HETATM   33  C   UNL     1      -5.478  -0.100 -34.234  1.00  0.00     0.275 C 
BRANCH  33  34
HETATM   34  C   UNL     1      -5.591  -1.600 -34.342  1.00  0.00    -0.033 A 
HETATM   35  C   UNL     1      -4.477  -2.443 -34.224  1.00  0.00     0.009 A 
HETATM   36  C   UNL     1      -4.617  -3.828 -34.339  1.00  0.00     0.001 A 
HETATM   37  C   UNL     1      -5.872  -4.390 -34.555  1.00  0.00     0.000 A 
HETATM   38  C   UNL     1      -6.994  -3.570 -34.640  1.00  0.00     0.001 A 
HETATM   39  C   UNL     1      -6.857  -2.186 -34.523  1.00  0.00     0.009 A 
ENDBRANCH  33  34
ENDBRANCH   1  33
TORSDOF 9
ENDMDL
MODEL 5
REMARK VINA RESULT:      -8.6      2.891      6.150
REMARK  9 active torsions:
REMARK  status: ('A' for Active; 'I' for Inactive)
REMARK    1  A    between atoms: O_2  and  C_3 
REMARK    2  A    between atoms: C_6  and  N_7 
REMARK       I    between atoms: N_7  and  C_8 
REMARK    3  A    between atoms: C_8  and  C_9 
REMARK    4  A    between atoms: C_9  and  N_10 
REMARK    5  A    between atoms: N_10  and  C_12 
REMARK    6  A    between atoms: N_10  and  C_24 
REMARK    7  A    between atoms: C_12  and  S_13 
REMARK    8  A    between atoms: S_13  and  C_14 
REMARK    9  A    between atoms: C_24  and  C_25 
ROOT
HETATM    1  N   UNL     1      -9.164   3.244 -32.326  1.00  0.00    -0.041 N 
HETATM    2  H   UNL     1      -8.121   3.228 -32.301  1.00  0.00     0.282 HD
ENDROOT
BRANCH   1   3
HETATM    3  C   UNL     1      -9.546   4.597 -33.144  1.00  0.00     0.208 C 
HETATM    4  C   UNL     1     -10.733   5.271 -32.404  1.00  0.00     0.049 C 
HETATM    5  C   UNL     1     -11.607   6.241 -33.212  1.00  0.00     0.003 C 
HETATM    6  C   UNL     1     -11.862   5.806 -34.647  1.00  0.00     0.000 C 
HETATM    7  C   UNL     1     -10.578   5.407 -35.359  1.00  0.00     0.003 C 
HETATM    8  C   UNL     1      -9.898   4.262 -34.608  1.00  0.00     0.049 C 
BRANCH   3   9
HETATM    9  C   UNL     1      -8.226   5.474 -33.212  1.00  0.00     0.259 C 
HETATM   10  N   UNL     1      -7.093   4.874 -33.710  1.00  0.00    -0.325 N 
HETATM   11  H   UNL     1      -7.174   3.983 -34.174  1.00  0.00     0.169 HD
HETATM   12  O   UNL     1      -8.280   6.625 -32.773  1.00  0.00    -0.270 OA
BRANCH  10  13
HETATM   13  C   UNL     1      -5.759   5.327 -33.616  1.00  0.00     0.035 A 
HETATM   14  C   UNL     1      -5.280   6.164 -32.611  1.00  0.00     0.032 A 
HETATM   15  C   UNL     1      -3.917   6.484 -32.558  1.00  0.00     0.039 A 
HETATM   16  C   UNL     1      -3.019   5.975 -33.497  1.00  0.00     0.068 A 
HETATM   17  C   UNL     1      -3.500   5.164 -34.520  1.00  0.00     0.039 A 
HETATM   18  C   UNL     1      -4.861   4.841 -34.577  1.00  0.00     0.032 A 
BRANCH  16  19
HETATM   19  O   UNL     1      -1.716   6.342 -33.312  1.00  0.00    -0.356 OA
HETATM   20  C   UNL     1      -1.478   7.696 -32.948  1.00  0.00     0.210 C 
ENDBRANCH  16  19
ENDBRANCH  10  13
ENDBRANCH   3   9
ENDBRANCH   1   3
BRANCH   1  21
HETATM   21  C   UNL     1      -9.502   3.405 -30.847  1.00  0.00     0.318 C 
BRANCH  21  22
HETATM   22  S   UNL     1      -8.101   3.641 -29.746  1.00  0.00    -0.064 SA
BRANCH  22  23
HETATM   23  C   UNL     1      -6.902   2.635 -30.447  1.00  0.00     0.169 A 
HETATM   24  N   UNL     1      -5.986   3.009 -31.304  1.00  0.00    -0.223 NA
HETATM   25  C   UNL     1      -5.330   1.837 -31.629  1.00  0.00     0.086 A 
HETATM   26  C   UNL     1      -5.892   0.747 -30.966  1.00  0.00     0.063 A 
HETATM   27  C   UNL     1      -4.255   1.623 -32.505  1.00  0.00     0.034 A 
HETATM   28  N   UNL     1      -6.894   1.293 -30.207  1.00  0.00    -0.333 N 
HETATM   29  C   UNL     1      -5.447  -0.564 -31.127  1.00  0.00     0.032 A 
HETATM   30  H   UNL     1      -7.525   0.792 -29.598  1.00  0.00     0.168 HD
HETATM   31  C   UNL     1      -4.378  -0.759 -32.010  1.00  0.00     0.002 A 
HETATM   32  C   UNL     1      -3.791   0.312 -32.686  1.00  0.00     0.002 A 
ENDBRANCH  22  23
ENDBRANCH  21  22
ENDBRANCH   1  21
BRANCH   1  33
HETATM   33  C   UNL     1      -9.628   1.907 -32.879  1.00  0.00     0.275 C 
BRANCH  33  34
HETATM   34  C   UNL     1      -8.617   1.023 -33.565  1.00  0.00    -0.033 A 
HETATM   35  C   UNL     1      -7.688   1.526 -34.487  1.00  0.00     0.009 A 
HETATM   36  C   UNL     1      -6.773   0.676 -35.112  1.00  0.00     0.001 A 
HETATM   37  C   UNL     1      -6.760  -0.683 -34.811  1.00  0.00     0.000 A 
HETATM   38  C   UNL     1      -7.652  -1.194 -33.872  1.00  0.00     0.001 A 
HETATM   39  C   UNL     1      -8.566  -0.347 -33.245  1.00  0.00     0.009 A 
ENDBRANCH  33  34
ENDBRANCH   1  33
TORSDOF 9
ENDMDL
MODEL 6
REMARK VINA RESULT:      -8.5      2.501      6.878
REMARK  9 active torsions:
REMARK  status: ('A' for Active; 'I' for Inactive)
REMARK    1  A    between atoms: O_2  and  C_3 
REMARK    2  A    between atoms: C_6  and  N_7 
REMARK       I    between atoms: N_7  and  C_8 
REMARK    3  A    between atoms: C_8  and  C_9 
REMARK    4  A    between atoms: C_9  and  N_10 
REMARK    5  A    between atoms: N_10  and  C_12 
REMARK    6  A    between atoms: N_10  and  C_24 
REMARK    7  A    between atoms: C_12  and  S_13 
REMARK    8  A    between atoms: S_13  and  C_14 
REMARK    9  A    between atoms: C_24  and  C_25 
ROOT
HETATM    1  N   UNL     1      -4.015   2.780 -31.534  1.00  0.00    -0.041 N 
HETATM    2  H   UNL     1      -4.242   2.312 -30.630  1.00  0.00     0.282 HD
ENDROOT
BRANCH   1   3
HETATM    3  C   UNL     1      -5.374   3.569 -31.955  1.00  0.00     0.208 C 
HETATM    4  C   UNL     1      -5.162   4.132 -33.386  1.00  0.00     0.049 C 
HETATM    5  C   UNL     1      -6.041   5.317 -33.813  1.00  0.00     0.003 C 
HETATM    6  C   UNL     1      -6.291   6.338 -32.714  1.00  0.00     0.000 C 
HETATM    7  C   UNL     1      -6.744   5.681 -31.418  1.00  0.00     0.003 C 
HETATM    8  C   UNL     1      -5.686   4.687 -30.938  1.00  0.00     0.049 C 
BRANCH   3   9
HETATM    9  C   UNL     1      -6.562   2.527 -31.824  1.00  0.00     0.259 C 
HETATM   10  N   UNL     1      -7.201   2.148 -32.982  1.00  0.00    -0.325 N 
HETATM   11  H   UNL     1      -6.793   2.392 -33.869  1.00  0.00     0.169 HD
HETATM   12  O   UNL     1      -6.874   2.152 -30.692  1.00  0.00    -0.270 OA
BRANCH  10  13
HETATM   13  C   UNL     1      -8.436   1.475 -33.110  1.00  0.00     0.035 A 
HETATM   14  C   UNL     1      -8.716   0.229 -32.553  1.00  0.00     0.032 A 
HETATM   15  C   UNL     1     -10.003  -0.313 -32.665  1.00  0.00     0.039 A 
HETATM   16  C   UNL     1     -11.022   0.376 -33.323  1.00  0.00     0.068 A 
HETATM   17  C   UNL     1     -10.737   1.606 -33.907  1.00  0.00     0.039 A 
HETATM   18  C   UNL     1      -9.453   2.152 -33.798  1.00  0.00     0.032 A 
BRANCH  16  19
HETATM   19  O   UNL     1     -12.236  -0.253 -33.332  1.00  0.00    -0.356 OA
HETATM   20  C   UNL     1     -13.317   0.453 -33.931  1.00  0.00     0.210 C 
ENDBRANCH  16  19
ENDBRANCH  10  13
ENDBRANCH   3   9
ENDBRANCH   1   3
BRANCH   1  21
HETATM   21  C   UNL     1      -3.793   1.581 -32.451  1.00  0.00     0.318 C 
BRANCH  21  22
HETATM   22  S   UNL     1      -3.219   0.079 -31.648  1.00  0.00    -0.064 SA
BRANCH  22  23
HETATM   23  C   UNL     1      -4.031  -1.149 -32.528  1.00  0.00     0.169 A 
HETATM   24  N   UNL     1      -3.551  -2.328 -32.828  1.00  0.00    -0.223 NA
HETATM   25  C   UNL     1      -4.537  -2.906 -33.605  1.00  0.00     0.086 A 
HETATM   26  C   UNL     1      -5.609  -2.034 -33.784  1.00  0.00     0.063 A 
HETATM   27  C   UNL     1      -4.576  -4.169 -34.214  1.00  0.00     0.034 A 
HETATM   28  N   UNL     1      -5.259  -0.916 -33.072  1.00  0.00    -0.333 N 
HETATM   29  C   UNL     1      -6.734  -2.343 -34.548  1.00  0.00     0.032 A 
HETATM   30  H   UNL     1      -5.800  -0.068 -32.984  1.00  0.00     0.168 HD
HETATM   31  C   UNL     1      -6.752  -3.605 -35.154  1.00  0.00     0.002 A 
HETATM   32  C   UNL     1      -5.696  -4.503 -34.990  1.00  0.00     0.002 A 
ENDBRANCH  22  23
ENDBRANCH  21  22
ENDBRANCH   1  21
BRANCH   1  33
HETATM   33  C   UNL     1      -2.744   3.586 -31.324  1.00  0.00     0.275 C 
BRANCH  33  34
HETATM   34  C   UNL     1      -2.437   4.708 -32.283  1.00  0.00    -0.033 A 
HETATM   35  C   UNL     1      -2.534   6.056 -31.912  1.00  0.00     0.009 A 
HETATM   36  C   UNL     1      -2.252   7.070 -32.830  1.00  0.00     0.001 A 
HETATM   37  C   UNL     1      -1.851   6.752 -34.124  1.00  0.00     0.000 A 
HETATM   38  C   UNL     1      -1.714   5.418 -34.500  1.00  0.00     0.001 A 
HETATM   39  C   UNL     1      -1.993   4.403 -33.584  1.00  0.00     0.009 A 
ENDBRANCH  33  34
ENDBRANCH   1  33
TORSDOF 9
ENDMDL
MODEL 7
REMARK VINA RESULT:      -8.4      2.063      6.050
REMARK  9 active torsions:
REMARK  status: ('A' for Active; 'I' for Inactive)
REMARK    1  A    between atoms: O_2  and  C_3 
REMARK    2  A    between atoms: C_6  and  N_7 
REMARK       I    between atoms: N_7  and  C_8 
REMARK    3  A    between atoms: C_8  and  C_9 
REMARK    4  A    between atoms: C_9  and  N_10 
REMARK    5  A    between atoms: N_10  and  C_12 
REMARK    6  A    between atoms: N_10  and  C_24 
REMARK    7  A    between atoms: C_12  and  S_13 
REMARK    8  A    between atoms: S_13  and  C_14 
REMARK    9  A    between atoms: C_24  and  C_25 
ROOT
HETATM    1  N   UNL     1      -5.666   5.258 -31.582  1.00  0.00    -0.041 N 
HETATM    2  H   UNL     1      -6.665   5.117 -31.848  1.00  0.00     0.282 HD
ENDROOT
BRANCH   1   3
HETATM    3  C   UNL     1      -4.808   4.606 -32.801  1.00  0.00     0.208 C 
HETATM    4  C   UNL     1      -3.404   4.247 -32.243  1.00  0.00     0.049 C 
HETATM    5  C   UNL     1      -2.259   4.109 -33.257  1.00  0.00     0.003 C 
HETATM    6  C   UNL     1      -2.300   5.124 -34.389  1.00  0.00     0.000 C 
HETATM    7  C   UNL     1      -3.677   5.204 -35.033  1.00  0.00     0.003 C 
HETATM    8  C   UNL     1      -4.722   5.589 -33.987  1.00  0.00     0.049 C 
BRANCH   3   9
HETATM    9  C   UNL     1      -5.644   3.367 -33.332  1.00  0.00     0.259 C 
HETATM   10  N   UNL     1      -5.272   2.118 -32.891  1.00  0.00    -0.325 N 
HETATM   11  H   UNL     1      -4.620   2.042 -32.128  1.00  0.00     0.169 HD
HETATM   12  O   UNL     1      -6.548   3.589 -34.140  1.00  0.00    -0.270 OA
BRANCH  10  13
HETATM   13  C   UNL     1      -5.655   0.864 -33.416  1.00  0.00     0.035 A 
HETATM   14  C   UNL     1      -5.238  -0.364 -32.908  1.00  0.00     0.032 A 
HETATM   15  C   UNL     1      -5.746  -1.553 -33.446  1.00  0.00     0.039 A 
HETATM   16  C   UNL     1      -6.675  -1.534 -34.487  1.00  0.00     0.068 A 
HETATM   17  C   UNL     1      -7.071  -0.311 -35.017  1.00  0.00     0.039 A 
HETATM   18  C   UNL     1      -6.565   0.880 -34.482  1.00  0.00     0.032 A 
BRANCH  16  19
HETATM   19  O   UNL     1      -7.112  -2.763 -34.897  1.00  0.00    -0.356 OA
HETATM   20  C   UNL     1      -6.168  -3.827 -34.848  1.00  0.00     0.210 C 
ENDBRANCH  16  19
ENDBRANCH  10  13
ENDBRANCH   3   9
ENDBRANCH   1   3
BRANCH   1  21
HETATM   21  C   UNL     1      -5.557   4.388 -30.332  1.00  0.00     0.318 C 
BRANCH  21  22
HETATM   22  S   UNL     1      -7.101   4.060 -29.472  1.00  0.00    -0.064 SA
BRANCH  22  23
HETATM   23  C   UNL     1      -8.002   3.187 -30.642  1.00  0.00     0.169 A 
HETATM   24  N   UNL     1      -8.786   3.702 -31.554  1.00  0.00    -0.223 NA
HETATM   25  C   UNL     1      -9.340   2.604 -32.183  1.00  0.00     0.086 A 
HETATM   26  C   UNL     1      -8.888   1.417 -31.609  1.00  0.00     0.063 A 
HETATM   27  C   UNL     1     -10.258   2.543 -33.242  1.00  0.00     0.034 A 
HETATM   28  N   UNL     1      -8.023   1.824 -30.627  1.00  0.00    -0.333 N 
HETATM   29  C   UNL     1      -9.305   0.153 -32.025  1.00  0.00     0.032 A 
HETATM   30  H   UNL     1      -7.511   1.226 -29.994  1.00  0.00     0.168 HD
HETATM   31  C   UNL     1     -10.226   0.112 -33.078  1.00  0.00     0.002 A 
HETATM   32  C   UNL     1     -10.694   1.283 -33.678  1.00  0.00     0.002 A 
ENDBRANCH  22  23
ENDBRANCH  21  22
ENDBRANCH   1  21
BRANCH   1  33
HETATM   33  C   UNL     1      -5.480   6.734 -31.272  1.00  0.00     0.275 C 
BRANCH  33  34
HETATM   34  C   UNL     1      -4.114   7.214 -30.850  1.00  0.00    -0.033 A 
HETATM   35  C   UNL     1      -3.593   6.954 -29.575  1.00  0.00     0.009 A 
HETATM   36  C   UNL     1      -2.328   7.423 -29.214  1.00  0.00     0.001 A 
HETATM   37  C   UNL     1      -1.560   8.141 -30.127  1.00  0.00     0.000 A 
HETATM   38  C   UNL     1      -2.047   8.378 -31.409  1.00  0.00     0.001 A 
HETATM   39  C   UNL     1      -3.310   7.909 -31.773  1.00  0.00     0.009 A 
ENDBRANCH  33  34
ENDBRANCH   1  33
TORSDOF 9
ENDMDL
MODEL 8
REMARK VINA RESULT:      -8.4      2.422      4.258
REMARK  9 active torsions:
REMARK  status: ('A' for Active; 'I' for Inactive)
REMARK    1  A    between atoms: O_2  and  C_3 
REMARK    2  A    between atoms: C_6  and  N_7 
REMARK       I    between atoms: N_7  and  C_8 
REMARK    3  A    between atoms: C_8  and  C_9 
REMARK    4  A    between atoms: C_9  and  N_10 
REMARK    5  A    between atoms: N_10  and  C_12 
REMARK    6  A    between atoms: N_10  and  C_24 
REMARK    7  A    between atoms: C_12  and  S_13 
REMARK    8  A    between atoms: S_13  and  C_14 
REMARK    9  A    between atoms: C_24  and  C_25 
ROOT
HETATM    1  N   UNL     1      -5.286   5.193 -32.663  1.00  0.00    -0.041 N 
HETATM    2  H   UNL     1      -4.287   4.952 -32.483  1.00  0.00     0.282 HD
ENDROOT
BRANCH   1   3
HETATM    3  C   UNL     1      -6.136   3.931 -32.087  1.00  0.00     0.208 C 
HETATM    4  C   UNL     1      -7.610   4.117 -32.537  1.00  0.00     0.049 C 
HETATM    5  C   UNL     1      -8.690   3.384 -31.728  1.00  0.00     0.003 C 
HETATM    6  C   UNL     1      -8.437   3.356 -30.228  1.00  0.00     0.000 C 
HETATM    7  C   UNL     1      -7.020   2.908 -29.898  1.00  0.00     0.003 C 
HETATM    8  C   UNL     1      -6.009   3.849 -30.552  1.00  0.00     0.049 C 
BRANCH   3   9
HETATM    9  C   UNL     1      -5.435   2.622 -32.645  1.00  0.00     0.259 C 
HETATM   10  N   UNL     1      -6.225   1.723 -33.325  1.00  0.00    -0.325 N 
HETATM   11  H   UNL     1      -7.154   1.998 -33.601  1.00  0.00     0.169 HD
HETATM   12  O   UNL     1      -4.238   2.463 -32.400  1.00  0.00    -0.270 OA
BRANCH  10  13
HETATM   13  C   UNL     1      -5.922   0.387 -33.666  1.00  0.00     0.035 A 
HETATM   14  C   UNL     1      -4.848  -0.334 -33.149  1.00  0.00     0.032 A 
HETATM   15  C   UNL     1      -4.685  -1.685 -33.485  1.00  0.00     0.039 A 
HETATM   16  C   UNL     1      -5.589  -2.332 -34.329  1.00  0.00     0.068 A 
HETATM   17  C   UNL     1      -6.645  -1.607 -34.871  1.00  0.00     0.039 A 
HETATM   18  C   UNL     1      -6.811  -0.257 -34.538  1.00  0.00     0.032 A 
BRANCH  16  19
HETATM   19  O   UNL     1      -5.330  -3.656 -34.549  1.00  0.00    -0.356 OA
HETATM   20  C   UNL     1      -6.319  -4.391 -35.261  1.00  0.00     0.210 C 
ENDBRANCH  16  19
ENDBRANCH  10  13
ENDBRANCH   3   9
ENDBRANCH   1   3
BRANCH   1  21
HETATM   21  C   UNL     1      -5.328   5.210 -34.188  1.00  0.00     0.318 C 
BRANCH  21  22
HETATM   22  S   UNL     1      -3.745   5.002 -35.015  1.00  0.00    -0.064 SA
BRANCH  22  23
HETATM   23  C   UNL     1      -2.624   5.424 -33.787  1.00  0.00     0.169 A 
HETATM   24  N   UNL     1      -1.974   6.556 -33.693  1.00  0.00    -0.223 NA
HETATM   25  C   UNL     1      -1.144   6.378 -32.603  1.00  0.00     0.086 A 
HETATM   26  C   UNL     1      -1.295   5.103 -32.061  1.00  0.00     0.063 A 
HETATM   27  C   UNL     1      -0.215   7.258 -32.028  1.00  0.00     0.034 A 
HETATM   28  N   UNL     1      -2.259   4.517 -32.839  1.00  0.00    -0.333 N 
HETATM   29  C   UNL     1      -0.561   4.639 -30.969  1.00  0.00     0.032 A 
HETATM   30  H   UNL     1      -2.619   3.578 -32.740  1.00  0.00     0.168 HD
HETATM   31  C   UNL     1       0.366   5.529 -30.414  1.00  0.00     0.002 A 
HETATM   32  C   UNL     1       0.537   6.815 -30.931  1.00  0.00     0.002 A 
ENDBRANCH  22  23
ENDBRANCH  21  22
ENDBRANCH   1  21
BRANCH   1  33
HETATM   33  C   UNL     1      -5.538   6.568 -32.066  1.00  0.00     0.275 C 
BRANCH  33  34
HETATM   34  C   UNL     1      -4.500   7.151 -31.140  1.00  0.00    -0.033 A 
HETATM   35  C   UNL     1      -3.929   6.410 -30.097  1.00  0.00     0.009 A 
HETATM   36  C   UNL     1      -2.978   6.985 -29.252  1.00  0.00     0.001 A 
HETATM   37  C   UNL     1      -2.572   8.302 -29.448  1.00  0.00     0.000 A 
HETATM   38  C   UNL     1      -3.102   9.042 -30.500  1.00  0.00     0.001 A 
HETATM   39  C   UNL     1      -4.051   8.469 -31.348  1.00  0.00     0.009 A 
ENDBRANCH  33  34
ENDBRANCH   1  33
TORSDOF 9
ENDMDL
MODEL 9
REMARK VINA RESULT:      -8.4      2.984      6.044
REMARK  9 active torsions:
REMARK  status: ('A' for Active; 'I' for Inactive)
REMARK    1  A    between atoms: O_2  and  C_3 
REMARK    2  A    between atoms: C_6  and  N_7 
REMARK       I    between atoms: N_7  and  C_8 
REMARK    3  A    between atoms: C_8  and  C_9 
REMARK    4  A    between atoms: C_9  and  N_10 
REMARK    5  A    between atoms: N_10  and  C_12 
REMARK    6  A    between atoms: N_10  and  C_24 
REMARK    7  A    between atoms: C_12  and  S_13 
REMARK    8  A    between atoms: S_13  and  C_14 
REMARK    9  A    between atoms: C_24  and  C_25 
ROOT
HETATM    1  N   UNL     1      -5.792   3.604 -33.124  1.00  0.00    -0.041 N 
HETATM    2  H   UNL     1      -6.042   3.471 -34.128  1.00  0.00     0.282 HD
ENDROOT
BRANCH   1   3
HETATM    3  C   UNL     1      -6.796   4.766 -32.588  1.00  0.00     0.208 C 
HETATM    4  C   UNL     1      -6.086   6.130 -32.799  1.00  0.00     0.049 C 
HETATM    5  C   UNL     1      -6.560   7.310 -31.938  1.00  0.00     0.003 C 
HETATM    6  C   UNL     1      -6.903   6.939 -30.504  1.00  0.00     0.000 C 
HETATM    7  C   UNL     1      -7.821   5.727 -30.432  1.00  0.00     0.003 C 
HETATM    8  C   UNL     1      -7.156   4.528 -31.107  1.00  0.00     0.049 C 
BRANCH   3   9
HETATM    9  C   UNL     1      -8.154   4.596 -33.391  1.00  0.00     0.259 C 
HETATM   10  N   UNL     1      -9.104   3.758 -32.856  1.00  0.00    -0.325 N 
HETATM   11  H   UNL     1      -8.991   3.429 -31.910  1.00  0.00     0.169 HD
HETATM   12  O   UNL     1      -8.262   5.188 -34.467  1.00  0.00    -0.270 OA
BRANCH  10  13
HETATM   13  C   UNL     1     -10.247   3.225 -33.491  1.00  0.00     0.035 A 
HETATM   14  C   UNL     1     -10.292   1.985 -34.124  1.00  0.00     0.032 A 
HETATM   15  C   UNL     1     -11.501   1.510 -34.648  1.00  0.00     0.039 A 
HETATM   16  C   UNL     1     -12.675   2.257 -34.544  1.00  0.00     0.068 A 
HETATM   17  C   UNL     1     -12.628   3.509 -33.940  1.00  0.00     0.039 A 
HETATM   18  C   UNL     1     -11.422   3.988 -33.415  1.00  0.00     0.032 A 
BRANCH  16  19
HETATM   19  O   UNL     1     -13.789   1.664 -35.070  1.00  0.00    -0.356 OA
HETATM   20  C   UNL     1     -14.456   0.714 -34.247  1.00  0.00     0.210 C 
ENDBRANCH  16  19
ENDBRANCH  10  13
ENDBRANCH   3   9
ENDBRANCH   1   3
BRANCH   1  21
HETATM   21  C   UNL     1      -4.368   4.141 -33.232  1.00  0.00     0.318 C 
BRANCH  21  22
HETATM   22  S   UNL     1      -3.123   3.248 -32.292  1.00  0.00    -0.064 SA
BRANCH  22  23
HETATM   23  C   UNL     1      -2.248   4.514 -31.534  1.00  0.00     0.169 A 
HETATM   24  N   UNL     1      -0.947   4.594 -31.424  1.00  0.00    -0.223 NA
HETATM   25  C   UNL     1      -0.741   5.733 -30.670  1.00  0.00     0.086 A 
HETATM   26  C   UNL     1      -1.952   6.320 -30.308  1.00  0.00     0.063 A 
HETATM   27  C   UNL     1       0.457   6.317 -30.234  1.00  0.00     0.034 A 
HETATM   28  N   UNL     1      -2.902   5.518 -30.886  1.00  0.00    -0.333 N 
HETATM   29  C   UNL     1      -2.047   7.467 -29.522  1.00  0.00     0.032 A 
HETATM   30  H   UNL     1      -3.903   5.637 -30.825  1.00  0.00     0.168 HD
HETATM   31  C   UNL     1      -0.841   8.032 -29.090  1.00  0.00     0.002 A 
HETATM   32  C   UNL     1       0.389   7.471 -29.439  1.00  0.00     0.002 A 
ENDBRANCH  22  23
ENDBRANCH  21  22
ENDBRANCH   1  21
BRANCH   1  33
HETATM   33  C   UNL     1      -5.842   2.238 -32.458  1.00  0.00     0.275 C 
BRANCH  33  34
HETATM   34  C   UNL     1      -6.256   1.049 -33.286  1.00  0.00    -0.033 A 
HETATM   35  C   UNL     1      -6.139  -0.267 -32.815  1.00  0.00     0.009 A 
HETATM   36  C   UNL     1      -6.524  -1.346 -33.613  1.00  0.00     0.001 A 
HETATM   37  C   UNL     1      -7.047  -1.126 -34.884  1.00  0.00     0.000 A 
HETATM   38  C   UNL     1      -7.204   0.174 -35.354  1.00  0.00     0.001 A 
HETATM   39  C   UNL     1      -6.822   1.255 -34.558  1.00  0.00     0.009 A 
ENDBRANCH  33  34
ENDBRANCH   1  33
TORSDOF 9
ENDMDL
MODEL 10
REMARK VINA RESULT:      -8.3      2.576      6.045
REMARK  9 active torsions:
REMARK  status: ('A' for Active; 'I' for Inactive)
REMARK    1  A    between atoms: O_2  and  C_3 
REMARK    2  A    between atoms: C_6  and  N_7 
REMARK       I    between atoms: N_7  and  C_8 
REMARK    3  A    between atoms: C_8  and  C_9 
REMARK    4  A    between atoms: C_9  and  N_10 
REMARK    5  A    between atoms: N_10  and  C_12 
REMARK    6  A    between atoms: N_10  and  C_24 
REMARK    7  A    between atoms: C_12  and  S_13 
REMARK    8  A    between atoms: S_13  and  C_14 
REMARK    9  A    between atoms: C_24  and  C_25 
ROOT
HETATM    1  N   UNL     1      -8.364   2.236 -31.747  1.00  0.00    -0.041 N 
HETATM    2  H   UNL     1      -8.885   2.440 -32.628  1.00  0.00     0.282 HD
ENDROOT
BRANCH   1   3
HETATM    3  C   UNL     1      -6.811   2.583 -32.085  1.00  0.00     0.208 C 
HETATM    4  C   UNL     1      -6.258   3.435 -30.911  1.00  0.00     0.049 C 
HETATM    5  C   UNL     1      -5.029   4.311 -31.196  1.00  0.00     0.003 C 
HETATM    6  C   UNL     1      -5.034   4.969 -32.567  1.00  0.00     0.000 C 
HETATM    7  C   UNL     1      -5.342   3.973 -33.676  1.00  0.00     0.003 C 
HETATM    8  C   UNL     1      -6.704   3.325 -33.433  1.00  0.00     0.049 C 
BRANCH   3   9
HETATM    9  C   UNL     1      -6.073   1.195 -32.300  1.00  0.00     0.259 C 
HETATM   10  N   UNL     1      -6.152   0.625 -33.550  1.00  0.00    -0.325 N 
HETATM   11  H   UNL     1      -6.507   1.173 -34.317  1.00  0.00     0.169 HD
HETATM   12  O   UNL     1      -5.512   0.688 -31.328  1.00  0.00    -0.270 OA
BRANCH  10  13
HETATM   13  C   UNL     1      -5.836  -0.701 -33.919  1.00  0.00     0.035 A 
HETATM   14  C   UNL     1      -4.574  -1.275 -33.794  1.00  0.00     0.032 A 
HETATM   15  C   UNL     1      -4.385  -2.627 -34.107  1.00  0.00     0.039 A 
HETATM   16  C   UNL     1      -5.447  -3.422 -34.540  1.00  0.00     0.068 A 
HETATM   17  C   UNL     1      -6.703  -2.845 -34.695  1.00  0.00     0.039 A 
HETATM   18  C   UNL     1      -6.896  -1.493 -34.383  1.00  0.00     0.032 A 
BRANCH  16  19
HETATM   19  O   UNL     1      -5.132  -4.730 -34.781  1.00  0.00    -0.356 OA
HETATM   20  C   UNL     1      -4.193  -5.335 -33.900  1.00  0.00     0.210 C 
ENDBRANCH  16  19
ENDBRANCH  10  13
ENDBRANCH   3   9
ENDBRANCH   1   3
BRANCH   1  21
HETATM   21  C   UNL     1      -8.555   0.727 -31.622  1.00  0.00     0.318 C 
BRANCH  21  22
HETATM   22  S   UNL     1      -9.769  -0.001 -32.730  1.00  0.00    -0.064 SA
BRANCH  22  23
HETATM   23  C   UNL     1     -10.467   1.376 -33.477  1.00  0.00     0.169 A 
HETATM   24  N   UNL     1      -9.855   2.214 -34.274  1.00  0.00    -0.223 NA
HETATM   25  C   UNL     1     -10.804   3.184 -34.537  1.00  0.00     0.086 A 
HETATM   26  C   UNL     1     -11.992   2.919 -33.857  1.00  0.00     0.063 A 
HETATM   27  C   UNL     1     -10.715   4.336 -35.332  1.00  0.00     0.034 A 
HETATM   28  N   UNL     1     -11.747   1.746 -33.191  1.00  0.00    -0.333 N 
HETATM   29  C   UNL     1     -13.113   3.747 -33.915  1.00  0.00     0.032 A 
HETATM   30  H   UNL     1     -12.389   1.257 -32.584  1.00  0.00     0.168 HD
HETATM   31  C   UNL     1     -13.003   4.895 -34.708  1.00  0.00     0.002 A 
HETATM   32  C   UNL     1     -11.828   5.186 -35.405  1.00  0.00     0.002 A 
ENDBRANCH  22  23
ENDBRANCH  21  22
ENDBRANCH   1  21
BRANCH   1  33
HETATM   33  C   UNL     1      -9.049   2.997 -30.624  1.00  0.00     0.275 C 
BRANCH  33  34
HETATM   34  C   UNL     1      -9.948   4.154 -30.983  1.00  0.00    -0.033 A 
HETATM   35  C   UNL     1     -11.270   4.243 -30.524  1.00  0.00     0.009 A 
HETATM   36  C   UNL     1     -12.077   5.324 -30.884  1.00  0.00     0.001 A 
HETATM   37  C   UNL     1     -11.571   6.338 -31.691  1.00  0.00     0.000 A 
HETATM   38  C   UNL     1     -10.250   6.285 -32.127  1.00  0.00     0.001 A 
HETATM   39  C   UNL     1      -9.440   5.206 -31.767  1.00  0.00     0.009 A 
ENDBRANCH  33  34
ENDBRANCH   1  33
TORSDOF 9
ENDMDL
