MODEL 1
REMARK VINA RESULT:      -8.2      0.000      0.000
REMARK  5 active torsions:
REMARK  status: ('A' for Active; 'I' for Inactive)
REMARK    1  A    between atoms: C_8  and  N_9 
REMARK       I    between atoms: N_9  and  C_10 
REMARK       I    between atoms: C_10  and  N_11 
REMARK    2  A    between atoms: N_11  and  C_12 
REMARK    3  A    between atoms: C_13  and  O_14 
REMARK    4  A    between atoms: O_14  and  C_15 
REMARK    5  A    between atoms: C_15  and  C_16 
ROOT
HETATM    1  N   UNL     1     -10.358   1.319 -34.691  1.00  0.00    -0.305 N 
HETATM    2  C   UNL     1      -9.487   1.066 -33.648  1.00  0.00     0.325 C 
HETATM    3  N   UNL     1      -8.319   0.499 -34.128  1.00  0.00    -0.306 N 
HETATM    4  O   UNL     1      -9.702   1.318 -32.469  1.00  0.00    -0.247 OA
HETATM    5  H   UNL     1      -9.922   1.557 -35.569  1.00  0.00     0.171 HD
HETATM    6  H   UNL     1      -8.413  -0.059 -34.968  1.00  0.00     0.171 HD
ENDROOT
BRANCH   3   7
HETATM    7  C   UNL     1      -7.116   0.326 -33.413  1.00  0.00     0.070 A 
HETATM    8  C   UNL     1      -6.515  -0.944 -33.434  1.00  0.00     0.097 A 
HETATM    9  C   UNL     1      -5.284  -1.168 -32.815  1.00  0.00     0.063 A 
HETATM   10  C   UNL     1      -4.663  -0.120 -32.139  1.00  0.00     0.036 A 
HETATM   11 CL   UNL     1      -3.149  -0.383 -31.367  1.00  0.00    -0.084 Cl
HETATM   12  C   UNL     1      -5.259   1.139 -32.085  1.00  0.00     0.026 A 
HETATM   13  C   UNL     1      -6.483   1.363 -32.725  1.00  0.00     0.034 A 
BRANCH   8  14
HETATM   14  O   UNL     1      -7.160  -1.959 -34.100  1.00  0.00    -0.340 OA
BRANCH  14  15
HETATM   15  C   UNL     1      -6.228  -2.746 -34.869  1.00  0.00     0.293 C 
BRANCH  15  16
HETATM   16  C   UNL     1      -6.560  -4.223 -34.741  1.00  0.00     0.408 C 
HETATM   17  F   UNL     1      -5.534  -4.910 -34.188  1.00  0.00    -0.169 F 
HETATM   18  F   UNL     1      -7.653  -4.425 -33.975  1.00  0.00    -0.169 F 
HETATM   19  F   UNL     1      -6.807  -4.765 -35.956  1.00  0.00    -0.169 F 
ENDBRANCH  15  16
ENDBRANCH  14  15
ENDBRANCH   8  14
ENDBRANCH   3   7
BRANCH   1  20
HETATM   20  C   UNL     1     -11.682   1.692 -34.542  1.00  0.00     0.086 A 
HETATM   21  C   UNL     1     -12.158   2.937 -34.901  1.00  0.00     0.052 A 
HETATM   22  C   UNL     1     -11.496   4.147 -35.442  1.00  0.00     0.072 C 
HETATM   23  N   UNL     1     -13.493   2.921 -34.607  1.00  0.00    -0.280 N 
HETATM   24  H   UNL     1     -14.168   3.670 -34.716  1.00  0.00     0.189 HD
HETATM   25  N   UNL     1     -13.929   1.751 -34.128  1.00  0.00    -0.177 NA
HETATM   26  C   UNL     1     -12.830   0.983 -34.084  1.00  0.00     0.079 A 
HETATM   27  C   UNL     1     -12.965  -0.432 -33.656  1.00  0.00     0.075 C 
ENDBRANCH   1  20
TORSDOF 5
ENDMDL
MODEL 2
REMARK VINA RESULT:      -7.9      3.126      4.105
REMARK  5 active torsions:
REMARK  status: ('A' for Active; 'I' for Inactive)
REMARK    1  A    between atoms: C_8  and  N_9 
REMARK       I    between atoms: N_9  and  C_10 
REMARK       I    between atoms: C_10  and  N_11 
REMARK    2  A    between atoms: N_11  and  C_12 
REMARK    3  A    between atoms: C_13  and  O_14 
REMARK    4  A    between atoms: O_14  and  C_15 
REMARK    5  A    between atoms: C_15  and  C_16 
ROOT
HETATM    1  N   UNL     1      -8.646   1.990 -33.292  1.00  0.00    -0.305 N 
HETATM    2  C   UNL     1      -8.275   0.661 -33.377  1.00  0.00     0.325 C 
HETATM    3  N   UNL     1      -7.060   0.545 -34.028  1.00  0.00    -0.306 N 
HETATM    4  O   UNL     1      -8.914  -0.283 -32.929  1.00  0.00    -0.247 OA
HETATM    5  H   UNL     1      -7.885   2.646 -33.209  1.00  0.00     0.171 HD
HETATM    6  H   UNL     1      -6.860   1.259 -34.718  1.00  0.00     0.171 HD
ENDROOT
BRANCH   3   7
HETATM    7  C   UNL     1      -6.250  -0.607 -34.093  1.00  0.00     0.070 A 
HETATM    8  C   UNL     1      -5.095  -0.646 -33.293  1.00  0.00     0.097 A 
HETATM    9  C   UNL     1      -4.289  -1.784 -33.246  1.00  0.00     0.063 A 
HETATM   10  C   UNL     1      -4.621  -2.884 -34.034  1.00  0.00     0.036 A 
HETATM   11 CL   UNL     1      -3.634  -4.291 -33.992  1.00  0.00    -0.084 Cl
HETATM   12  C   UNL     1      -5.747  -2.852 -34.855  1.00  0.00     0.026 A 
HETATM   13  C   UNL     1      -6.564  -1.716 -34.881  1.00  0.00     0.034 A 
BRANCH   8  14
HETATM   14  O   UNL     1      -4.790   0.461 -32.537  1.00  0.00    -0.340 OA
BRANCH  14  15
HETATM   15  C   UNL     1      -4.633   0.110 -31.147  1.00  0.00     0.293 C 
BRANCH  15  16
HETATM   16  C   UNL     1      -5.893   0.461 -30.373  1.00  0.00     0.408 C 
HETATM   17  F   UNL     1      -5.644   0.553 -29.046  1.00  0.00    -0.169 F 
HETATM   18  F   UNL     1      -6.416   1.638 -30.778  1.00  0.00    -0.169 F 
HETATM   19  F   UNL     1      -6.840  -0.489 -30.546  1.00  0.00    -0.169 F 
ENDBRANCH  15  16
ENDBRANCH  14  15
ENDBRANCH   8  14
ENDBRANCH   3   7
BRANCH   1  20
HETATM   20  C   UNL     1      -9.891   2.438 -32.885  1.00  0.00     0.086 A 
HETATM   21  C   UNL     1     -10.088   3.155 -31.722  1.00  0.00     0.052 A 
HETATM   22  C   UNL     1      -9.174   3.583 -30.639  1.00  0.00     0.072 C 
HETATM   23  N   UNL     1     -11.431   3.413 -31.671  1.00  0.00    -0.280 N 
HETATM   24  H   UNL     1     -11.948   3.901 -30.948  1.00  0.00     0.189 HD
HETATM   25  N   UNL     1     -12.111   2.958 -32.729  1.00  0.00    -0.177 NA
HETATM   26  C   UNL     1     -11.180   2.359 -33.486  1.00  0.00     0.079 A 
HETATM   27  C   UNL     1     -11.585   1.792 -34.798  1.00  0.00     0.075 C 
ENDBRANCH   1  20
TORSDOF 5
ENDMDL
MODEL 3
REMARK VINA RESULT:      -7.6      3.163      4.221
REMARK  5 active torsions:
REMARK  status: ('A' for Active; 'I' for Inactive)
REMARK    1  A    between atoms: C_8  and  N_9 
REMARK       I    between atoms: N_9  and  C_10 
REMARK       I    between atoms: C_10  and  N_11 
REMARK    2  A    between atoms: N_11  and  C_12 
REMARK    3  A    between atoms: C_13  and  O_14 
REMARK    4  A    between atoms: O_14  and  C_15 
REMARK    5  A    between atoms: C_15  and  C_16 
ROOT
HETATM    1  N   UNL     1      -8.712   2.158 -33.325  1.00  0.00    -0.305 N 
HETATM    2  C   UNL     1      -8.312   0.835 -33.276  1.00  0.00     0.325 C 
HETATM    3  N   UNL     1      -7.211   0.639 -34.089  1.00  0.00    -0.306 N 
HETATM    4  O   UNL     1      -8.840  -0.039 -32.601  1.00  0.00    -0.247 OA
HETATM    5  H   UNL     1      -7.970   2.828 -33.459  1.00  0.00     0.171 HD
HETATM    6  H   UNL     1      -7.146   1.246 -34.898  1.00  0.00     0.171 HD
ENDROOT
BRANCH   3   7
HETATM    7  C   UNL     1      -6.381  -0.501 -34.116  1.00  0.00     0.070 A 
HETATM    8  C   UNL     1      -5.241  -0.505 -33.294  1.00  0.00     0.097 A 
HETATM    9  C   UNL     1      -4.417  -1.629 -33.211  1.00  0.00     0.063 A 
HETATM   10  C   UNL     1      -4.717  -2.749 -33.983  1.00  0.00     0.036 A 
HETATM   11 CL   UNL     1      -3.708  -4.139 -33.894  1.00  0.00    -0.084 Cl
HETATM   12  C   UNL     1      -5.828  -2.752 -34.824  1.00  0.00     0.026 A 
HETATM   13  C   UNL     1      -6.662  -1.630 -34.888  1.00  0.00     0.034 A 
BRANCH   8  14
HETATM   14  O   UNL     1      -4.967   0.621 -32.555  1.00  0.00    -0.340 OA
BRANCH  14  15
HETATM   15  C   UNL     1      -4.660   0.280 -31.188  1.00  0.00     0.293 C 
BRANCH  15  16
HETATM   16  C   UNL     1      -5.890   0.458 -30.314  1.00  0.00     0.408 C 
HETATM   17  F   UNL     1      -6.565   1.585 -30.642  1.00  0.00    -0.169 F 
HETATM   18  F   UNL     1      -6.742  -0.583 -30.433  1.00  0.00    -0.169 F 
HETATM   19  F   UNL     1      -5.542   0.554 -29.011  1.00  0.00    -0.169 F 
ENDBRANCH  15  16
ENDBRANCH  14  15
ENDBRANCH   8  14
ENDBRANCH   3   7
BRANCH   1  20
HETATM   20  C   UNL     1      -9.892   2.647 -32.793  1.00  0.00     0.086 A 
HETATM   21  C   UNL     1     -11.128   2.411 -33.362  1.00  0.00     0.052 A 
HETATM   22  C   UNL     1     -11.548   1.701 -34.591  1.00  0.00     0.072 C 
HETATM   23  N   UNL     1     -12.032   3.047 -32.556  1.00  0.00    -0.280 N 
HETATM   24  H   UNL     1     -13.038   3.111 -32.672  1.00  0.00     0.189 HD
HETATM   25  N   UNL     1     -11.486   3.638 -31.488  1.00  0.00    -0.177 NA
HETATM   26  C   UNL     1     -10.172   3.399 -31.616  1.00  0.00     0.079 A 
HETATM   27  C   UNL     1      -9.255   3.865 -30.545  1.00  0.00     0.075 C 
ENDBRANCH   1  20
TORSDOF 5
ENDMDL
MODEL 4
REMARK VINA RESULT:      -7.6      4.578      6.908
REMARK  5 active torsions:
REMARK  status: ('A' for Active; 'I' for Inactive)
REMARK    1  A    between atoms: C_8  and  N_9 
REMARK       I    between atoms: N_9  and  C_10 
REMARK       I    between atoms: C_10  and  N_11 
REMARK    2  A    between atoms: N_11  and  C_12 
REMARK    3  A    between atoms: C_13  and  O_14 
REMARK    4  A    between atoms: O_14  and  C_15 
REMARK    5  A    between atoms: C_15  and  C_16 
ROOT
HETATM    1  N   UNL     1      -4.190  -1.739 -33.721  1.00  0.00    -0.305 N 
HETATM    2  C   UNL     1      -4.780  -0.944 -32.756  1.00  0.00     0.325 C 
HETATM    3  N   UNL     1      -4.319   0.356 -32.861  1.00  0.00    -0.306 N 
HETATM    4  O   UNL     1      -5.605  -1.322 -31.933  1.00  0.00    -0.247 OA
HETATM    5  H   UNL     1      -3.975  -1.274 -34.590  1.00  0.00     0.171 HD
HETATM    6  H   UNL     1      -3.377   0.462 -33.219  1.00  0.00     0.171 HD
ENDROOT
BRANCH   3   7
HETATM    7  C   UNL     1      -4.858   1.492 -32.223  1.00  0.00     0.070 A 
HETATM    8  C   UNL     1      -5.878   2.198 -32.884  1.00  0.00     0.097 A 
HETATM    9  C   UNL     1      -6.512   3.284 -32.279  1.00  0.00     0.063 A 
HETATM   10  C   UNL     1      -6.099   3.690 -31.012  1.00  0.00     0.036 A 
HETATM   11 CL   UNL     1      -6.867   5.030 -30.255  1.00  0.00    -0.084 Cl
HETATM   12  C   UNL     1      -5.071   3.019 -30.352  1.00  0.00     0.026 A 
HETATM   13  C   UNL     1      -4.454   1.917 -30.956  1.00  0.00     0.034 A 
BRANCH   8  14
HETATM   14  O   UNL     1      -6.252   1.778 -34.138  1.00  0.00    -0.340 OA
BRANCH  14  15
HETATM   15  C   UNL     1      -7.597   1.256 -34.129  1.00  0.00     0.293 C 
BRANCH  15  16
HETATM   16  C   UNL     1      -7.647  -0.077 -34.856  1.00  0.00     0.408 C 
HETATM   17  F   UNL     1      -7.901  -1.093 -34.000  1.00  0.00    -0.169 F 
HETATM   18  F   UNL     1      -8.603  -0.090 -35.810  1.00  0.00    -0.169 F 
HETATM   19  F   UNL     1      -6.465  -0.337 -35.460  1.00  0.00    -0.169 F 
ENDBRANCH  15  16
ENDBRANCH  14  15
ENDBRANCH   8  14
ENDBRANCH   3   7
BRANCH   1  20
HETATM   20  C   UNL     1      -4.275  -3.120 -33.766  1.00  0.00     0.086 A 
HETATM   21  C   UNL     1      -3.581  -3.945 -32.904  1.00  0.00     0.052 A 
HETATM   22  C   UNL     1      -2.605  -3.674 -31.824  1.00  0.00     0.072 C 
HETATM   23  N   UNL     1      -3.924  -5.220 -33.258  1.00  0.00    -0.280 N 
HETATM   24  H   UNL     1      -3.592  -6.092 -32.860  1.00  0.00     0.189 HD
HETATM   25  N   UNL     1      -4.817  -5.287 -34.251  1.00  0.00    -0.177 NA
HETATM   26  C   UNL     1      -5.046  -4.004 -34.574  1.00  0.00     0.079 A 
HETATM   27  C   UNL     1      -6.060  -3.701 -35.615  1.00  0.00     0.075 C 
ENDBRANCH   1  20
TORSDOF 5
ENDMDL
MODEL 5
REMARK VINA RESULT:      -7.6      4.150      5.441
REMARK  5 active torsions:
REMARK  status: ('A' for Active; 'I' for Inactive)
REMARK    1  A    between atoms: C_8  and  N_9 
REMARK       I    between atoms: N_9  and  C_10 
REMARK       I    between atoms: C_10  and  N_11 
REMARK    2  A    between atoms: N_11  and  C_12 
REMARK    3  A    between atoms: C_13  and  O_14 
REMARK    4  A    between atoms: O_14  and  C_15 
REMARK    5  A    between atoms: C_15  and  C_16 
ROOT
HETATM    1  N   UNL     1      -6.689   2.103 -32.403  1.00  0.00    -0.305 N 
HETATM    2  C   UNL     1      -6.852   0.735 -32.520  1.00  0.00     0.325 C 
HETATM    3  N   UNL     1      -6.285   0.285 -33.698  1.00  0.00    -0.306 N 
HETATM    4  O   UNL     1      -7.404   0.015 -31.697  1.00  0.00    -0.247 OA
HETATM    5  H   UNL     1      -5.844   2.473 -32.812  1.00  0.00     0.171 HD
HETATM    6  H   UNL     1      -6.278   0.947 -34.465  1.00  0.00     0.171 HD
ENDROOT
BRANCH   3   7
HETATM    7  C   UNL     1      -6.038  -1.057 -34.052  1.00  0.00     0.070 A 
HETATM    8  C   UNL     1      -4.727  -1.544 -33.913  1.00  0.00     0.097 A 
HETATM    9  C   UNL     1      -4.426  -2.883 -34.169  1.00  0.00     0.063 A 
HETATM   10  C   UNL     1      -5.438  -3.736 -34.601  1.00  0.00     0.036 A 
HETATM   11 CL   UNL     1      -5.081  -5.387 -34.926  1.00  0.00    -0.084 Cl
HETATM   12  C   UNL     1      -6.739  -3.263 -34.771  1.00  0.00     0.026 A 
HETATM   13  C   UNL     1      -7.039  -1.925 -34.492  1.00  0.00     0.034 A 
BRANCH   8  14
HETATM   14  O   UNL     1      -3.749  -0.673 -33.497  1.00  0.00    -0.340 OA
BRANCH  14  15
HETATM   15  C   UNL     1      -3.266  -1.027 -32.185  1.00  0.00     0.293 C 
BRANCH  15  16
HETATM   16  C   UNL     1      -3.333   0.176 -31.259  1.00  0.00     0.408 C 
HETATM   17  F   UNL     1      -2.190   0.312 -30.548  1.00  0.00    -0.169 F 
HETATM   18  F   UNL     1      -3.532   1.323 -31.945  1.00  0.00    -0.169 F 
HETATM   19  F   UNL     1      -4.351   0.046 -30.378  1.00  0.00    -0.169 F 
ENDBRANCH  15  16
ENDBRANCH  14  15
ENDBRANCH   8  14
ENDBRANCH   3   7
BRANCH   1  20
HETATM   20  C   UNL     1      -7.309   2.894 -31.451  1.00  0.00     0.086 A 
HETATM   21  C   UNL     1      -6.624   3.506 -30.421  1.00  0.00     0.052 A 
HETATM   22  C   UNL     1      -5.202   3.485 -30.008  1.00  0.00     0.072 C 
HETATM   23  N   UNL     1      -7.569   4.190 -29.706  1.00  0.00    -0.280 N 
HETATM   24  H   UNL     1      -7.440   4.742 -28.865  1.00  0.00     0.189 HD
HETATM   25  N   UNL     1      -8.802   4.106 -30.216  1.00  0.00    -0.177 NA
HETATM   26  C   UNL     1      -8.660   3.315 -31.291  1.00  0.00     0.079 A 
HETATM   27  C   UNL     1      -9.844   3.060 -32.149  1.00  0.00     0.075 C 
ENDBRANCH   1  20
TORSDOF 5
ENDMDL
MODEL 6
REMARK VINA RESULT:      -7.5      3.994      5.198
REMARK  5 active torsions:
REMARK  status: ('A' for Active; 'I' for Inactive)
REMARK    1  A    between atoms: C_8  and  N_9 
REMARK       I    between atoms: N_9  and  C_10 
REMARK       I    between atoms: C_10  and  N_11 
REMARK    2  A    between atoms: N_11  and  C_12 
REMARK    3  A    between atoms: C_13  and  O_14 
REMARK    4  A    between atoms: O_14  and  C_15 
REMARK    5  A    between atoms: C_15  and  C_16 
ROOT
HETATM    1  N   UNL     1      -7.127   2.207 -33.041  1.00  0.00    -0.305 N 
HETATM    2  C   UNL     1      -6.791   1.200 -33.927  1.00  0.00     0.325 C 
HETATM    3  N   UNL     1      -6.297   0.105 -33.241  1.00  0.00    -0.306 N 
HETATM    4  O   UNL     1      -6.924   1.253 -35.143  1.00  0.00    -0.247 OA
HETATM    5  H   UNL     1      -7.457   1.896 -32.140  1.00  0.00     0.171 HD
HETATM    6  H   UNL     1      -5.820   0.309 -32.370  1.00  0.00     0.171 HD
ENDROOT
BRANCH   3   7
HETATM    7  C   UNL     1      -6.079  -1.185 -33.766  1.00  0.00     0.070 A 
HETATM    8  C   UNL     1      -4.753  -1.640 -33.868  1.00  0.00     0.097 A 
HETATM    9  C   UNL     1      -4.467  -2.935 -34.304  1.00  0.00     0.063 A 
HETATM   10  C   UNL     1      -5.516  -3.773 -34.675  1.00  0.00     0.036 A 
HETATM   11 CL   UNL     1      -5.178  -5.369 -35.220  1.00  0.00    -0.084 Cl
HETATM   12  C   UNL     1      -6.835  -3.329 -34.606  1.00  0.00     0.026 A 
HETATM   13  C   UNL     1      -7.117  -2.037 -34.147  1.00  0.00     0.034 A 
BRANCH   8  14
HETATM   14  O   UNL     1      -3.742  -0.783 -33.506  1.00  0.00    -0.340 OA
BRANCH  14  15
HETATM   15  C   UNL     1      -3.185  -1.151 -32.227  1.00  0.00     0.293 C 
BRANCH  15  16
HETATM   16  C   UNL     1      -3.199   0.042 -31.286  1.00  0.00     0.408 C 
HETATM   17  F   UNL     1      -3.361   1.201 -31.966  1.00  0.00    -0.169 F 
HETATM   18  F   UNL     1      -4.197  -0.049 -30.380  1.00  0.00    -0.169 F 
HETATM   19  F   UNL     1      -2.034   0.126 -30.603  1.00  0.00    -0.169 F 
ENDBRANCH  15  16
ENDBRANCH  14  15
ENDBRANCH   8  14
ENDBRANCH   3   7
BRANCH   1  20
HETATM   20  C   UNL     1      -7.458   3.501 -33.404  1.00  0.00     0.086 A 
HETATM   21  C   UNL     1      -6.569   4.554 -33.327  1.00  0.00     0.052 A 
HETATM   22  C   UNL     1      -5.172   4.655 -32.846  1.00  0.00     0.072 C 
HETATM   23  N   UNL     1      -7.257   5.650 -33.769  1.00  0.00    -0.280 N 
HETATM   24  H   UNL     1      -6.934   6.609 -33.832  1.00  0.00     0.189 HD
HETATM   25  N   UNL     1      -8.506   5.383 -34.167  1.00  0.00    -0.177 NA
HETATM   26  C   UNL     1      -8.645   4.066 -33.952  1.00  0.00     0.079 A 
HETATM   27  C   UNL     1      -9.914   3.409 -34.355  1.00  0.00     0.075 C 
ENDBRANCH   1  20
TORSDOF 5
ENDMDL
MODEL 7
REMARK VINA RESULT:      -7.5      4.298      7.270
REMARK  5 active torsions:
REMARK  status: ('A' for Active; 'I' for Inactive)
REMARK    1  A    between atoms: C_8  and  N_9 
REMARK       I    between atoms: N_9  and  C_10 
REMARK       I    between atoms: C_10  and  N_11 
REMARK    2  A    between atoms: N_11  and  C_12 
REMARK    3  A    between atoms: C_13  and  O_14 
REMARK    4  A    between atoms: O_14  and  C_15 
REMARK    5  A    between atoms: C_15  and  C_16 
ROOT
HETATM    1  N   UNL     1      -5.042  -1.813 -34.234  1.00  0.00    -0.305 N 
HETATM    2  C   UNL     1      -6.175  -1.180 -33.757  1.00  0.00     0.325 C 
HETATM    3  N   UNL     1      -6.043   0.192 -33.879  1.00  0.00    -0.306 N 
HETATM    4  O   UNL     1      -7.163  -1.744 -33.304  1.00  0.00    -0.247 OA
HETATM    5  H   UNL     1      -4.577  -1.347 -34.998  1.00  0.00     0.171 HD
HETATM    6  H   UNL     1      -5.097   0.550 -33.822  1.00  0.00     0.171 HD
ENDROOT
BRANCH   3   7
HETATM    7  C   UNL     1      -7.066   1.149 -33.730  1.00  0.00     0.070 A 
HETATM    8  C   UNL     1      -6.887   2.161 -32.771  1.00  0.00     0.097 A 
HETATM    9  C   UNL     1      -7.822   3.187 -32.623  1.00  0.00     0.063 A 
HETATM   10  C   UNL     1      -8.966   3.183 -33.419  1.00  0.00     0.036 A 
HETATM   11 CL   UNL     1     -10.129   4.437 -33.243  1.00  0.00    -0.084 Cl
HETATM   12  C   UNL     1      -9.173   2.172 -34.356  1.00  0.00     0.026 A 
HETATM   13  C   UNL     1      -8.221   1.158 -34.514  1.00  0.00     0.034 A 
BRANCH   8  14
HETATM   14  O   UNL     1      -5.754   2.128 -31.994  1.00  0.00    -0.340 OA
BRANCH  14  15
HETATM   15  C   UNL     1      -6.086   1.931 -30.604  1.00  0.00     0.293 C 
BRANCH  15  16
HETATM   16  C   UNL     1      -5.872   0.478 -30.215  1.00  0.00     0.408 C 
HETATM   17  F   UNL     1      -6.964  -0.271 -30.496  1.00  0.00    -0.169 F 
HETATM   18  F   UNL     1      -4.821  -0.064 -30.866  1.00  0.00    -0.169 F 
HETATM   19  F   UNL     1      -5.631   0.368 -28.889  1.00  0.00    -0.169 F 
ENDBRANCH  15  16
ENDBRANCH  14  15
ENDBRANCH   8  14
ENDBRANCH   3   7
BRANCH   1  20
HETATM   20  C   UNL     1      -4.763  -3.160 -34.074  1.00  0.00     0.086 A 
HETATM   21  C   UNL     1      -3.871  -3.636 -33.135  1.00  0.00     0.052 A 
HETATM   22  C   UNL     1      -2.992  -2.962 -32.152  1.00  0.00     0.072 C 
HETATM   23  N   UNL     1      -3.871  -4.996 -33.283  1.00  0.00    -0.280 N 
HETATM   24  H   UNL     1      -3.320  -5.682 -32.778  1.00  0.00     0.189 HD
HETATM   25  N   UNL     1      -4.723  -5.441 -34.214  1.00  0.00    -0.177 NA
HETATM   26  C   UNL     1      -5.282  -4.325 -34.708  1.00  0.00     0.079 A 
HETATM   27  C   UNL     1      -6.347  -4.456 -35.734  1.00  0.00     0.075 C 
ENDBRANCH   1  20
TORSDOF 5
ENDMDL
MODEL 8
REMARK VINA RESULT:      -7.3      6.081      8.825
REMARK  5 active torsions:
REMARK  status: ('A' for Active; 'I' for Inactive)
REMARK    1  A    between atoms: C_8  and  N_9 
REMARK       I    between atoms: N_9  and  C_10 
REMARK       I    between atoms: C_10  and  N_11 
REMARK    2  A    between atoms: N_11  and  C_12 
REMARK    3  A    between atoms: C_13  and  O_14 
REMARK    4  A    between atoms: O_14  and  C_15 
REMARK    5  A    between atoms: C_15  and  C_16 
ROOT
HETATM    1  N   UNL     1      -2.437   4.359 -30.967  1.00  0.00    -0.305 N 
HETATM    2  C   UNL     1      -2.741   3.480 -31.990  1.00  0.00     0.325 C 
HETATM    3  N   UNL     1      -3.370   2.356 -31.484  1.00  0.00    -0.306 N 
HETATM    4  O   UNL     1      -2.506   3.667 -33.178  1.00  0.00    -0.247 OA
HETATM    5  H   UNL     1      -3.086   4.362 -30.195  1.00  0.00     0.171 HD
HETATM    6  H   UNL     1      -3.114   2.097 -30.539  1.00  0.00     0.171 HD
ENDROOT
BRANCH   3   7
HETATM    7  C   UNL     1      -4.039   1.363 -32.228  1.00  0.00     0.070 A 
HETATM    8  C   UNL     1      -5.344   1.638 -32.669  1.00  0.00     0.097 A 
HETATM    9  C   UNL     1      -6.037   0.733 -33.476  1.00  0.00     0.063 A 
HETATM   10  C   UNL     1      -5.431  -0.474 -33.817  1.00  0.00     0.036 A 
HETATM   11 CL   UNL     1      -6.275  -1.601 -34.806  1.00  0.00    -0.084 Cl
HETATM   12  C   UNL     1      -4.148  -0.775 -33.365  1.00  0.00     0.026 A 
HETATM   13  C   UNL     1      -3.450   0.145 -32.574  1.00  0.00     0.034 A 
BRANCH   8  14
HETATM   14  O   UNL     1      -5.916   2.833 -32.304  1.00  0.00    -0.340 OA
BRANCH  14  15
HETATM   15  C   UNL     1      -7.083   2.618 -31.483  1.00  0.00     0.293 C 
BRANCH  15  16
HETATM   16  C   UNL     1      -6.713   2.715 -30.013  1.00  0.00     0.408 C 
HETATM   17  F   UNL     1      -5.692   3.581 -29.820  1.00  0.00    -0.169 F 
HETATM   18  F   UNL     1      -7.756   3.132 -29.262  1.00  0.00    -0.169 F 
HETATM   19  F   UNL     1      -6.324   1.510 -29.537  1.00  0.00    -0.169 F 
ENDBRANCH  15  16
ENDBRANCH  14  15
ENDBRANCH   8  14
ENDBRANCH   3   7
BRANCH   1  20
HETATM   20  C   UNL     1      -1.633   5.478 -31.099  1.00  0.00     0.086 A 
HETATM   21  C   UNL     1      -2.099   6.686 -31.577  1.00  0.00     0.052 A 
HETATM   22  C   UNL     1      -3.418   7.122 -32.089  1.00  0.00     0.072 C 
HETATM   23  N   UNL     1      -1.023   7.530 -31.556  1.00  0.00    -0.280 N 
HETATM   24  H   UNL     1      -0.980   8.498 -31.856  1.00  0.00     0.189 HD
HETATM   25  N   UNL     1       0.091   6.978 -31.063  1.00  0.00    -0.177 NA
HETATM   26  C   UNL     1      -0.267   5.717 -30.775  1.00  0.00     0.079 A 
HETATM   27  C   UNL     1       0.729   4.823 -30.133  1.00  0.00     0.075 C 
ENDBRANCH   1  20
TORSDOF 5
ENDMDL
MODEL 9
REMARK VINA RESULT:      -7.3      3.174      4.207
REMARK  5 active torsions:
REMARK  status: ('A' for Active; 'I' for Inactive)
REMARK    1  A    between atoms: C_8  and  N_9 
REMARK       I    between atoms: N_9  and  C_10 
REMARK       I    between atoms: C_10  and  N_11 
REMARK    2  A    between atoms: N_11  and  C_12 
REMARK    3  A    between atoms: C_13  and  O_14 
REMARK    4  A    between atoms: O_14  and  C_15 
REMARK    5  A    between atoms: C_15  and  C_16 
ROOT
HETATM    1  N   UNL     1     -10.717   0.994 -32.994  1.00  0.00    -0.305 N 
HETATM    2  C   UNL     1      -9.568   0.689 -33.701  1.00  0.00     0.325 C 
HETATM    3  N   UNL     1      -8.713  -0.067 -32.920  1.00  0.00    -0.306 N 
HETATM    4  O   UNL     1      -9.339   1.023 -34.857  1.00  0.00    -0.247 OA
HETATM    5  H   UNL     1     -11.012   0.295 -32.330  1.00  0.00     0.171 HD
HETATM    6  H   UNL     1      -8.766   0.098 -31.922  1.00  0.00     0.171 HD
ENDROOT
BRANCH   3   7
HETATM    7  C   UNL     1      -7.570  -0.764 -33.361  1.00  0.00     0.070 A 
HETATM    8  C   UNL     1      -6.317  -0.340 -32.890  1.00  0.00     0.097 A 
HETATM    9  C   UNL     1      -5.150  -1.031 -33.222  1.00  0.00     0.063 A 
HETATM   10  C   UNL     1      -5.234  -2.139 -34.062  1.00  0.00     0.036 A 
HETATM   11 CL   UNL     1      -3.804  -2.997 -34.485  1.00  0.00    -0.084 Cl
HETATM   12  C   UNL     1      -6.466  -2.558 -34.561  1.00  0.00     0.026 A 
HETATM   13  C   UNL     1      -7.634  -1.873 -34.207  1.00  0.00     0.034 A 
BRANCH   8  14
HETATM   14  O   UNL     1      -6.268   0.765 -32.073  1.00  0.00    -0.340 OA
BRANCH  14  15
HETATM   15  C   UNL     1      -5.383   1.768 -32.612  1.00  0.00     0.293 C 
BRANCH  15  16
HETATM   16  C   UNL     1      -6.166   2.757 -33.458  1.00  0.00     0.408 C 
HETATM   17  F   UNL     1      -7.375   3.023 -32.911  1.00  0.00    -0.169 F 
HETATM   18  F   UNL     1      -5.508   3.928 -33.595  1.00  0.00    -0.169 F 
HETATM   19  F   UNL     1      -6.379   2.261 -34.699  1.00  0.00    -0.169 F 
ENDBRANCH  15  16
ENDBRANCH  14  15
ENDBRANCH   8  14
ENDBRANCH   3   7
BRANCH   1  20
HETATM   20  C   UNL     1     -11.681   1.899 -33.405  1.00  0.00     0.086 A 
HETATM   21  C   UNL     1     -12.949   1.520 -33.795  1.00  0.00     0.052 A 
HETATM   22  C   UNL     1     -13.603   0.199 -33.938  1.00  0.00     0.072 C 
HETATM   23  N   UNL     1     -13.597   2.679 -34.121  1.00  0.00    -0.280 N 
HETATM   24  H   UNL     1     -14.542   2.792 -34.472  1.00  0.00     0.189 HD
HETATM   25  N   UNL     1     -12.863   3.782 -33.932  1.00  0.00    -0.177 NA
HETATM   26  C   UNL     1     -11.684   3.320 -33.490  1.00  0.00     0.079 A 
HETATM   27  C   UNL     1     -10.634   4.298 -33.108  1.00  0.00     0.075 C 
ENDBRANCH   1  20
TORSDOF 5
ENDMDL
MODEL 10
REMARK VINA RESULT:      -7.2      6.349      9.034
REMARK  5 active torsions:
REMARK  status: ('A' for Active; 'I' for Inactive)
REMARK    1  A    between atoms: C_8  and  N_9 
REMARK       I    between atoms: N_9  and  C_10 
REMARK       I    between atoms: C_10  and  N_11 
REMARK    2  A    between atoms: N_11  and  C_12 
REMARK    3  A    between atoms: C_13  and  O_14 
REMARK    4  A    between atoms: O_14  and  C_15 
REMARK    5  A    between atoms: C_15  and  C_16 
ROOT
HETATM    1  N   UNL     1      -2.468   4.439 -31.121  1.00  0.00    -0.305 N 
HETATM    2  C   UNL     1      -2.731   3.503 -32.104  1.00  0.00     0.325 C 
HETATM    3  N   UNL     1      -3.341   2.390 -31.553  1.00  0.00    -0.306 N 
HETATM    4  O   UNL     1      -2.478   3.636 -33.295  1.00  0.00    -0.247 OA
HETATM    5  H   UNL     1      -3.132   4.465 -30.362  1.00  0.00     0.171 HD
HETATM    6  H   UNL     1      -3.098   2.185 -30.591  1.00  0.00     0.171 HD
ENDROOT
BRANCH   3   7
HETATM    7  C   UNL     1      -3.971   1.344 -32.258  1.00  0.00     0.070 A 
HETATM    8  C   UNL     1      -5.285   1.552 -32.710  1.00  0.00     0.097 A 
HETATM    9  C   UNL     1      -5.942   0.592 -33.481  1.00  0.00     0.063 A 
HETATM   10  C   UNL     1      -5.291  -0.604 -33.774  1.00  0.00     0.036 A 
HETATM   11 CL   UNL     1      -6.091  -1.799 -34.718  1.00  0.00    -0.084 Cl
HETATM   12  C   UNL     1      -3.998  -0.839 -33.311  1.00  0.00     0.026 A 
HETATM   13  C   UNL     1      -3.337   0.137 -32.556  1.00  0.00     0.034 A 
BRANCH   8  14
HETATM   14  O   UNL     1      -5.903   2.738 -32.392  1.00  0.00    -0.340 OA
BRANCH  14  15
HETATM   15  C   UNL     1      -6.461   3.361 -33.566  1.00  0.00     0.293 C 
BRANCH  15  16
HETATM   16  C   UNL     1      -6.055   4.824 -33.627  1.00  0.00     0.408 C 
HETATM   17  F   UNL     1      -5.515   5.232 -32.455  1.00  0.00    -0.169 F 
HETATM   18  F   UNL     1      -5.148   5.050 -34.601  1.00  0.00    -0.169 F 
HETATM   19  F   UNL     1      -7.128   5.609 -33.878  1.00  0.00    -0.169 F 
ENDBRANCH  15  16
ENDBRANCH  14  15
ENDBRANCH   8  14
ENDBRANCH   3   7
BRANCH   1  20
HETATM   20  C   UNL     1      -1.689   5.570 -31.295  1.00  0.00     0.086 A 
HETATM   21  C   UNL     1      -0.422   5.699 -30.763  1.00  0.00     0.052 A 
HETATM   22  C   UNL     1       0.399   4.819 -29.902  1.00  0.00     0.072 C 
HETATM   23  N   UNL     1       0.016   6.936 -31.150  1.00  0.00    -0.280 N 
HETATM   24  H   UNL     1       0.896   7.387 -30.928  1.00  0.00     0.189 HD
HETATM   25  N   UNL     1      -0.848   7.599 -31.926  1.00  0.00    -0.177 NA
HETATM   26  C   UNL     1      -1.901   6.773 -32.028  1.00  0.00     0.079 A 
HETATM   27  C   UNL     1      -3.040   7.173 -32.892  1.00  0.00     0.075 C 
ENDBRANCH   1  20
TORSDOF 5
ENDMDL
