MODEL 1
REMARK VINA RESULT:      -7.8      0.000      0.000
REMARK  10 active torsions:
REMARK  status: ('A' for Active; 'I' for Inactive)
REMARK    1  A    between atoms: C_2  and  C_3 
REMARK    2  A    between atoms: C_4  and  O_5 
REMARK    3  A    between atoms: C_6  and  C_7 
REMARK    4  A    between atoms: C_12  and  C_13 
REMARK    5  A    between atoms: N_14  and  N_15 
REMARK       I    between atoms: N_15  and  C_16 
REMARK    6  A    between atoms: C_16  and  C_17 
REMARK    7  A    between atoms: N_20  and  C_21 
REMARK    8  A    between atoms: C_25  and  N_26 
REMARK    9  A    between atoms: C_27  and  C_28 
REMARK   10  A    between atoms: C_28  and  N_29 
ROOT
HETATM    1  N   UNL     1      -0.311   4.930 -31.661  1.00  0.00    -0.145 NA
HETATM    2  C   UNL     1       0.054   6.086 -30.982  1.00  0.00     0.273 C 
HETATM    3  O   UNL     1       0.587   7.023 -31.585  1.00  0.00    -0.270 OA
HETATM    4  H   UNL     1      -0.155   5.068 -32.659  1.00  0.00     0.158 HD
ENDROOT
BRANCH   1   5
HETATM    5  N   UNL     1      -1.551   4.383 -31.436  1.00  0.00    -0.205 NA
HETATM    6  C   UNL     1      -2.208   4.125 -32.525  1.00  0.00     0.144 C 
BRANCH   6   7
HETATM    7  C   UNL     1      -3.565   3.544 -32.506  1.00  0.00    -0.016 A 
HETATM    8  C   UNL     1      -4.692   4.363 -32.540  1.00  0.00     0.023 A 
HETATM    9  C   UNL     1      -5.986   3.814 -32.544  1.00  0.00    -0.016 A 
HETATM   10  C   UNL     1      -6.081   2.397 -32.471  1.00  0.00     0.079 A 
HETATM   11  C   UNL     1      -4.954   1.535 -32.392  1.00  0.00    -0.016 A 
HETATM   12  C   UNL     1      -3.693   2.155 -32.450  1.00  0.00     0.023 A 
BRANCH   9  13
HETATM   13  C   UNL     1      -7.233   4.729 -32.636  1.00  0.00    -0.021 C 
HETATM   14  C   UNL     1      -6.804   6.210 -32.726  1.00  0.00     0.019 C 
HETATM   15  C   UNL     1      -8.113   4.457 -33.886  1.00  0.00     0.019 C 
HETATM   16  C   UNL     1      -8.162   4.521 -31.417  1.00  0.00     0.019 C 
ENDBRANCH   9  13
BRANCH  10  17
HETATM   17  O   UNL     1      -7.344   1.875 -32.472  1.00  0.00    -0.360 OA
HETATM   18  H   UNL     1      -7.571   1.626 -33.380  1.00  0.00     0.217 HD
ENDBRANCH  10  17
BRANCH  11  19
HETATM   19  C   UNL     1      -5.048  -0.006 -32.235  1.00  0.00    -0.021 C 
HETATM   20  C   UNL     1      -5.450  -0.641 -33.582  1.00  0.00     0.019 C 
HETATM   21  C   UNL     1      -6.049  -0.425 -31.132  1.00  0.00     0.019 C 
HETATM   22  C   UNL     1      -3.699  -0.661 -31.824  1.00  0.00     0.019 C 
ENDBRANCH  11  19
ENDBRANCH   6   7
ENDBRANCH   1   5
BRANCH   2  23
HETATM   23  C   UNL     1      -0.166   6.171 -29.537  1.00  0.00     0.170 C 
HETATM   24  N   UNL     1       0.657   5.614 -28.602  1.00  0.00    -0.124 NA
HETATM   25  N   UNL     1       0.212   5.933 -27.402  1.00  0.00    -0.058 NA
HETATM   26  N   UNL     1      -0.839   6.778 -27.529  1.00  0.00    -0.191 N 
HETATM   27  C   UNL     1      -1.189   6.858 -28.884  1.00  0.00     0.101 C 
BRANCH  26  28
HETATM   28  C   UNL     1      -1.394   7.452 -26.412  1.00  0.00     0.229 A 
HETATM   29  N   UNL     1      -0.741   8.467 -25.844  1.00  0.00    -0.081 NA
HETATM   30  O   UNL     1      -1.565   8.839 -24.779  1.00  0.00    -0.103 OA
HETATM   31  N   UNL     1      -2.703   8.046 -24.724  1.00  0.00    -0.083 NA
HETATM   32  C   UNL     1      -2.595   7.183 -25.732  1.00  0.00     0.201 A 
BRANCH  32  33
HETATM   33  N   UNL     1      -3.505   6.240 -26.028  1.00  0.00    -0.379 N 
HETATM   34  H   UNL     1      -3.305   5.552 -26.748  1.00  0.00     0.158 HD
HETATM   35  H   UNL     1      -4.485   6.306 -25.762  1.00  0.00     0.158 HD
ENDBRANCH  32  33
ENDBRANCH  26  28
BRANCH  27  36
HETATM   36  C   UNL     1      -2.354   7.635 -29.381  1.00  0.00     0.295 C 
BRANCH  36  37
HETATM   37  N   UNL     1      -3.295   6.894 -30.301  1.00  0.00    -0.073 N 
HETATM   38  H   UNL     1      -2.828   5.999 -30.546  1.00  0.00     0.279 HD
HETATM   39  C   UNL     1      -4.614   6.559 -29.671  1.00  0.00     0.269 C 
HETATM   40  C   UNL     1      -3.477   7.612 -31.609  1.00  0.00     0.269 C 
ENDBRANCH  36  37
ENDBRANCH  27  36
ENDBRANCH   2  23
TORSDOF 10
ENDMDL
MODEL 2
REMARK VINA RESULT:      -7.8      0.079      3.111
REMARK  10 active torsions:
REMARK  status: ('A' for Active; 'I' for Inactive)
REMARK    1  A    between atoms: C_2  and  C_3 
REMARK    2  A    between atoms: C_4  and  O_5 
REMARK    3  A    between atoms: C_6  and  C_7 
REMARK    4  A    between atoms: C_12  and  C_13 
REMARK    5  A    between atoms: N_14  and  N_15 
REMARK       I    between atoms: N_15  and  C_16 
REMARK    6  A    between atoms: C_16  and  C_17 
REMARK    7  A    between atoms: N_20  and  C_21 
REMARK    8  A    between atoms: C_25  and  N_26 
REMARK    9  A    between atoms: C_27  and  C_28 
REMARK   10  A    between atoms: C_28  and  N_29 
ROOT
HETATM    1  N   UNL     1      -0.300   4.962 -31.654  1.00  0.00    -0.145 NA
HETATM    2  C   UNL     1       0.038   6.125 -30.975  1.00  0.00     0.273 C 
HETATM    3  O   UNL     1       0.544   7.076 -31.578  1.00  0.00    -0.270 OA
HETATM    4  H   UNL     1      -0.153   5.105 -32.653  1.00  0.00     0.158 HD
ENDROOT
BRANCH   1   5
HETATM    5  N   UNL     1      -1.525   4.383 -31.424  1.00  0.00    -0.205 NA
HETATM    6  C   UNL     1      -2.185   4.118 -32.511  1.00  0.00     0.144 C 
BRANCH   6   7
HETATM    7  C   UNL     1      -3.526   3.503 -32.487  1.00  0.00    -0.016 A 
HETATM    8  C   UNL     1      -3.675   2.118 -32.455  1.00  0.00     0.023 A 
HETATM    9  C   UNL     1      -4.950   1.528 -32.410  1.00  0.00    -0.016 A 
HETATM   10  C   UNL     1      -6.065   2.409 -32.442  1.00  0.00     0.079 A 
HETATM   11  C   UNL     1      -5.950   3.823 -32.519  1.00  0.00    -0.016 A 
HETATM   12  C   UNL     1      -4.643   4.341 -32.503  1.00  0.00     0.023 A 
BRANCH   9  13
HETATM   13  C   UNL     1      -5.106  -0.012 -32.319  1.00  0.00    -0.021 C 
HETATM   14  C   UNL     1      -3.760  -0.664 -31.934  1.00  0.00     0.019 C 
HETATM   15  C   UNL     1      -6.131  -0.471 -31.247  1.00  0.00     0.019 C 
HETATM   16  C   UNL     1      -5.612  -0.596 -33.658  1.00  0.00     0.019 C 
ENDBRANCH   9  13
BRANCH  10  17
HETATM   17  O   UNL     1      -7.300   1.823 -32.402  1.00  0.00    -0.360 OA
HETATM   18  H   UNL     1      -7.718   1.933 -33.269  1.00  0.00     0.217 HD
ENDBRANCH  10  17
BRANCH  11  19
HETATM   19  C   UNL     1      -7.159   4.789 -32.631  1.00  0.00    -0.021 C 
HETATM   20  C   UNL     1      -6.652   6.236 -32.800  1.00  0.00     0.019 C 
HETATM   21  C   UNL     1      -8.101   4.697 -31.406  1.00  0.00     0.019 C 
HETATM   22  C   UNL     1      -8.066   4.493 -33.859  1.00  0.00     0.019 C 
ENDBRANCH  11  19
ENDBRANCH   6   7
ENDBRANCH   1   5
BRANCH   2  23
HETATM   23  C   UNL     1      -0.178   6.202 -29.528  1.00  0.00     0.170 C 
HETATM   24  N   UNL     1       0.648   5.639 -28.599  1.00  0.00    -0.124 NA
HETATM   25  N   UNL     1       0.207   5.952 -27.396  1.00  0.00    -0.058 NA
HETATM   26  N   UNL     1      -0.845   6.799 -27.516  1.00  0.00    -0.191 N 
HETATM   27  C   UNL     1      -1.198   6.886 -28.868  1.00  0.00     0.101 C 
BRANCH  26  28
HETATM   28  C   UNL     1      -1.396   7.466 -26.393  1.00  0.00     0.229 A 
HETATM   29  N   UNL     1      -0.738   8.473 -25.817  1.00  0.00    -0.081 NA
HETATM   30  O   UNL     1      -1.559   8.841 -24.748  1.00  0.00    -0.103 OA
HETATM   31  N   UNL     1      -2.701   8.054 -24.700  1.00  0.00    -0.083 NA
HETATM   32  C   UNL     1      -2.599   7.198 -25.714  1.00  0.00     0.201 A 
BRANCH  32  33
HETATM   33  N   UNL     1      -3.513   6.263 -26.018  1.00  0.00    -0.379 N 
HETATM   34  H   UNL     1      -4.406   6.251 -25.532  1.00  0.00     0.158 HD
HETATM   35  H   UNL     1      -3.292   5.408 -26.523  1.00  0.00     0.158 HD
ENDBRANCH  32  33
ENDBRANCH  26  28
BRANCH  27  36
HETATM   36  C   UNL     1      -2.365   7.667 -29.357  1.00  0.00     0.295 C 
BRANCH  36  37
HETATM   37  N   UNL     1      -3.291   6.941 -30.305  1.00  0.00    -0.073 N 
HETATM   38  H   UNL     1      -2.838   6.032 -30.527  1.00  0.00     0.279 HD
HETATM   39  C   UNL     1      -4.639   6.644 -29.718  1.00  0.00     0.269 C 
HETATM   40  C   UNL     1      -3.410   7.652 -31.623  1.00  0.00     0.269 C 
ENDBRANCH  36  37
ENDBRANCH  27  36
ENDBRANCH   2  23
TORSDOF 10
ENDMDL
MODEL 3
REMARK VINA RESULT:      -7.6      6.401     10.399
REMARK  10 active torsions:
REMARK  status: ('A' for Active; 'I' for Inactive)
REMARK    1  A    between atoms: C_2  and  C_3 
REMARK    2  A    between atoms: C_4  and  O_5 
REMARK    3  A    between atoms: C_6  and  C_7 
REMARK    4  A    between atoms: C_12  and  C_13 
REMARK    5  A    between atoms: N_14  and  N_15 
REMARK       I    between atoms: N_15  and  C_16 
REMARK    6  A    between atoms: C_16  and  C_17 
REMARK    7  A    between atoms: N_20  and  C_21 
REMARK    8  A    between atoms: C_25  and  N_26 
REMARK    9  A    between atoms: C_27  and  C_28 
REMARK   10  A    between atoms: C_28  and  N_29 
ROOT
HETATM    1  N   UNL     1     -10.214   5.907 -34.107  1.00  0.00    -0.145 NA
HETATM    2  C   UNL     1     -11.331   5.668 -34.898  1.00  0.00     0.273 C 
HETATM    3  O   UNL     1     -11.879   6.596 -35.501  1.00  0.00    -0.270 OA
HETATM    4  H   UNL     1      -9.930   6.880 -34.218  1.00  0.00     0.158 HD
ENDROOT
BRANCH   1   5
HETATM    5  N   UNL     1      -9.128   5.071 -34.210  1.00  0.00    -0.205 NA
HETATM    6  C   UNL     1      -8.516   4.877 -33.081  1.00  0.00     0.144 C 
BRANCH   6   7
HETATM    7  C   UNL     1      -7.319   4.020 -32.973  1.00  0.00    -0.016 A 
HETATM    8  C   UNL     1      -7.438   2.633 -32.921  1.00  0.00     0.023 A 
HETATM    9  C   UNL     1      -6.301   1.811 -32.839  1.00  0.00    -0.016 A 
HETATM   10  C   UNL     1      -5.041   2.466 -32.771  1.00  0.00     0.079 A 
HETATM   11  C   UNL     1      -4.886   3.878 -32.778  1.00  0.00    -0.016 A 
HETATM   12  C   UNL     1      -6.065   4.632 -32.919  1.00  0.00     0.023 A 
BRANCH   9  13
HETATM   13  C   UNL     1      -6.439   0.267 -32.837  1.00  0.00    -0.021 C 
HETATM   14  C   UNL     1      -7.897  -0.140 -33.144  1.00  0.00     0.019 C 
HETATM   15  C   UNL     1      -5.558  -0.438 -33.904  1.00  0.00     0.019 C 
HETATM   16  C   UNL     1      -6.001  -0.325 -31.477  1.00  0.00     0.019 C 
ENDBRANCH   9  13
BRANCH  10  17
HETATM   17  O   UNL     1      -3.943   1.656 -32.688  1.00  0.00    -0.360 OA
HETATM   18  H   UNL     1      -4.148   0.922 -32.090  1.00  0.00     0.217 HD
ENDBRANCH  10  17
BRANCH  11  19
HETATM   19  C   UNL     1      -3.523   4.604 -32.627  1.00  0.00    -0.021 C 
HETATM   20  C   UNL     1      -2.751   4.540 -33.962  1.00  0.00     0.019 C 
HETATM   21  C   UNL     1      -2.661   4.008 -31.488  1.00  0.00     0.019 C 
HETATM   22  C   UNL     1      -3.669   6.112 -32.275  1.00  0.00     0.019 C 
ENDBRANCH  11  19
ENDBRANCH   6   7
ENDBRANCH   1   5
BRANCH   2  23
HETATM   23  C   UNL     1     -11.874   4.311 -34.984  1.00  0.00     0.170 C 
HETATM   24  N   UNL     1     -12.171   3.677 -36.155  1.00  0.00    -0.124 NA
HETATM   25  N   UNL     1     -12.573   2.451 -35.882  1.00  0.00    -0.058 NA
HETATM   26  N   UNL     1     -12.452   2.230 -34.550  1.00  0.00    -0.191 N 
HETATM   27  C   UNL     1     -12.123   3.439 -33.924  1.00  0.00     0.101 C 
BRANCH  26  28
HETATM   28  C   UNL     1     -12.614   0.938 -33.991  1.00  0.00     0.229 A 
HETATM   29  N   UNL     1     -11.577   0.308 -33.435  1.00  0.00    -0.081 NA
HETATM   30  O   UNL     1     -12.107  -0.923 -33.040  1.00  0.00    -0.103 OA
HETATM   31  N   UNL     1     -13.454  -1.014 -33.360  1.00  0.00    -0.083 NA
HETATM   32  C   UNL     1     -13.768   0.135 -33.954  1.00  0.00     0.201 A 
BRANCH  32  33
HETATM   33  N   UNL     1     -14.991   0.446 -34.413  1.00  0.00    -0.379 N 
HETATM   34  H   UNL     1     -15.090   1.061 -35.217  1.00  0.00     0.158 HD
HETATM   35  H   UNL     1     -15.842   0.315 -33.870  1.00  0.00     0.158 HD
ENDBRANCH  32  33
ENDBRANCH  26  28
BRANCH  27  36
HETATM   36  C   UNL     1     -11.991   3.585 -32.451  1.00  0.00     0.295 C 
BRANCH  36  37
HETATM   37  N   UNL     1     -13.278   3.501 -31.664  1.00  0.00    -0.073 N 
HETATM   38  H   UNL     1     -13.515   2.491 -31.588  1.00  0.00     0.279 HD
HETATM   39  C   UNL     1     -13.168   4.046 -30.271  1.00  0.00     0.269 C 
HETATM   40  C   UNL     1     -14.428   4.118 -32.407  1.00  0.00     0.269 C 
ENDBRANCH  36  37
ENDBRANCH  27  36
ENDBRANCH   2  23
TORSDOF 10
ENDMDL
MODEL 4
REMARK VINA RESULT:      -7.5      6.447     10.241
REMARK  10 active torsions:
REMARK  status: ('A' for Active; 'I' for Inactive)
REMARK    1  A    between atoms: C_2  and  C_3 
REMARK    2  A    between atoms: C_4  and  O_5 
REMARK    3  A    between atoms: C_6  and  C_7 
REMARK    4  A    between atoms: C_12  and  C_13 
REMARK    5  A    between atoms: N_14  and  N_15 
REMARK       I    between atoms: N_15  and  C_16 
REMARK    6  A    between atoms: C_16  and  C_17 
REMARK    7  A    between atoms: N_20  and  C_21 
REMARK    8  A    between atoms: C_25  and  N_26 
REMARK    9  A    between atoms: C_27  and  C_28 
REMARK   10  A    between atoms: C_28  and  N_29 
ROOT
HETATM    1  N   UNL     1     -10.217   5.887 -34.380  1.00  0.00    -0.145 NA
HETATM    2  C   UNL     1     -11.316   5.616 -35.185  1.00  0.00     0.273 C 
HETATM    3  O   UNL     1     -11.841   6.515 -35.848  1.00  0.00    -0.270 OA
HETATM    4  H   UNL     1      -9.923   6.851 -34.533  1.00  0.00     0.158 HD
ENDROOT
BRANCH   1   5
HETATM    5  N   UNL     1      -9.135   5.040 -34.412  1.00  0.00    -0.205 NA
HETATM    6  C   UNL     1      -8.443   5.042 -33.314  1.00  0.00     0.144 C 
BRANCH   6   7
HETATM    7  C   UNL     1      -7.236   4.210 -33.143  1.00  0.00    -0.016 A 
HETATM    8  C   UNL     1      -5.971   4.793 -33.094  1.00  0.00     0.023 A 
HETATM    9  C   UNL     1      -4.819   4.008 -32.910  1.00  0.00    -0.016 A 
HETATM   10  C   UNL     1      -5.010   2.603 -32.820  1.00  0.00     0.079 A 
HETATM   11  C   UNL     1      -6.280   1.972 -32.909  1.00  0.00    -0.016 A 
HETATM   12  C   UNL     1      -7.390   2.827 -33.036  1.00  0.00     0.023 A 
BRANCH   9  13
HETATM   13  C   UNL     1      -3.421   4.669 -32.802  1.00  0.00    -0.021 C 
HETATM   14  C   UNL     1      -2.641   4.078 -31.607  1.00  0.00     0.019 C 
HETATM   15  C   UNL     1      -2.529   4.445 -34.054  1.00  0.00     0.019 C 
HETATM   16  C   UNL     1      -3.545   6.202 -32.646  1.00  0.00     0.019 C 
ENDBRANCH   9  13
BRANCH  10  17
HETATM   17  O   UNL     1      -3.882   1.850 -32.645  1.00  0.00    -0.360 OA
HETATM   18  H   UNL     1      -3.133   2.449 -32.508  1.00  0.00     0.217 HD
ENDBRANCH  10  17
BRANCH  11  19
HETATM   19  C   UNL     1      -6.492   0.435 -32.888  1.00  0.00    -0.021 C 
HETATM   20  C   UNL     1      -5.992  -0.139 -31.546  1.00  0.00     0.019 C 
HETATM   21  C   UNL     1      -5.779  -0.273 -34.066  1.00  0.00     0.019 C 
HETATM   22  C   UNL     1      -7.985   0.022 -33.016  1.00  0.00     0.019 C 
ENDBRANCH  11  19
ENDBRANCH   6   7
ENDBRANCH   1   5
BRANCH   2  23
HETATM   23  C   UNL     1     -11.868   4.259 -35.215  1.00  0.00     0.170 C 
HETATM   24  N   UNL     1     -12.136   3.566 -36.359  1.00  0.00    -0.124 NA
HETATM   25  N   UNL     1     -12.556   2.359 -36.033  1.00  0.00    -0.058 NA
HETATM   26  N   UNL     1     -12.475   2.208 -34.689  1.00  0.00    -0.191 N 
HETATM   27  C   UNL     1     -12.153   3.446 -34.118  1.00  0.00     0.101 C 
BRANCH  26  28
HETATM   28  C   UNL     1     -12.663   0.948 -34.067  1.00  0.00     0.229 A 
HETATM   29  N   UNL     1     -11.639   0.325 -33.481  1.00  0.00    -0.081 NA
HETATM   30  O   UNL     1     -12.194  -0.874 -33.026  1.00  0.00    -0.103 OA
HETATM   31  N   UNL     1     -13.543  -0.952 -33.341  1.00  0.00    -0.083 NA
HETATM   32  C   UNL     1     -13.834   0.172 -33.991  1.00  0.00     0.201 A 
BRANCH  32  33
HETATM   33  N   UNL     1     -15.050   0.487 -34.464  1.00  0.00    -0.379 N 
HETATM   34  H   UNL     1     -15.364   0.103 -35.352  1.00  0.00     0.158 HD
HETATM   35  H   UNL     1     -15.595   1.278 -34.126  1.00  0.00     0.158 HD
ENDBRANCH  32  33
ENDBRANCH  26  28
BRANCH  27  36
HETATM   36  C   UNL     1     -12.062   3.669 -32.652  1.00  0.00     0.295 C 
BRANCH  36  37
HETATM   37  N   UNL     1     -13.378   3.828 -31.927  1.00  0.00    -0.073 N 
HETATM   38  H   UNL     1     -13.888   2.928 -32.035  1.00  0.00     0.279 HD
HETATM   39  C   UNL     1     -13.229   4.091 -30.458  1.00  0.00     0.269 C 
HETATM   40  C   UNL     1     -14.256   4.856 -32.583  1.00  0.00     0.269 C 
ENDBRANCH  36  37
ENDBRANCH  27  36
ENDBRANCH   2  23
TORSDOF 10
ENDMDL
MODEL 5
REMARK VINA RESULT:      -7.5      1.639      3.556
REMARK  10 active torsions:
REMARK  status: ('A' for Active; 'I' for Inactive)
REMARK    1  A    between atoms: C_2  and  C_3 
REMARK    2  A    between atoms: C_4  and  O_5 
REMARK    3  A    between atoms: C_6  and  C_7 
REMARK    4  A    between atoms: C_12  and  C_13 
REMARK    5  A    between atoms: N_14  and  N_15 
REMARK       I    between atoms: N_15  and  C_16 
REMARK    6  A    between atoms: C_16  and  C_17 
REMARK    7  A    between atoms: N_20  and  C_21 
REMARK    8  A    between atoms: C_25  and  N_26 
REMARK    9  A    between atoms: C_27  and  C_28 
REMARK   10  A    between atoms: C_28  and  N_29 
ROOT
HETATM    1  N   UNL     1      -1.843   5.613 -33.847  1.00  0.00    -0.145 NA
HETATM    2  C   UNL     1      -1.498   6.823 -33.259  1.00  0.00     0.273 C 
HETATM    3  O   UNL     1      -1.516   7.866 -33.919  1.00  0.00    -0.270 OA
HETATM    4  H   UNL     1      -2.174   5.787 -34.796  1.00  0.00     0.158 HD
ENDROOT
BRANCH   1   5
HETATM    5  N   UNL     1      -2.696   4.763 -33.185  1.00  0.00    -0.205 NA
HETATM    6  C   UNL     1      -3.851   4.634 -33.763  1.00  0.00     0.144 C 
BRANCH   6   7
HETATM    7  C   UNL     1      -4.916   3.776 -33.210  1.00  0.00    -0.016 A 
HETATM    8  C   UNL     1      -4.602   2.608 -32.516  1.00  0.00     0.023 A 
HETATM    9  C   UNL     1      -5.612   1.799 -31.969  1.00  0.00    -0.016 A 
HETATM   10  C   UNL     1      -6.955   2.208 -32.194  1.00  0.00     0.079 A 
HETATM   11  C   UNL     1      -7.311   3.368 -32.933  1.00  0.00    -0.016 A 
HETATM   12  C   UNL     1      -6.246   4.158 -33.401  1.00  0.00     0.023 A 
BRANCH   9  13
HETATM   13  C   UNL     1      -5.254   0.531 -31.152  1.00  0.00    -0.021 C 
HETATM   14  C   UNL     1      -5.834  -0.727 -31.835  1.00  0.00     0.019 C 
HETATM   15  C   UNL     1      -3.726   0.287 -31.022  1.00  0.00     0.019 C 
HETATM   16  C   UNL     1      -5.784   0.638 -29.704  1.00  0.00     0.019 C 
ENDBRANCH   9  13
BRANCH  10  17
HETATM   17  O   UNL     1      -7.928   1.410 -31.661  1.00  0.00    -0.360 OA
HETATM   18  H   UNL     1      -8.558   1.972 -31.186  1.00  0.00     0.217 HD
ENDBRANCH  10  17
BRANCH  11  19
HETATM   19  C   UNL     1      -8.772   3.782 -33.251  1.00  0.00    -0.021 C 
HETATM   20  C   UNL     1      -8.774   5.086 -34.076  1.00  0.00     0.019 C 
HETATM   21  C   UNL     1      -9.623   3.964 -31.970  1.00  0.00     0.019 C 
HETATM   22  C   UNL     1      -9.538   2.725 -34.095  1.00  0.00     0.019 C 
ENDBRANCH  11  19
ENDBRANCH   6   7
ENDBRANCH   1   5
BRANCH   2  23
HETATM   23  C   UNL     1      -1.080   6.847 -31.855  1.00  0.00     0.170 C 
HETATM   24  N   UNL     1       0.172   6.520 -31.423  1.00  0.00    -0.124 NA
HETATM   25  N   UNL     1       0.234   6.713 -30.120  1.00  0.00    -0.058 NA
HETATM   26  N   UNL     1      -0.932   7.259 -29.697  1.00  0.00    -0.191 N 
HETATM   27  C   UNL     1      -1.844   7.248 -30.760  1.00  0.00     0.101 C 
BRANCH  26  28
HETATM   28  C   UNL     1      -1.083   7.766 -28.382  1.00  0.00     0.229 A 
HETATM   29  N   UNL     1      -1.415   9.044 -28.185  1.00  0.00    -0.081 NA
HETATM   30  O   UNL     1      -1.432   9.173 -26.794  1.00  0.00    -0.103 OA
HETATM   31  N   UNL     1      -1.115   7.972 -26.175  1.00  0.00    -0.083 NA
HETATM   32  C   UNL     1      -0.893   7.102 -27.156  1.00  0.00     0.201 A 
BRANCH  32  33
HETATM   33  N   UNL     1      -0.563   5.814 -26.972  1.00  0.00    -0.379 N 
HETATM   34  H   UNL     1      -1.098   5.082 -27.433  1.00  0.00     0.158 HD
HETATM   35  H   UNL     1       0.030   5.492 -26.209  1.00  0.00     0.158 HD
ENDBRANCH  32  33
ENDBRANCH  26  28
BRANCH  27  36
HETATM   36  C   UNL     1      -3.254   7.699 -30.629  1.00  0.00     0.295 C 
BRANCH  36  37
HETATM   37  N   UNL     1      -4.306   6.703 -31.056  1.00  0.00    -0.073 N 
HETATM   38  H   UNL     1      -3.907   6.173 -31.856  1.00  0.00     0.279 HD
HETATM   39  C   UNL     1      -4.665   5.711 -29.989  1.00  0.00     0.269 C 
HETATM   40  C   UNL     1      -5.528   7.383 -31.607  1.00  0.00     0.269 C 
ENDBRANCH  36  37
ENDBRANCH  27  36
ENDBRANCH   2  23
TORSDOF 10
ENDMDL
MODEL 6
REMARK VINA RESULT:      -7.5      1.613      2.120
REMARK  10 active torsions:
REMARK  status: ('A' for Active; 'I' for Inactive)
REMARK    1  A    between atoms: C_2  and  C_3 
REMARK    2  A    between atoms: C_4  and  O_5 
REMARK    3  A    between atoms: C_6  and  C_7 
REMARK    4  A    between atoms: C_12  and  C_13 
REMARK    5  A    between atoms: N_14  and  N_15 
REMARK       I    between atoms: N_15  and  C_16 
REMARK    6  A    between atoms: C_16  and  C_17 
REMARK    7  A    between atoms: N_20  and  C_21 
REMARK    8  A    between atoms: C_25  and  N_26 
REMARK    9  A    between atoms: C_27  and  C_28 
REMARK   10  A    between atoms: C_28  and  N_29 
ROOT
HETATM    1  N   UNL     1      -1.801   5.645 -33.785  1.00  0.00    -0.145 NA
HETATM    2  C   UNL     1      -1.466   6.840 -33.162  1.00  0.00     0.273 C 
HETATM    3  O   UNL     1      -1.447   7.895 -33.804  1.00  0.00    -0.270 OA
HETATM    4  H   UNL     1      -2.093   5.840 -34.743  1.00  0.00     0.158 HD
ENDROOT
BRANCH   1   5
HETATM    5  N   UNL     1      -2.689   4.793 -33.172  1.00  0.00    -0.205 NA
HETATM    6  C   UNL     1      -3.834   4.715 -33.779  1.00  0.00     0.144 C 
BRANCH   6   7
HETATM    7  C   UNL     1      -4.932   3.864 -33.280  1.00  0.00    -0.016 A 
HETATM    8  C   UNL     1      -6.262   4.223 -33.489  1.00  0.00     0.023 A 
HETATM    9  C   UNL     1      -7.312   3.406 -33.035  1.00  0.00    -0.016 A 
HETATM   10  C   UNL     1      -6.948   2.231 -32.324  1.00  0.00     0.079 A 
HETATM   11  C   UNL     1      -5.603   1.857 -32.055  1.00  0.00    -0.016 A 
HETATM   12  C   UNL     1      -4.608   2.695 -32.590  1.00  0.00     0.023 A 
BRANCH   9  13
HETATM   13  C   UNL     1      -8.788   3.785 -33.319  1.00  0.00    -0.021 C 
HETATM   14  C   UNL     1      -8.856   5.079 -34.160  1.00  0.00     0.019 C 
HETATM   15  C   UNL     1      -9.563   2.705 -34.123  1.00  0.00     0.019 C 
HETATM   16  C   UNL     1      -9.575   3.969 -32.001  1.00  0.00     0.019 C 
ENDBRANCH   9  13
BRANCH  10  17
HETATM   17  O   UNL     1      -7.977   1.446 -31.884  1.00  0.00    -0.360 OA
HETATM   18  H   UNL     1      -7.779   1.162 -30.979  1.00  0.00     0.217 HD
ENDBRANCH  10  17
BRANCH  11  19
HETATM   19  C   UNL     1      -5.196   0.618 -31.215  1.00  0.00    -0.021 C 
HETATM   20  C   UNL     1      -3.659   0.559 -31.090  1.00  0.00     0.019 C 
HETATM   21  C   UNL     1      -5.729  -0.703 -31.819  1.00  0.00     0.019 C 
HETATM   22  C   UNL     1      -5.756   0.652 -29.765  1.00  0.00     0.019 C 
ENDBRANCH  11  19
ENDBRANCH   6   7
ENDBRANCH   1   5
BRANCH   2  23
HETATM   23  C   UNL     1      -1.103   6.834 -31.743  1.00  0.00     0.170 C 
HETATM   24  N   UNL     1       0.128   6.487 -31.269  1.00  0.00    -0.124 NA
HETATM   25  N   UNL     1       0.140   6.655 -29.961  1.00  0.00    -0.058 NA
HETATM   26  N   UNL     1      -1.036   7.205 -29.573  1.00  0.00    -0.191 N 
HETATM   27  C   UNL     1      -1.906   7.222 -30.671  1.00  0.00     0.101 C 
BRANCH  26  28
HETATM   28  C   UNL     1      -1.234   7.689 -28.256  1.00  0.00     0.229 A 
HETATM   29  N   UNL     1      -1.663   8.936 -28.052  1.00  0.00    -0.081 NA
HETATM   30  O   UNL     1      -1.699   9.054 -26.661  1.00  0.00    -0.103 OA
HETATM   31  N   UNL     1      -1.297   7.875 -26.047  1.00  0.00    -0.083 NA
HETATM   32  C   UNL     1      -1.003   7.032 -27.034  1.00  0.00     0.201 A 
BRANCH  32  33
HETATM   33  N   UNL     1      -0.577   5.771 -26.856  1.00  0.00    -0.379 N 
HETATM   34  H   UNL     1      -1.154   5.108 -26.345  1.00  0.00     0.158 HD
HETATM   35  H   UNL     1       0.392   5.485 -26.978  1.00  0.00     0.158 HD
ENDBRANCH  32  33
ENDBRANCH  26  28
BRANCH  27  36
HETATM   36  C   UNL     1      -3.316   7.684 -30.587  1.00  0.00     0.295 C 
BRANCH  36  37
HETATM   37  N   UNL     1      -4.361   6.696 -31.048  1.00  0.00    -0.073 N 
HETATM   38  H   UNL     1      -3.949   6.179 -31.850  1.00  0.00     0.279 HD
HETATM   39  C   UNL     1      -4.737   5.686 -30.004  1.00  0.00     0.269 C 
HETATM   40  C   UNL     1      -5.573   7.386 -31.607  1.00  0.00     0.269 C 
ENDBRANCH  36  37
ENDBRANCH  27  36
ENDBRANCH   2  23
TORSDOF 10
ENDMDL
MODEL 7
REMARK VINA RESULT:      -7.4      2.237      4.615
REMARK  10 active torsions:
REMARK  status: ('A' for Active; 'I' for Inactive)
REMARK    1  A    between atoms: C_2  and  C_3 
REMARK    2  A    between atoms: C_4  and  O_5 
REMARK    3  A    between atoms: C_6  and  C_7 
REMARK    4  A    between atoms: C_12  and  C_13 
REMARK    5  A    between atoms: N_14  and  N_15 
REMARK       I    between atoms: N_15  and  C_16 
REMARK    6  A    between atoms: C_16  and  C_17 
REMARK    7  A    between atoms: N_20  and  C_21 
REMARK    8  A    between atoms: C_25  and  N_26 
REMARK    9  A    between atoms: C_27  and  C_28 
REMARK   10  A    between atoms: C_28  and  N_29 
ROOT
HETATM    1  N   UNL     1      -1.708   4.210 -31.054  1.00  0.00    -0.145 NA
HETATM    2  C   UNL     1      -0.789   5.209 -31.349  1.00  0.00     0.273 C 
HETATM    3  O   UNL     1       0.408   4.936 -31.486  1.00  0.00    -0.270 OA
HETATM    4  H   UNL     1      -1.237   3.306 -31.085  1.00  0.00     0.158 HD
ENDROOT
BRANCH   1   5
HETATM    5  N   UNL     1      -2.893   4.162 -31.749  1.00  0.00    -0.205 NA
HETATM    6  C   UNL     1      -3.634   3.142 -31.439  1.00  0.00     0.144 C 
BRANCH   6   7
HETATM    7  C   UNL     1      -4.942   2.898 -32.076  1.00  0.00    -0.016 A 
HETATM    8  C   UNL     1      -5.197   1.702 -32.746  1.00  0.00     0.023 A 
HETATM    9  C   UNL     1      -6.448   1.455 -33.335  1.00  0.00    -0.016 A 
HETATM   10  C   UNL     1      -7.414   2.495 -33.249  1.00  0.00     0.079 A 
HETATM   11  C   UNL     1      -7.173   3.742 -32.613  1.00  0.00    -0.016 A 
HETATM   12  C   UNL     1      -5.918   3.894 -31.997  1.00  0.00     0.023 A 
BRANCH   9  13
HETATM   13  C   UNL     1      -6.742   0.101 -34.031  1.00  0.00    -0.021 C 
HETATM   14  C   UNL     1      -5.522  -0.838 -33.907  1.00  0.00     0.019 C 
HETATM   15  C   UNL     1      -7.943  -0.666 -33.416  1.00  0.00     0.019 C 
HETATM   16  C   UNL     1      -7.098   0.311 -35.521  1.00  0.00     0.019 C 
ENDBRANCH   9  13
BRANCH  10  17
HETATM   17  O   UNL     1      -8.626   2.245 -33.830  1.00  0.00    -0.360 OA
HETATM   18  H   UNL     1      -9.163   3.049 -33.775  1.00  0.00     0.217 HD
ENDBRANCH  10  17
BRANCH  11  19
HETATM   19  C   UNL     1      -8.192   4.912 -32.579  1.00  0.00    -0.021 C 
HETATM   20  C   UNL     1      -9.397   4.525 -31.697  1.00  0.00     0.019 C 
HETATM   21  C   UNL     1      -8.677   5.311 -33.994  1.00  0.00     0.019 C 
HETATM   22  C   UNL     1      -7.603   6.218 -31.974  1.00  0.00     0.019 C 
ENDBRANCH  11  19
ENDBRANCH   6   7
ENDBRANCH   1   5
BRANCH   2  23
HETATM   23  C   UNL     1      -1.245   6.596 -31.460  1.00  0.00     0.170 C 
HETATM   24  N   UNL     1      -1.183   7.333 -32.607  1.00  0.00    -0.124 NA
HETATM   25  N   UNL     1      -1.736   8.510 -32.384  1.00  0.00    -0.058 NA
HETATM   26  N   UNL     1      -2.255   8.526 -31.132  1.00  0.00    -0.191 N 
HETATM   27  C   UNL     1      -1.854   7.361 -30.466  1.00  0.00     0.101 C 
BRANCH  26  28
HETATM   28  C   UNL     1      -3.090   9.581 -30.685  1.00  0.00     0.229 A 
HETATM   29  N   UNL     1      -4.280   9.787 -31.252  1.00  0.00    -0.081 NA
HETATM   30  O   UNL     1      -4.778  10.908 -30.584  1.00  0.00    -0.103 OA
HETATM   31  N   UNL     1      -3.883  11.358 -29.622  1.00  0.00    -0.083 NA
HETATM   32  C   UNL     1      -2.835  10.540 -29.688  1.00  0.00     0.201 A 
BRANCH  32  33
HETATM   33  N   UNL     1      -1.745  10.635 -28.909  1.00  0.00    -0.379 N 
HETATM   34  H   UNL     1      -0.837  10.360 -29.273  1.00  0.00     0.158 HD
HETATM   35  H   UNL     1      -1.788  10.727 -27.896  1.00  0.00     0.158 HD
ENDBRANCH  32  33
ENDBRANCH  26  28
BRANCH  27  36
HETATM   36  C   UNL     1      -2.176   7.085 -29.041  1.00  0.00     0.295 C 
BRANCH  36  37
HETATM   37  N   UNL     1      -1.001   6.743 -28.155  1.00  0.00    -0.073 N 
HETATM   38  H   UNL     1      -0.757   5.752 -28.353  1.00  0.00     0.279 HD
HETATM   39  C   UNL     1       0.220   7.572 -28.428  1.00  0.00     0.269 C 
HETATM   40  C   UNL     1      -1.371   6.774 -26.700  1.00  0.00     0.269 C 
ENDBRANCH  36  37
ENDBRANCH  27  36
ENDBRANCH   2  23
TORSDOF 10
ENDMDL
MODEL 8
REMARK VINA RESULT:      -7.4      4.295      8.718
REMARK  10 active torsions:
REMARK  status: ('A' for Active; 'I' for Inactive)
REMARK    1  A    between atoms: C_2  and  C_3 
REMARK    2  A    between atoms: C_4  and  O_5 
REMARK    3  A    between atoms: C_6  and  C_7 
REMARK    4  A    between atoms: C_12  and  C_13 
REMARK    5  A    between atoms: N_14  and  N_15 
REMARK       I    between atoms: N_15  and  C_16 
REMARK    6  A    between atoms: C_16  and  C_17 
REMARK    7  A    between atoms: N_20  and  C_21 
REMARK    8  A    between atoms: C_25  and  N_26 
REMARK    9  A    between atoms: C_27  and  C_28 
REMARK   10  A    between atoms: C_28  and  N_29 
ROOT
HETATM    1  N   UNL     1      -3.010   0.172 -31.932  1.00  0.00    -0.145 NA
HETATM    2  C   UNL     1      -4.001  -0.787 -31.769  1.00  0.00     0.273 C 
HETATM    3  O   UNL     1      -3.701  -1.974 -31.603  1.00  0.00    -0.270 OA
HETATM    4  H   UNL     1      -2.099  -0.264 -31.790  1.00  0.00     0.158 HD
ENDROOT
BRANCH   1   5
HETATM    5  N   UNL     1      -3.096   1.352 -31.232  1.00  0.00    -0.205 NA
HETATM    6  C   UNL     1      -3.369   2.378 -31.979  1.00  0.00     0.144 C 
BRANCH   6   7
HETATM    7  C   UNL     1      -3.496   3.741 -31.427  1.00  0.00    -0.016 A 
HETATM    8  C   UNL     1      -2.445   4.652 -31.530  1.00  0.00     0.023 A 
HETATM    9  C   UNL     1      -2.568   5.958 -31.025  1.00  0.00    -0.016 A 
HETATM   10  C   UNL     1      -3.790   6.281 -30.376  1.00  0.00     0.079 A 
HETATM   11  C   UNL     1      -4.864   5.365 -30.215  1.00  0.00    -0.016 A 
HETATM   12  C   UNL     1      -4.689   4.096 -30.795  1.00  0.00     0.023 A 
BRANCH   9  13
HETATM   13  C   UNL     1      -1.416   6.982 -31.192  1.00  0.00    -0.021 C 
HETATM   14  C   UNL     1      -0.924   7.463 -29.809  1.00  0.00     0.019 C 
HETATM   15  C   UNL     1      -0.171   6.404 -31.918  1.00  0.00     0.019 C 
HETATM   16  C   UNL     1      -1.871   8.192 -32.041  1.00  0.00     0.019 C 
ENDBRANCH   9  13
BRANCH  10  17
HETATM   17  O   UNL     1      -3.897   7.553 -29.886  1.00  0.00    -0.360 OA
HETATM   18  H   UNL     1      -3.304   8.127 -30.394  1.00  0.00     0.217 HD
ENDBRANCH  10  17
BRANCH  11  19
HETATM   19  C   UNL     1      -6.171   5.683 -29.442  1.00  0.00    -0.021 C 
HETATM   20  C   UNL     1      -5.840   5.978 -27.964  1.00  0.00     0.019 C 
HETATM   21  C   UNL     1      -7.204   4.533 -29.534  1.00  0.00     0.019 C 
HETATM   22  C   UNL     1      -6.914   6.936 -29.986  1.00  0.00     0.019 C 
ENDBRANCH  11  19
ENDBRANCH   6   7
ENDBRANCH   1   5
BRANCH   2  23
HETATM   23  C   UNL     1      -5.409  -0.385 -31.830  1.00  0.00     0.170 C 
HETATM   24  N   UNL     1      -6.156  -0.045 -30.740  1.00  0.00    -0.124 NA
HETATM   25  N   UNL     1      -7.353   0.330 -31.149  1.00  0.00    -0.058 NA
HETATM   26  N   UNL     1      -7.376   0.340 -32.504  1.00  0.00    -0.191 N 
HETATM   27  C   UNL     1      -6.187  -0.230 -32.977  1.00  0.00     0.101 C 
BRANCH  26  28
HETATM   28  C   UNL     1      -8.461   0.896 -33.227  1.00  0.00     0.229 A 
HETATM   29  N   UNL     1      -8.273   1.955 -34.018  1.00  0.00    -0.081 NA
HETATM   30  O   UNL     1      -9.548   2.229 -34.518  1.00  0.00    -0.103 OA
HETATM   31  N   UNL     1     -10.484   1.330 -34.024  1.00  0.00    -0.083 NA
HETATM   32  C   UNL     1      -9.813   0.508 -33.221  1.00  0.00     0.201 A 
BRANCH  32  33
HETATM   33  N   UNL     1     -10.362  -0.516 -32.548  1.00  0.00    -0.379 N 
HETATM   34  H   UNL     1      -9.812  -1.024 -31.860  1.00  0.00     0.158 HD
HETATM   35  H   UNL     1     -11.213  -0.988 -32.845  1.00  0.00     0.158 HD
ENDBRANCH  32  33
ENDBRANCH  26  28
BRANCH  27  36
HETATM   36  C   UNL     1      -5.908  -0.455 -34.419  1.00  0.00     0.295 C 
BRANCH  36  37
HETATM   37  N   UNL     1      -6.043  -1.880 -34.901  1.00  0.00    -0.073 N 
HETATM   38  H   UNL     1      -6.287  -1.832 -35.910  1.00  0.00     0.279 HD
HETATM   39  C   UNL     1      -4.779  -2.679 -34.779  1.00  0.00     0.269 C 
HETATM   40  C   UNL     1      -7.201  -2.582 -34.250  1.00  0.00     0.269 C 
ENDBRANCH  36  37
ENDBRANCH  27  36
ENDBRANCH   2  23
TORSDOF 10
ENDMDL
MODEL 9
REMARK VINA RESULT:      -7.4      1.936      3.842
REMARK  10 active torsions:
REMARK  status: ('A' for Active; 'I' for Inactive)
REMARK    1  A    between atoms: C_2  and  C_3 
REMARK    2  A    between atoms: C_4  and  O_5 
REMARK    3  A    between atoms: C_6  and  C_7 
REMARK    4  A    between atoms: C_12  and  C_13 
REMARK    5  A    between atoms: N_14  and  N_15 
REMARK       I    between atoms: N_15  and  C_16 
REMARK    6  A    between atoms: C_16  and  C_17 
REMARK    7  A    between atoms: N_20  and  C_21 
REMARK    8  A    between atoms: C_25  and  N_26 
REMARK    9  A    between atoms: C_27  and  C_28 
REMARK   10  A    between atoms: C_28  and  N_29 
ROOT
HETATM    1  N   UNL     1      -1.664   4.916 -33.649  1.00  0.00    -0.145 NA
HETATM    2  C   UNL     1      -1.093   6.037 -33.059  1.00  0.00     0.273 C 
HETATM    3  O   UNL     1      -0.986   7.091 -33.693  1.00  0.00    -0.270 OA
HETATM    4  H   UNL     1      -2.024   5.172 -34.568  1.00  0.00     0.158 HD
ENDROOT
BRANCH   1   5
HETATM    5  N   UNL     1      -2.597   4.191 -32.948  1.00  0.00    -0.205 NA
HETATM    6  C   UNL     1      -3.749   4.783 -32.855  1.00  0.00     0.144 C 
BRANCH   6   7
HETATM    7  C   UNL     1      -4.887   4.180 -32.134  1.00  0.00    -0.016 A 
HETATM    8  C   UNL     1      -5.177   2.823 -32.269  1.00  0.00     0.023 A 
HETATM    9  C   UNL     1      -6.247   2.239 -31.569  1.00  0.00    -0.016 A 
HETATM   10  C   UNL     1      -7.032   3.104 -30.760  1.00  0.00     0.079 A 
HETATM   11  C   UNL     1      -6.791   4.499 -30.633  1.00  0.00    -0.016 A 
HETATM   12  C   UNL     1      -5.669   5.000 -31.319  1.00  0.00     0.023 A 
BRANCH   9  13
HETATM   13  C   UNL     1      -6.530   0.719 -31.682  1.00  0.00    -0.021 C 
HETATM   14  C   UNL     1      -6.331   0.035 -30.311  1.00  0.00     0.019 C 
HETATM   15  C   UNL     1      -7.980   0.387 -32.125  1.00  0.00     0.019 C 
HETATM   16  C   UNL     1      -5.610   0.063 -32.738  1.00  0.00     0.019 C 
ENDBRANCH   9  13
BRANCH  10  17
HETATM   17  O   UNL     1      -8.072   2.525 -30.087  1.00  0.00    -0.360 OA
HETATM   18  H   UNL     1      -8.169   2.972 -29.233  1.00  0.00     0.217 HD
ENDBRANCH  10  17
BRANCH  11  19
HETATM   19  C   UNL     1      -7.686   5.466 -29.814  1.00  0.00    -0.021 C 
HETATM   20  C   UNL     1      -9.172   5.169 -30.105  1.00  0.00     0.019 C 
HETATM   21  C   UNL     1      -7.374   6.952 -30.114  1.00  0.00     0.019 C 
HETATM   22  C   UNL     1      -7.499   5.318 -28.277  1.00  0.00     0.019 C 
ENDBRANCH  11  19
ENDBRANCH   6   7
ENDBRANCH   1   5
BRANCH   2  23
HETATM   23  C   UNL     1      -0.586   5.947 -31.687  1.00  0.00     0.170 C 
HETATM   24  N   UNL     1       0.170   4.915 -31.215  1.00  0.00    -0.124 NA
HETATM   25  N   UNL     1       0.515   5.177 -29.970  1.00  0.00    -0.058 NA
HETATM   26  N   UNL     1       0.080   6.418 -29.641  1.00  0.00    -0.191 N 
HETATM   27  C   UNL     1      -0.736   6.895 -30.675  1.00  0.00     0.101 C 
BRANCH  26  28
HETATM   28  C   UNL     1       0.479   7.054 -28.439  1.00  0.00     0.229 A 
HETATM   29  N   UNL     1       1.304   8.103 -28.472  1.00  0.00    -0.081 NA
HETATM   30  O   UNL     1       1.491   8.422 -27.125  1.00  0.00    -0.103 OA
HETATM   31  N   UNL     1       0.773   7.565 -26.302  1.00  0.00    -0.083 NA
HETATM   32  C   UNL     1       0.151   6.714 -27.114  1.00  0.00     0.201 A 
BRANCH  32  33
HETATM   33  N   UNL     1      -0.656   5.722 -26.705  1.00  0.00    -0.379 N 
HETATM   34  H   UNL     1      -1.181   5.182 -27.387  1.00  0.00     0.158 HD
HETATM   35  H   UNL     1      -0.980   5.625 -25.744  1.00  0.00     0.158 HD
ENDBRANCH  32  33
ENDBRANCH  26  28
BRANCH  27  36
HETATM   36  C   UNL     1      -1.452   8.196 -30.614  1.00  0.00     0.295 C 
BRANCH  36  37
HETATM   37  N   UNL     1      -2.907   8.129 -30.215  1.00  0.00    -0.073 N 
HETATM   38  H   UNL     1      -3.091   8.961 -29.620  1.00  0.00     0.279 HD
HETATM   39  C   UNL     1      -3.854   8.185 -31.377  1.00  0.00     0.269 C 
HETATM   40  C   UNL     1      -3.189   6.945 -29.333  1.00  0.00     0.269 C 
ENDBRANCH  36  37
ENDBRANCH  27  36
ENDBRANCH   2  23
TORSDOF 10
ENDMDL
MODEL 10
REMARK VINA RESULT:      -7.4      2.272      3.610
REMARK  10 active torsions:
REMARK  status: ('A' for Active; 'I' for Inactive)
REMARK    1  A    between atoms: C_2  and  C_3 
REMARK    2  A    between atoms: C_4  and  O_5 
REMARK    3  A    between atoms: C_6  and  C_7 
REMARK    4  A    between atoms: C_12  and  C_13 
REMARK    5  A    between atoms: N_14  and  N_15 
REMARK       I    between atoms: N_15  and  C_16 
REMARK    6  A    between atoms: C_16  and  C_17 
REMARK    7  A    between atoms: N_20  and  C_21 
REMARK    8  A    between atoms: C_25  and  N_26 
REMARK    9  A    between atoms: C_27  and  C_28 
REMARK   10  A    between atoms: C_28  and  N_29 
ROOT
HETATM    1  N   UNL     1      -1.839   4.266 -30.997  1.00  0.00    -0.145 NA
HETATM    2  C   UNL     1      -0.904   5.226 -31.361  1.00  0.00     0.273 C 
HETATM    3  O   UNL     1       0.269   4.905 -31.576  1.00  0.00    -0.270 OA
HETATM    4  H   UNL     1      -1.407   3.344 -31.052  1.00  0.00     0.158 HD
ENDROOT
BRANCH   1   5
HETATM    5  N   UNL     1      -3.069   4.261 -31.611  1.00  0.00    -0.205 NA
HETATM    6  C   UNL     1      -3.685   3.121 -31.526  1.00  0.00     0.144 C 
BRANCH   6   7
HETATM    7  C   UNL     1      -5.015   2.899 -32.127  1.00  0.00    -0.016 A 
HETATM    8  C   UNL     1      -6.020   3.857 -32.005  1.00  0.00     0.023 A 
HETATM    9  C   UNL     1      -7.282   3.660 -32.593  1.00  0.00    -0.016 A 
HETATM   10  C   UNL     1      -7.487   2.430 -33.273  1.00  0.00     0.079 A 
HETATM   11  C   UNL     1      -6.499   1.414 -33.380  1.00  0.00    -0.016 A 
HETATM   12  C   UNL     1      -5.244   1.706 -32.815  1.00  0.00     0.023 A 
BRANCH   9  13
HETATM   13  C   UNL     1      -8.377   4.753 -32.499  1.00  0.00    -0.021 C 
HETATM   14  C   UNL     1      -8.656   5.351 -33.896  1.00  0.00     0.019 C 
HETATM   15  C   UNL     1      -9.739   4.226 -31.974  1.00  0.00     0.019 C 
HETATM   16  C   UNL     1      -7.957   5.874 -31.519  1.00  0.00     0.019 C 
ENDBRANCH   9  13
BRANCH  10  17
HETATM   17  O   UNL     1      -8.719   2.248 -33.838  1.00  0.00    -0.360 OA
HETATM   18  H   UNL     1      -9.150   3.113 -33.915  1.00  0.00     0.217 HD
ENDBRANCH  10  17
BRANCH  11  19
HETATM   19  C   UNL     1      -6.736   0.036 -34.053  1.00  0.00    -0.021 C 
HETATM   20  C   UNL     1      -5.471  -0.835 -33.912  1.00  0.00     0.019 C 
HETATM   21  C   UNL     1      -7.123   0.171 -35.546  1.00  0.00     0.019 C 
HETATM   22  C   UNL     1      -7.900  -0.768 -33.407  1.00  0.00     0.019 C 
ENDBRANCH  11  19
ENDBRANCH   6   7
ENDBRANCH   1   5
BRANCH   2  23
HETATM   23  C   UNL     1      -1.313   6.629 -31.453  1.00  0.00     0.170 C 
HETATM   24  N   UNL     1      -1.228   7.379 -32.590  1.00  0.00    -0.124 NA
HETATM   25  N   UNL     1      -1.740   8.570 -32.350  1.00  0.00    -0.058 NA
HETATM   26  N   UNL     1      -2.254   8.588 -31.096  1.00  0.00    -0.191 N 
HETATM   27  C   UNL     1      -1.891   7.401 -30.446  1.00  0.00     0.101 C 
BRANCH  26  28
HETATM   28  C   UNL     1      -3.051   9.665 -30.632  1.00  0.00     0.229 A 
HETATM   29  N   UNL     1      -4.226   9.932 -31.206  1.00  0.00    -0.081 NA
HETATM   30  O   UNL     1      -4.685  11.057 -30.517  1.00  0.00    -0.103 OA
HETATM   31  N   UNL     1      -3.784  11.448 -29.537  1.00  0.00    -0.083 NA
HETATM   32  C   UNL     1      -2.768  10.591 -29.611  1.00  0.00     0.201 A 
BRANCH  32  33
HETATM   33  N   UNL     1      -1.684  10.624 -28.820  1.00  0.00    -0.379 N 
HETATM   34  H   UNL     1      -0.843  11.103 -29.132  1.00  0.00     0.158 HD
HETATM   35  H   UNL     1      -1.547   9.995 -28.031  1.00  0.00     0.158 HD
ENDBRANCH  32  33
ENDBRANCH  26  28
BRANCH  27  36
HETATM   36  C   UNL     1      -2.218   7.118 -29.024  1.00  0.00     0.295 C 
BRANCH  36  37
HETATM   37  N   UNL     1      -1.052   6.734 -28.145  1.00  0.00    -0.073 N 
HETATM   38  H   UNL     1      -0.842   5.737 -28.347  1.00  0.00     0.279 HD
HETATM   39  C   UNL     1       0.195   7.523 -28.420  1.00  0.00     0.269 C 
HETATM   40  C   UNL     1      -1.415   6.771 -26.688  1.00  0.00     0.269 C 
ENDBRANCH  36  37
ENDBRANCH  27  36
ENDBRANCH   2  23
TORSDOF 10
ENDMDL
