MODEL 1
REMARK VINA RESULT:     -10.6      0.000      0.000
REMARK  6 active torsions:
REMARK  status: ('A' for Active; 'I' for Inactive)
REMARK    1  A    between atoms: C_8  and  C_9 
REMARK    2  A    between atoms: C_9  and  C_10 
REMARK    3  A    between atoms: C_10  and  N_11 
REMARK       I    between atoms: N_11  and  C_12 
REMARK    4  A    between atoms: C_12  and  C_13 
REMARK    5  A    between atoms: C_18  and  C_19 
REMARK    6  A    between atoms: C_29  and  C_30 
ROOT
HETATM    1  C   UNL     1      -4.411   4.343 -31.721  1.00  0.00     0.148 A 
HETATM    2  N   UNL     1      -5.096   3.583 -30.837  1.00  0.00    -0.165 NA
HETATM    3  N   UNL     1      -5.737   2.692 -31.617  1.00  0.00    -0.240 N 
HETATM    4  C   UNL     1      -5.522   2.872 -32.954  1.00  0.00     0.123 A 
HETATM    5  N   UNL     1      -6.119   2.099 -33.885  1.00  0.00    -0.366 N 
HETATM    6  C   UNL     1      -6.963   0.966 -33.536  1.00  0.00     0.118 C 
HETATM    7  C   UNL     1      -7.585   1.148 -32.139  1.00  0.00     0.066 C 
HETATM    8  C   UNL     1      -6.626   1.692 -31.061  1.00  0.00     0.221 C 
HETATM    9  C   UNL     1      -4.655   3.925 -33.057  1.00  0.00     0.088 A 
HETATM   10  H   UNL     1      -5.854   2.162 -34.866  1.00  0.00     0.161 HD
ENDROOT
BRANCH   1  11
HETATM   11  C   UNL     1      -3.539   5.454 -31.308  1.00  0.00     0.272 C 
HETATM   12  N   UNL     1      -2.637   5.847 -32.272  1.00  0.00    -0.355 N 
HETATM   13  H   UNL     1      -2.809   5.468 -33.201  1.00  0.00     0.162 HD
HETATM   14  O   UNL     1      -3.631   5.992 -30.208  1.00  0.00    -0.266 OA
BRANCH  12  15
HETATM   15  C   UNL     1      -1.848   7.049 -32.106  1.00  0.00     0.127 C 
BRANCH  15  16
HETATM   16  C   UNL     1      -0.355   6.775 -31.923  1.00  0.00     0.060 C 
BRANCH  16  17
HETATM   17  C   UNL     1      -0.010   6.296 -30.546  1.00  0.00    -0.029 A 
HETATM   18  C   UNL     1      -0.129   7.026 -29.320  1.00  0.00    -0.002 A 
HETATM   19  C   UNL     1      -0.572   8.322 -28.987  1.00  0.00     0.014 A 
HETATM   20  C   UNL     1       0.313   6.191 -28.293  1.00  0.00     0.042 A 
HETATM   21  C   UNL     1      -0.556   8.734 -27.649  1.00  0.00     0.001 A 
HETATM   22  C   UNL     1      -0.108   7.876 -26.648  1.00  0.00     0.002 A 
HETATM   23  C   UNL     1       0.335   6.586 -26.949  1.00  0.00     0.030 A 
HETATM   24  N   UNL     1       0.683   4.999 -28.869  1.00  0.00    -0.365 N 
HETATM   25  H   UNL     1       1.041   4.204 -28.359  1.00  0.00     0.165 HD
HETATM   26  C   UNL     1       0.498   5.051 -30.224  1.00  0.00     0.096 A 
ENDBRANCH  16  17
ENDBRANCH  15  16
ENDBRANCH  12  15
ENDBRANCH   1  11
BRANCH   8  27
HETATM   27  C   UNL     1      -5.841   0.616 -30.346  1.00  0.00     0.409 C 
HETATM   28  F   UNL     1      -5.866   0.777 -29.003  1.00  0.00    -0.169 F 
HETATM   29  F   UNL     1      -6.396  -0.601 -30.588  1.00  0.00    -0.169 F 
HETATM   30  F   UNL     1      -4.552   0.542 -30.722  1.00  0.00    -0.169 F 
ENDBRANCH   8  27
BRANCH   6  31
HETATM   31  C   UNL     1      -6.277  -0.369 -33.775  1.00  0.00    -0.033 A 
HETATM   32  C   UNL     1      -7.053  -1.458 -34.220  1.00  0.00     0.049 A 
HETATM   33  C   UNL     1      -6.423  -2.658 -34.479  1.00  0.00     0.105 A 
HETATM   34  C   UNL     1      -5.071  -2.821 -34.304  1.00  0.00     0.105 A 
HETATM   35  O   UNL     1      -7.026  -3.790 -34.932  1.00  0.00    -0.323 OA
HETATM   36  O   UNL     1      -4.651  -4.074 -34.619  1.00  0.00    -0.323 OA
HETATM   37  C   UNL     1      -4.274  -1.790 -33.863  1.00  0.00     0.040 A 
HETATM   38  C   UNL     1      -5.893  -4.678 -35.034  1.00  0.00     0.352 A 
HETATM   39  C   UNL     1      -4.884  -0.556 -33.606  1.00  0.00     0.012 A 
ENDBRANCH   6  31
TORSDOF 6
ENDMDL
MODEL 2
REMARK VINA RESULT:     -10.1      2.944      9.868
REMARK  6 active torsions:
REMARK  status: ('A' for Active; 'I' for Inactive)
REMARK    1  A    between atoms: C_8  and  C_9 
REMARK    2  A    between atoms: C_9  and  C_10 
REMARK    3  A    between atoms: C_10  and  N_11 
REMARK       I    between atoms: N_11  and  C_12 
REMARK    4  A    between atoms: C_12  and  C_13 
REMARK    5  A    between atoms: C_18  and  C_19 
REMARK    6  A    between atoms: C_29  and  C_30 
ROOT
HETATM    1  C   UNL     1      -5.747   3.386 -31.299  1.00  0.00     0.148 A 
HETATM    2  N   UNL     1      -4.854   3.662 -32.276  1.00  0.00    -0.165 NA
HETATM    3  N   UNL     1      -4.335   4.847 -31.904  1.00  0.00    -0.240 N 
HETATM    4  C   UNL     1      -4.879   5.355 -30.758  1.00  0.00     0.123 A 
HETATM    5  N   UNL     1      -4.511   6.554 -30.261  1.00  0.00    -0.366 N 
HETATM    6  C   UNL     1      -3.449   7.354 -30.854  1.00  0.00     0.118 C 
HETATM    7  C   UNL     1      -3.283   7.030 -32.350  1.00  0.00     0.066 C 
HETATM    8  C   UNL     1      -3.341   5.532 -32.708  1.00  0.00     0.221 C 
HETATM    9  C   UNL     1      -5.789   4.426 -30.331  1.00  0.00     0.088 A 
HETATM   10  H   UNL     1      -4.832   6.862 -29.345  1.00  0.00     0.161 HD
ENDROOT
BRANCH   1  11
HETATM   11  C   UNL     1      -6.554   2.156 -31.282  1.00  0.00     0.272 C 
HETATM   12  N   UNL     1      -7.169   1.873 -32.481  1.00  0.00    -0.355 N 
HETATM   13  H   UNL     1      -6.842   2.423 -33.273  1.00  0.00     0.162 HD
HETATM   14  O   UNL     1      -6.646   1.440 -30.288  1.00  0.00    -0.266 OA
BRANCH  12  15
HETATM   15  C   UNL     1      -7.831   0.604 -32.696  1.00  0.00     0.127 C 
BRANCH  15  16
HETATM   16  C   UNL     1      -7.448  -0.065 -34.017  1.00  0.00     0.060 C 
BRANCH  16  17
HETATM   17  C   UNL     1      -6.186  -0.866 -33.925  1.00  0.00    -0.029 A 
HETATM   18  C   UNL     1      -6.020  -2.257 -34.222  1.00  0.00    -0.002 A 
HETATM   19  C   UNL     1      -6.885  -3.278 -34.667  1.00  0.00     0.014 A 
HETATM   20  C   UNL     1      -4.681  -2.577 -33.989  1.00  0.00     0.042 A 
HETATM   21  C   UNL     1      -6.385  -4.570 -34.861  1.00  0.00     0.001 A 
HETATM   22  C   UNL     1      -5.043  -4.856 -34.619  1.00  0.00     0.002 A 
HETATM   23  C   UNL     1      -4.164  -3.864 -34.178  1.00  0.00     0.030 A 
HETATM   24  N   UNL     1      -4.057  -1.426 -33.571  1.00  0.00    -0.365 N 
HETATM   25  H   UNL     1      -3.077  -1.362 -33.333  1.00  0.00     0.165 HD
HETATM   26  C   UNL     1      -4.951  -0.392 -33.524  1.00  0.00     0.096 A 
ENDBRANCH  16  17
ENDBRANCH  15  16
ENDBRANCH  12  15
ENDBRANCH   1  11
BRANCH   8  27
HETATM   27  C   UNL     1      -2.005   4.831 -32.617  1.00  0.00     0.409 C 
HETATM   28  F   UNL     1      -1.765   4.354 -31.374  1.00  0.00    -0.169 F 
HETATM   29  F   UNL     1      -1.992   3.749 -33.441  1.00  0.00    -0.169 F 
HETATM   30  F   UNL     1      -0.960   5.603 -32.964  1.00  0.00    -0.169 F 
ENDBRANCH   8  27
BRANCH   6  31
HETATM   31  C   UNL     1      -2.170   7.326 -30.035  1.00  0.00    -0.033 A 
HETATM   32  C   UNL     1      -2.263   7.136 -28.642  1.00  0.00     0.049 A 
HETATM   33  C   UNL     1      -1.099   7.067 -27.904  1.00  0.00     0.105 A 
HETATM   34  C   UNL     1       0.138   7.190 -28.486  1.00  0.00     0.105 A 
HETATM   35  O   UNL     1      -1.021   6.867 -26.561  1.00  0.00    -0.323 OA
HETATM   36  O   UNL     1       1.151   7.088 -27.586  1.00  0.00    -0.323 OA
HETATM   37  C   UNL     1       0.279   7.386 -29.841  1.00  0.00     0.040 A 
HETATM   38  C   UNL     1       0.409   6.865 -26.370  1.00  0.00     0.352 A 
HETATM   39  C   UNL     1      -0.884   7.445 -30.617  1.00  0.00     0.012 A 
ENDBRANCH   6  31
TORSDOF 6
ENDMDL
MODEL 3
REMARK VINA RESULT:     -10.1      3.471     10.023
REMARK  6 active torsions:
REMARK  status: ('A' for Active; 'I' for Inactive)
REMARK    1  A    between atoms: C_8  and  C_9 
REMARK    2  A    between atoms: C_9  and  C_10 
REMARK    3  A    between atoms: C_10  and  N_11 
REMARK       I    between atoms: N_11  and  C_12 
REMARK    4  A    between atoms: C_12  and  C_13 
REMARK    5  A    between atoms: C_18  and  C_19 
REMARK    6  A    between atoms: C_29  and  C_30 
ROOT
HETATM    1  C   UNL     1      -5.295   5.443 -33.179  1.00  0.00     0.148 A 
HETATM    2  N   UNL     1      -4.006   5.545 -33.573  1.00  0.00    -0.165 NA
HETATM    3  N   UNL     1      -3.499   6.485 -32.753  1.00  0.00    -0.240 N 
HETATM    4  C   UNL     1      -4.412   7.012 -31.884  1.00  0.00     0.123 A 
HETATM    5  N   UNL     1      -4.091   7.997 -31.020  1.00  0.00    -0.366 N 
HETATM    6  C   UNL     1      -2.735   8.510 -30.887  1.00  0.00     0.118 C 
HETATM    7  C   UNL     1      -1.935   8.303 -32.187  1.00  0.00     0.066 C 
HETATM    8  C   UNL     1      -2.123   6.929 -32.860  1.00  0.00     0.221 C 
HETATM    9  C   UNL     1      -5.584   6.349 -32.123  1.00  0.00     0.088 A 
HETATM   10  H   UNL     1      -4.744   8.292 -30.296  1.00  0.00     0.161 HD
ENDROOT
BRANCH   1  11
HETATM   11  C   UNL     1      -6.245   4.504 -33.797  1.00  0.00     0.272 C 
HETATM   12  N   UNL     1      -5.794   3.203 -33.848  1.00  0.00    -0.355 N 
HETATM   13  H   UNL     1      -4.965   3.013 -33.287  1.00  0.00     0.162 HD
HETATM   14  O   UNL     1      -7.348   4.855 -34.208  1.00  0.00    -0.266 OA
BRANCH  12  15
HETATM   15  C   UNL     1      -6.677   2.124 -34.237  1.00  0.00     0.127 C 
BRANCH  15  16
HETATM   16  C   UNL     1      -6.765   1.007 -33.197  1.00  0.00     0.060 C 
BRANCH  16  17
HETATM   17  C   UNL     1      -5.704  -0.036 -33.364  1.00  0.00    -0.029 A 
HETATM   18  C   UNL     1      -5.865  -1.361 -33.881  1.00  0.00    -0.002 A 
HETATM   19  C   UNL     1      -6.962  -2.096 -34.376  1.00  0.00     0.014 A 
HETATM   20  C   UNL     1      -4.614  -1.979 -33.846  1.00  0.00     0.042 A 
HETATM   21  C   UNL     1      -6.769  -3.412 -34.814  1.00  0.00     0.001 A 
HETATM   22  C   UNL     1      -5.507  -3.999 -34.765  1.00  0.00     0.002 A 
HETATM   23  C   UNL     1      -4.403  -3.294 -34.279  1.00  0.00     0.030 A 
HETATM   24  N   UNL     1      -3.726  -1.065 -33.331  1.00  0.00    -0.365 N 
HETATM   25  H   UNL     1      -2.740  -1.241 -33.194  1.00  0.00     0.165 HD
HETATM   26  C   UNL     1      -4.368   0.105 -33.033  1.00  0.00     0.096 A 
ENDBRANCH  16  17
ENDBRANCH  15  16
ENDBRANCH  12  15
ENDBRANCH   1  11
BRANCH   8  27
HETATM   27  C   UNL     1      -1.177   5.866 -32.350  1.00  0.00     0.409 C 
HETATM   28  F   UNL     1      -0.880   4.951 -33.301  1.00  0.00    -0.169 F 
HETATM   29  F   UNL     1       0.006   6.432 -31.992  1.00  0.00    -0.169 F 
HETATM   30  F   UNL     1      -1.635   5.199 -31.275  1.00  0.00    -0.169 F 
ENDBRANCH   8  27
BRANCH   6  31
HETATM   31  C   UNL     1      -2.051   8.031 -29.617  1.00  0.00    -0.033 A 
HETATM   32  C   UNL     1      -0.662   8.222 -29.484  1.00  0.00     0.049 A 
HETATM   33  C   UNL     1      -0.048   7.826 -28.313  1.00  0.00     0.105 A 
HETATM   34  C   UNL     1      -0.751   7.245 -27.286  1.00  0.00     0.105 A 
HETATM   35  O   UNL     1       1.274   7.961 -28.025  1.00  0.00    -0.323 OA
HETATM   36  O   UNL     1       0.038   6.936 -26.224  1.00  0.00    -0.323 OA
HETATM   37  C   UNL     1      -2.107   7.031 -27.373  1.00  0.00     0.040 A 
HETATM   38  C   UNL     1       1.318   7.410 -26.692  1.00  0.00     0.352 A 
HETATM   39  C   UNL     1      -2.758   7.435 -28.544  1.00  0.00     0.012 A 
ENDBRANCH   6  31
TORSDOF 6
ENDMDL
MODEL 4
REMARK VINA RESULT:      -9.8      2.986      4.280
REMARK  6 active torsions:
REMARK  status: ('A' for Active; 'I' for Inactive)
REMARK    1  A    between atoms: C_8  and  C_9 
REMARK    2  A    between atoms: C_9  and  C_10 
REMARK    3  A    between atoms: C_10  and  N_11 
REMARK       I    between atoms: N_11  and  C_12 
REMARK    4  A    between atoms: C_12  and  C_13 
REMARK    5  A    between atoms: C_18  and  C_19 
REMARK    6  A    between atoms: C_29  and  C_30 
ROOT
HETATM    1  C   UNL     1      -3.470   3.306 -31.893  1.00  0.00     0.148 A 
HETATM    2  N   UNL     1      -3.575   1.991 -32.191  1.00  0.00    -0.165 NA
HETATM    3  N   UNL     1      -4.820   1.674 -31.787  1.00  0.00    -0.240 N 
HETATM    4  C   UNL     1      -5.497   2.712 -31.214  1.00  0.00     0.123 A 
HETATM    5  N   UNL     1      -6.740   2.565 -30.711  1.00  0.00    -0.366 N 
HETATM    6  C   UNL     1      -7.485   1.319 -30.819  1.00  0.00     0.118 C 
HETATM    7  C   UNL     1      -6.533   0.115 -30.948  1.00  0.00     0.066 C 
HETATM    8  C   UNL     1      -5.336   0.324 -31.897  1.00  0.00     0.221 C 
HETATM    9  C   UNL     1      -4.657   3.790 -31.279  1.00  0.00     0.088 A 
HETATM   10  H   UNL     1      -7.279   3.371 -30.401  1.00  0.00     0.161 HD
ENDROOT
BRANCH   1  11
HETATM   11  C   UNL     1      -2.262   4.094 -32.181  1.00  0.00     0.272 C 
HETATM   12  N   UNL     1      -2.325   4.806 -33.359  1.00  0.00    -0.355 N 
HETATM   13  H   UNL     1      -3.251   4.861 -33.779  1.00  0.00     0.162 HD
HETATM   14  O   UNL     1      -1.297   4.125 -31.422  1.00  0.00    -0.266 OA
BRANCH  12  15
HETATM   15  C   UNL     1      -1.312   5.785 -33.692  1.00  0.00     0.127 C 
BRANCH  15  16
HETATM   16  C   UNL     1      -1.798   7.229 -33.566  1.00  0.00     0.060 C 
BRANCH  16  17
HETATM   17  C   UNL     1      -2.093   7.629 -32.153  1.00  0.00    -0.029 A 
HETATM   18  C   UNL     1      -1.203   7.572 -31.033  1.00  0.00    -0.002 A 
HETATM   19  C   UNL     1       0.137   7.168 -30.862  1.00  0.00     0.014 A 
HETATM   20  C   UNL     1      -1.904   8.035 -29.918  1.00  0.00     0.042 A 
HETATM   21  C   UNL     1       0.722   7.240 -29.592  1.00  0.00     0.001 A 
HETATM   22  C   UNL     1      -0.006   7.707 -28.500  1.00  0.00     0.002 A 
HETATM   23  C   UNL     1      -1.334   8.114 -28.641  1.00  0.00     0.030 A 
HETATM   24  N   UNL     1      -3.169   8.364 -30.343  1.00  0.00    -0.365 N 
HETATM   25  H   UNL     1      -3.896   8.731 -29.745  1.00  0.00     0.165 HD
HETATM   26  C   UNL     1      -3.297   8.121 -31.683  1.00  0.00     0.096 A 
ENDBRANCH  16  17
ENDBRANCH  15  16
ENDBRANCH  12  15
ENDBRANCH   1  11
BRANCH   8  27
HETATM   27  C   UNL     1      -5.635  -0.018 -33.339  1.00  0.00     0.409 C 
HETATM   28  F   UNL     1      -6.652  -0.904 -33.450  1.00  0.00    -0.169 F 
HETATM   29  F   UNL     1      -6.036   1.097 -34.006  1.00  0.00    -0.169 F 
HETATM   30  F   UNL     1      -4.584  -0.522 -34.009  1.00  0.00    -0.169 F 
ENDBRANCH   8  27
BRANCH   6  31
HETATM   31  C   UNL     1      -8.592   1.388 -31.857  1.00  0.00    -0.033 A 
HETATM   32  C   UNL     1      -8.818   2.608 -32.525  1.00  0.00     0.049 A 
HETATM   33  C   UNL     1      -9.795   2.660 -33.498  1.00  0.00     0.105 A 
HETATM   34  C   UNL     1     -10.555   1.564 -33.822  1.00  0.00     0.105 A 
HETATM   35  O   UNL     1     -10.117   3.752 -34.242  1.00  0.00    -0.323 OA
HETATM   36  O   UNL     1     -11.454   1.825 -34.807  1.00  0.00    -0.323 OA
HETATM   37  C   UNL     1     -10.378   0.354 -33.192  1.00  0.00     0.040 A 
HETATM   38  C   UNL     1     -11.158   3.210 -35.081  1.00  0.00     0.352 A 
HETATM   39  C   UNL     1      -9.384   0.268 -32.210  1.00  0.00     0.012 A 
ENDBRANCH   6  31
TORSDOF 6
ENDMDL
MODEL 5
REMARK VINA RESULT:      -9.7      1.697      2.501
REMARK  6 active torsions:
REMARK  status: ('A' for Active; 'I' for Inactive)
REMARK    1  A    between atoms: C_8  and  C_9 
REMARK    2  A    between atoms: C_9  and  C_10 
REMARK    3  A    between atoms: C_10  and  N_11 
REMARK       I    between atoms: N_11  and  C_12 
REMARK    4  A    between atoms: C_12  and  C_13 
REMARK    5  A    between atoms: C_18  and  C_19 
REMARK    6  A    between atoms: C_29  and  C_30 
ROOT
HETATM    1  C   UNL     1      -6.002   4.341 -32.729  1.00  0.00     0.148 A 
HETATM    2  N   UNL     1      -6.462   3.572 -31.717  1.00  0.00    -0.165 NA
HETATM    3  N   UNL     1      -6.838   2.434 -32.330  1.00  0.00    -0.240 N 
HETATM    4  C   UNL     1      -6.675   2.457 -33.686  1.00  0.00     0.123 A 
HETATM    5  N   UNL     1      -7.040   1.420 -34.468  1.00  0.00    -0.366 N 
HETATM    6  C   UNL     1      -7.551   0.171 -33.922  1.00  0.00     0.118 C 
HETATM    7  C   UNL     1      -8.203   0.394 -32.545  1.00  0.00     0.066 C 
HETATM    8  C   UNL     1      -7.428   1.331 -31.597  1.00  0.00     0.221 C 
HETATM    9  C   UNL     1      -6.121   3.673 -33.978  1.00  0.00     0.088 A 
HETATM   10  H   UNL     1      -6.799   1.399 -35.457  1.00  0.00     0.161 HD
ENDROOT
BRANCH   1  11
HETATM   11  C   UNL     1      -5.461   5.694 -32.520  1.00  0.00     0.272 C 
HETATM   12  N   UNL     1      -5.756   6.230 -31.286  1.00  0.00    -0.355 N 
HETATM   13  H   UNL     1      -6.132   5.569 -30.608  1.00  0.00     0.162 HD
HETATM   14  O   UNL     1      -4.789   6.274 -33.367  1.00  0.00    -0.266 OA
BRANCH  12  15
HETATM   15  C   UNL     1      -5.135   7.460 -30.842  1.00  0.00     0.127 C 
BRANCH  15  16
HETATM   16  C   UNL     1      -4.491   7.350 -29.460  1.00  0.00     0.060 C 
BRANCH  16  17
HETATM   17  C   UNL     1      -3.018   7.624 -29.474  1.00  0.00    -0.029 A 
HETATM   18  C   UNL     1      -2.003   6.867 -30.141  1.00  0.00    -0.002 A 
HETATM   19  C   UNL     1      -2.010   5.711 -30.949  1.00  0.00     0.014 A 
HETATM   20  C   UNL     1      -0.779   7.482 -29.874  1.00  0.00     0.042 A 
HETATM   21  C   UNL     1      -0.802   5.216 -31.456  1.00  0.00     0.001 A 
HETATM   22  C   UNL     1       0.402   5.854 -31.170  1.00  0.00     0.002 A 
HETATM   23  C   UNL     1       0.438   7.001 -30.373  1.00  0.00     0.030 A 
HETATM   24  N   UNL     1      -1.039   8.573 -29.079  1.00  0.00    -0.365 N 
HETATM   25  H   UNL     1      -0.335   9.208 -28.733  1.00  0.00     0.165 HD
HETATM   26  C   UNL     1      -2.381   8.667 -28.827  1.00  0.00     0.096 A 
ENDBRANCH  16  17
ENDBRANCH  15  16
ENDBRANCH  12  15
ENDBRANCH   1  11
BRANCH   8  27
HETATM   27  C   UNL     1      -6.385   0.626 -30.761  1.00  0.00     0.409 C 
HETATM   28  F   UNL     1      -6.400   1.042 -29.474  1.00  0.00    -0.169 F 
HETATM   29  F   UNL     1      -6.646  -0.709 -30.726  1.00  0.00    -0.169 F 
HETATM   30  F   UNL     1      -5.130   0.770 -31.220  1.00  0.00    -0.169 F 
ENDBRANCH   8  27
BRANCH   6  31
HETATM   31  C   UNL     1      -6.532  -0.955 -33.986  1.00  0.00    -0.033 A 
HETATM   32  C   UNL     1      -6.981  -2.257 -34.280  1.00  0.00     0.049 A 
HETATM   33  C   UNL     1      -6.051  -3.272 -34.381  1.00  0.00     0.105 A 
HETATM   34  C   UNL     1      -4.709  -3.047 -34.192  1.00  0.00     0.105 A 
HETATM   35  O   UNL     1      -6.322  -4.571 -34.679  1.00  0.00    -0.323 OA
HETATM   36  O   UNL     1      -3.966  -4.175 -34.341  1.00  0.00    -0.323 OA
HETATM   37  C   UNL     1      -4.225  -1.795 -33.894  1.00  0.00     0.040 A 
HETATM   38  C   UNL     1      -4.993  -5.133 -34.667  1.00  0.00     0.352 A 
HETATM   39  C   UNL     1      -5.144  -0.744 -33.800  1.00  0.00     0.012 A 
ENDBRANCH   6  31
TORSDOF 6
ENDMDL
MODEL 6
REMARK VINA RESULT:      -9.7      3.632      9.513
REMARK  6 active torsions:
REMARK  status: ('A' for Active; 'I' for Inactive)
REMARK    1  A    between atoms: C_8  and  C_9 
REMARK    2  A    between atoms: C_9  and  C_10 
REMARK    3  A    between atoms: C_10  and  N_11 
REMARK       I    between atoms: N_11  and  C_12 
REMARK    4  A    between atoms: C_12  and  C_13 
REMARK    5  A    between atoms: C_18  and  C_19 
REMARK    6  A    between atoms: C_29  and  C_30 
ROOT
HETATM    1  C   UNL     1      -7.703   2.424 -31.238  1.00  0.00     0.148 A 
HETATM    2  N   UNL     1      -8.307   3.630 -31.143  1.00  0.00    -0.165 NA
HETATM    3  N   UNL     1      -7.395   4.391 -30.508  1.00  0.00    -0.240 N 
HETATM    4  C   UNL     1      -6.257   3.719 -30.164  1.00  0.00     0.123 A 
HETATM    5  N   UNL     1      -5.255   4.312 -29.483  1.00  0.00    -0.366 N 
HETATM    6  C   UNL     1      -5.271   5.727 -29.143  1.00  0.00     0.118 C 
HETATM    7  C   UNL     1      -6.713   6.259 -29.054  1.00  0.00     0.066 C 
HETATM    8  C   UNL     1      -7.659   5.776 -30.171  1.00  0.00     0.221 C 
HETATM    9  C   UNL     1      -6.416   2.444 -30.634  1.00  0.00     0.088 A 
HETATM   10  H   UNL     1      -4.364   3.837 -29.343  1.00  0.00     0.161 HD
ENDROOT
BRANCH   1  11
HETATM   11  C   UNL     1      -8.335   1.265 -31.888  1.00  0.00     0.272 C 
HETATM   12  N   UNL     1      -8.122   1.200 -33.248  1.00  0.00    -0.355 N 
HETATM   13  H   UNL     1      -7.405   1.832 -33.601  1.00  0.00     0.162 HD
HETATM   14  O   UNL     1      -8.975   0.425 -31.262  1.00  0.00    -0.266 OA
BRANCH  12  15
HETATM   15  C   UNL     1      -8.499   0.025 -34.004  1.00  0.00     0.127 C 
BRANCH  15  16
HETATM   16  C   UNL     1      -7.488  -0.350 -35.088  1.00  0.00     0.060 C 
BRANCH  16  17
HETATM   17  C   UNL     1      -6.262  -1.015 -34.543  1.00  0.00    -0.029 A 
HETATM   18  C   UNL     1      -5.938  -2.409 -34.594  1.00  0.00    -0.002 A 
HETATM   19  C   UNL     1      -6.579  -3.549 -35.121  1.00  0.00     0.014 A 
HETATM   20  C   UNL     1      -4.706  -2.574 -33.957  1.00  0.00     0.042 A 
HETATM   21  C   UNL     1      -5.970  -4.803 -34.993  1.00  0.00     0.001 A 
HETATM   22  C   UNL     1      -4.741  -4.933 -34.352  1.00  0.00     0.002 A 
HETATM   23  C   UNL     1      -4.084  -3.821 -33.821  1.00  0.00     0.030 A 
HETATM   24  N   UNL     1      -4.296  -1.331 -33.540  1.00  0.00    -0.365 N 
HETATM   25  H   UNL     1      -3.431  -1.150 -33.049  1.00  0.00     0.165 HD
HETATM   26  C   UNL     1      -5.224  -0.386 -33.882  1.00  0.00     0.096 A 
ENDBRANCH  16  17
ENDBRANCH  15  16
ENDBRANCH  12  15
ENDBRANCH   1  11
BRANCH   8  27
HETATM   27  C   UNL     1      -7.633   6.642 -31.409  1.00  0.00     0.409 C 
HETATM   28  F   UNL     1      -8.853   6.740 -31.986  1.00  0.00    -0.169 F 
HETATM   29  F   UNL     1      -7.273   7.911 -31.079  1.00  0.00    -0.169 F 
HETATM   30  F   UNL     1      -6.772   6.220 -32.352  1.00  0.00    -0.169 F 
ENDBRANCH   8  27
BRANCH   6  31
HETATM   31  C   UNL     1      -4.325   6.546 -30.007  1.00  0.00    -0.033 A 
HETATM   32  C   UNL     1      -3.628   5.899 -31.047  1.00  0.00     0.049 A 
HETATM   33  C   UNL     1      -2.803   6.651 -31.859  1.00  0.00     0.105 A 
HETATM   34  C   UNL     1      -2.637   8.002 -31.673  1.00  0.00     0.105 A 
HETATM   35  O   UNL     1      -2.083   6.181 -32.912  1.00  0.00    -0.323 OA
HETATM   36  O   UNL     1      -1.789   8.552 -32.580  1.00  0.00    -0.323 OA
HETATM   37  C   UNL     1      -3.289   8.674 -30.666  1.00  0.00     0.040 A 
HETATM   38  C   UNL     1      -1.456   7.395 -33.374  1.00  0.00     0.352 A 
HETATM   39  C   UNL     1      -4.144   7.940 -29.836  1.00  0.00     0.012 A 
ENDBRANCH   6  31
TORSDOF 6
ENDMDL
MODEL 7
REMARK VINA RESULT:      -9.5      4.923      9.101
REMARK  6 active torsions:
REMARK  status: ('A' for Active; 'I' for Inactive)
REMARK    1  A    between atoms: C_8  and  C_9 
REMARK    2  A    between atoms: C_9  and  C_10 
REMARK    3  A    between atoms: C_10  and  N_11 
REMARK       I    between atoms: N_11  and  C_12 
REMARK    4  A    between atoms: C_12  and  C_13 
REMARK    5  A    between atoms: C_18  and  C_19 
REMARK    6  A    between atoms: C_29  and  C_30 
ROOT
HETATM    1  C   UNL     1      -9.723   4.211 -31.073  1.00  0.00     0.148 A 
HETATM    2  N   UNL     1      -8.613   4.603 -31.737  1.00  0.00    -0.165 NA
HETATM    3  N   UNL     1      -7.770   3.565 -31.585  1.00  0.00    -0.240 N 
HETATM    4  C   UNL     1      -8.276   2.548 -30.825  1.00  0.00     0.123 A 
HETATM    5  N   UNL     1      -7.553   1.448 -30.531  1.00  0.00    -0.366 N 
HETATM    6  C   UNL     1      -6.220   1.220 -31.069  1.00  0.00     0.118 C 
HETATM    7  C   UNL     1      -5.530   2.551 -31.420  1.00  0.00     0.066 C 
HETATM    8  C   UNL     1      -6.426   3.588 -32.128  1.00  0.00     0.221 C 
HETATM    9  C   UNL     1      -9.547   2.927 -30.489  1.00  0.00     0.088 A 
HETATM   10  H   UNL     1      -7.983   0.646 -30.072  1.00  0.00     0.161 HD
ENDROOT
BRANCH   1  11
HETATM   11  C   UNL     1     -10.935   5.040 -30.987  1.00  0.00     0.272 C 
HETATM   12  N   UNL     1     -12.063   4.348 -30.603  1.00  0.00    -0.355 N 
HETATM   13  H   UNL     1     -11.889   3.412 -30.239  1.00  0.00     0.162 HD
HETATM   14  O   UNL     1     -10.928   6.246 -31.218  1.00  0.00    -0.266 OA
BRANCH  12  15
HETATM   15  C   UNL     1     -13.288   5.044 -30.275  1.00  0.00     0.127 C 
BRANCH  15  16
HETATM   16  C   UNL     1     -14.359   4.931 -31.360  1.00  0.00     0.060 C 
BRANCH  16  17
HETATM   17  C   UNL     1     -14.355   3.604 -32.054  1.00  0.00    -0.029 A 
HETATM   18  C   UNL     1     -13.630   3.247 -33.236  1.00  0.00    -0.002 A 
HETATM   19  C   UNL     1     -12.743   3.933 -34.090  1.00  0.00     0.014 A 
HETATM   20  C   UNL     1     -13.932   1.915 -33.525  1.00  0.00     0.042 A 
HETATM   21  C   UNL     1     -12.195   3.269 -35.194  1.00  0.00     0.001 A 
HETATM   22  C   UNL     1     -12.518   1.939 -35.454  1.00  0.00     0.002 A 
HETATM   23  C   UNL     1     -13.393   1.235 -34.624  1.00  0.00     0.030 A 
HETATM   24  N   UNL     1     -14.803   1.478 -32.556  1.00  0.00    -0.365 N 
HETATM   25  H   UNL     1     -15.189   0.545 -32.513  1.00  0.00     0.165 HD
HETATM   26  C   UNL     1     -15.069   2.484 -31.668  1.00  0.00     0.096 A 
ENDBRANCH  16  17
ENDBRANCH  15  16
ENDBRANCH  12  15
ENDBRANCH   1  11
BRANCH   8  27
HETATM   27  C   UNL     1      -6.454   3.442 -33.632  1.00  0.00     0.409 C 
HETATM   28  F   UNL     1      -6.338   4.634 -34.260  1.00  0.00    -0.169 F 
HETATM   29  F   UNL     1      -5.394   2.697 -34.045  1.00  0.00    -0.169 F 
HETATM   30  F   UNL     1      -7.563   2.843 -34.101  1.00  0.00    -0.169 F 
ENDBRANCH   8  27
BRANCH   6  31
HETATM   31  C   UNL     1      -6.205   0.169 -32.167  1.00  0.00    -0.033 A 
HETATM   32  C   UNL     1      -5.018  -0.556 -32.393  1.00  0.00     0.049 A 
HETATM   33  C   UNL     1      -5.017  -1.540 -33.360  1.00  0.00     0.105 A 
HETATM   34  C   UNL     1      -6.132  -1.821 -34.111  1.00  0.00     0.105 A 
HETATM   35  O   UNL     1      -3.963  -2.337 -33.680  1.00  0.00    -0.323 OA
HETATM   36  O   UNL     1      -5.921  -2.826 -35.001  1.00  0.00    -0.323 OA
HETATM   37  C   UNL     1      -7.310  -1.134 -33.933  1.00  0.00     0.040 A 
HETATM   38  C   UNL     1      -4.549  -3.161 -34.710  1.00  0.00     0.352 A 
HETATM   39  C   UNL     1      -7.345  -0.140 -32.948  1.00  0.00     0.012 A 
ENDBRANCH   6  31
TORSDOF 6
ENDMDL
MODEL 8
REMARK VINA RESULT:      -9.4      3.062      4.312
REMARK  6 active torsions:
REMARK  status: ('A' for Active; 'I' for Inactive)
REMARK    1  A    between atoms: C_8  and  C_9 
REMARK    2  A    between atoms: C_9  and  C_10 
REMARK    3  A    between atoms: C_10  and  N_11 
REMARK       I    between atoms: N_11  and  C_12 
REMARK    4  A    between atoms: C_12  and  C_13 
REMARK    5  A    between atoms: C_18  and  C_19 
REMARK    6  A    between atoms: C_29  and  C_30 
ROOT
HETATM    1  C   UNL     1      -3.894   3.336 -32.003  1.00  0.00     0.148 A 
HETATM    2  N   UNL     1      -4.083   2.058 -32.401  1.00  0.00    -0.165 NA
HETATM    3  N   UNL     1      -5.377   1.825 -32.112  1.00  0.00    -0.240 N 
HETATM    4  C   UNL     1      -6.009   2.880 -31.517  1.00  0.00     0.123 A 
HETATM    5  N   UNL     1      -7.296   2.810 -31.118  1.00  0.00    -0.366 N 
HETATM    6  C   UNL     1      -8.130   1.644 -31.368  1.00  0.00     0.118 C 
HETATM    7  C   UNL     1      -7.275   0.372 -31.512  1.00  0.00     0.066 C 
HETATM    8  C   UNL     1      -5.994   0.536 -32.355  1.00  0.00     0.221 C 
HETATM    9  C   UNL     1      -5.081   3.883 -31.444  1.00  0.00     0.088 A 
HETATM   10  H   UNL     1      -7.789   3.640 -30.791  1.00  0.00     0.161 HD
ENDROOT
BRANCH   1  11
HETATM   11  C   UNL     1      -2.605   4.032 -32.146  1.00  0.00     0.272 C 
HETATM   12  N   UNL     1      -2.138   4.592 -30.978  1.00  0.00    -0.355 N 
HETATM   13  H   UNL     1      -2.626   4.296 -30.134  1.00  0.00     0.162 HD
HETATM   14  O   UNL     1      -1.997   4.084 -33.212  1.00  0.00    -0.266 OA
BRANCH  12  15
HETATM   15  C   UNL     1      -0.799   5.135 -30.896  1.00  0.00     0.127 C 
BRANCH  15  16
HETATM   16  C   UNL     1      -0.704   6.590 -31.358  1.00  0.00     0.060 C 
BRANCH  16  17
HETATM   17  C   UNL     1      -1.117   7.570 -30.303  1.00  0.00    -0.029 A 
HETATM   18  C   UNL     1      -0.330   8.041 -29.204  1.00  0.00    -0.002 A 
HETATM   19  C   UNL     1       0.983   7.791 -28.756  1.00  0.00     0.014 A 
HETATM   20  C   UNL     1      -1.120   8.934 -28.477  1.00  0.00     0.042 A 
HETATM   21  C   UNL     1       1.455   8.436 -27.607  1.00  0.00     0.001 A 
HETATM   22  C   UNL     1       0.641   9.321 -26.905  1.00  0.00     0.002 A 
HETATM   23  C   UNL     1      -0.664   9.588 -27.326  1.00  0.00     0.030 A 
HETATM   24  N   UNL     1      -2.338   9.005 -29.111  1.00  0.00    -0.365 N 
HETATM   25  H   UNL     1      -3.109   9.582 -28.804  1.00  0.00     0.165 HD
HETATM   26  C   UNL     1      -2.350   8.187 -30.207  1.00  0.00     0.096 A 
ENDBRANCH  16  17
ENDBRANCH  15  16
ENDBRANCH  12  15
ENDBRANCH   1  11
BRANCH   8  27
HETATM   27  C   UNL     1      -6.206   0.315 -33.835  1.00  0.00     0.409 C 
HETATM   28  F   UNL     1      -6.263   1.481 -34.519  1.00  0.00    -0.169 F 
HETATM   29  F   UNL     1      -5.155  -0.372 -34.356  1.00  0.00    -0.169 F 
HETATM   30  F   UNL     1      -7.317  -0.382 -34.129  1.00  0.00    -0.169 F 
ENDBRANCH   8  27
BRANCH   6  31
HETATM   31  C   UNL     1      -9.144   1.878 -32.476  1.00  0.00    -0.033 A 
HETATM   32  C   UNL     1     -10.231   0.990 -32.597  1.00  0.00     0.049 A 
HETATM   33  C   UNL     1     -11.174   1.227 -33.576  1.00  0.00     0.105 A 
HETATM   34  C   UNL     1     -11.075   2.293 -34.437  1.00  0.00     0.105 A 
HETATM   35  O   UNL     1     -12.286   0.478 -33.805  1.00  0.00    -0.323 OA
HETATM   36  O   UNL     1     -12.107   2.348 -35.319  1.00  0.00    -0.323 OA
HETATM   37  C   UNL     1     -10.027   3.181 -34.363  1.00  0.00     0.040 A 
HETATM   38  C   UNL     1     -12.880   1.205 -34.900  1.00  0.00     0.352 A 
HETATM   39  C   UNL     1      -9.063   2.973 -33.370  1.00  0.00     0.012 A 
ENDBRANCH   6  31
TORSDOF 6
ENDMDL
MODEL 9
REMARK VINA RESULT:      -9.4      4.506      8.717
REMARK  6 active torsions:
REMARK  status: ('A' for Active; 'I' for Inactive)
REMARK    1  A    between atoms: C_8  and  C_9 
REMARK    2  A    between atoms: C_9  and  C_10 
REMARK    3  A    between atoms: C_10  and  N_11 
REMARK       I    between atoms: N_11  and  C_12 
REMARK    4  A    between atoms: C_12  and  C_13 
REMARK    5  A    between atoms: C_18  and  C_19 
REMARK    6  A    between atoms: C_29  and  C_30 
ROOT
HETATM    1  C   UNL     1      -8.715   4.023 -32.196  1.00  0.00     0.148 A 
HETATM    2  N   UNL     1      -7.399   4.304 -32.063  1.00  0.00    -0.165 NA
HETATM    3  N   UNL     1      -6.877   3.156 -31.591  1.00  0.00    -0.240 N 
HETATM    4  C   UNL     1      -7.801   2.172 -31.383  1.00  0.00     0.123 A 
HETATM    5  N   UNL     1      -7.464   0.970 -30.871  1.00  0.00    -0.366 N 
HETATM    6  C   UNL     1      -6.085   0.601 -30.586  1.00  0.00     0.118 C 
HETATM    7  C   UNL     1      -5.222   1.847 -30.318  1.00  0.00     0.066 C 
HETATM    8  C   UNL     1      -5.468   3.033 -31.273  1.00  0.00     0.221 C 
HETATM    9  C   UNL     1      -9.002   2.695 -31.779  1.00  0.00     0.088 A 
HETATM   10  H   UNL     1      -8.137   0.207 -30.839  1.00  0.00     0.161 HD
ENDROOT
BRANCH   1  11
HETATM   11  C   UNL     1      -9.689   4.998 -32.708  1.00  0.00     0.272 C 
HETATM   12  N   UNL     1      -9.743   5.070 -34.082  1.00  0.00    -0.355 N 
HETATM   13  H   UNL     1      -9.259   4.318 -34.571  1.00  0.00     0.162 HD
HETATM   14  O   UNL     1     -10.404   5.669 -31.967  1.00  0.00    -0.266 OA
BRANCH  12  15
HETATM   15  C   UNL     1     -10.782   5.826 -34.749  1.00  0.00     0.127 C 
BRANCH  15  16
HETATM   16  C   UNL     1     -11.836   4.946 -35.421  1.00  0.00     0.060 C 
BRANCH  16  17
HETATM   17  C   UNL     1     -12.807   4.346 -34.450  1.00  0.00    -0.029 A 
HETATM   18  C   UNL     1     -13.128   2.960 -34.293  1.00  0.00    -0.002 A 
HETATM   19  C   UNL     1     -12.697   1.773 -34.919  1.00  0.00     0.014 A 
HETATM   20  C   UNL     1     -14.084   2.866 -33.279  1.00  0.00     0.042 A 
HETATM   21  C   UNL     1     -13.232   0.545 -34.514  1.00  0.00     0.001 A 
HETATM   22  C   UNL     1     -14.185   0.486 -33.500  1.00  0.00     0.002 A 
HETATM   23  C   UNL     1     -14.630   1.646 -32.861  1.00  0.00     0.030 A 
HETATM   24  N   UNL     1     -14.331   4.143 -32.836  1.00  0.00    -0.365 N 
HETATM   25  H   UNL     1     -14.982   4.376 -32.099  1.00  0.00     0.165 HD
HETATM   26  C   UNL     1     -13.573   5.042 -33.534  1.00  0.00     0.096 A 
ENDBRANCH  16  17
ENDBRANCH  15  16
ENDBRANCH  12  15
ENDBRANCH   1  11
BRANCH   8  27
HETATM   27  C   UNL     1      -4.637   2.981 -32.534  1.00  0.00     0.409 C 
HETATM   28  F   UNL     1      -3.472   2.318 -32.348  1.00  0.00    -0.169 F 
HETATM   29  F   UNL     1      -5.306   2.298 -33.501  1.00  0.00    -0.169 F 
HETATM   30  F   UNL     1      -4.339   4.190 -33.041  1.00  0.00    -0.169 F 
ENDBRANCH   8  27
BRANCH   6  31
HETATM   31  C   UNL     1      -5.520  -0.377 -31.603  1.00  0.00    -0.033 A 
HETATM   32  C   UNL     1      -6.360  -0.842 -32.634  1.00  0.00     0.049 A 
HETATM   33  C   UNL     1      -5.835  -1.695 -33.583  1.00  0.00     0.105 A 
HETATM   34  C   UNL     1      -4.526  -2.110 -33.542  1.00  0.00     0.105 A 
HETATM   35  O   UNL     1      -6.508  -2.211 -34.646  1.00  0.00    -0.323 OA
HETATM   36  O   UNL     1      -4.210  -2.941 -34.568  1.00  0.00    -0.323 OA
HETATM   37  C   UNL     1      -3.671  -1.690 -32.550  1.00  0.00     0.040 A 
HETATM   38  C   UNL     1      -5.467  -2.987 -35.275  1.00  0.00     0.352 A 
HETATM   39  C   UNL     1      -4.172  -0.812 -31.582  1.00  0.00     0.012 A 
ENDBRANCH   6  31
TORSDOF 6
ENDMDL
MODEL 10
REMARK VINA RESULT:      -9.3      2.202      3.227
REMARK  6 active torsions:
REMARK  status: ('A' for Active; 'I' for Inactive)
REMARK    1  A    between atoms: C_8  and  C_9 
REMARK    2  A    between atoms: C_9  and  C_10 
REMARK    3  A    between atoms: C_10  and  N_11 
REMARK       I    between atoms: N_11  and  C_12 
REMARK    4  A    between atoms: C_12  and  C_13 
REMARK    5  A    between atoms: C_18  and  C_19 
REMARK    6  A    between atoms: C_29  and  C_30 
ROOT
HETATM    1  C   UNL     1      -5.718   5.574 -29.329  1.00  0.00     0.148 A 
HETATM    2  N   UNL     1      -6.952   5.127 -29.655  1.00  0.00    -0.165 NA
HETATM    3  N   UNL     1      -6.770   4.545 -30.855  1.00  0.00    -0.240 N 
HETATM    4  C   UNL     1      -5.490   4.632 -31.324  1.00  0.00     0.123 A 
HETATM    5  N   UNL     1      -5.135   4.143 -32.531  1.00  0.00    -0.366 N 
HETATM    6  C   UNL     1      -6.063   3.411 -33.381  1.00  0.00     0.118 C 
HETATM    7  C   UNL     1      -7.519   3.812 -33.085  1.00  0.00     0.066 C 
HETATM    8  C   UNL     1      -7.870   3.952 -31.590  1.00  0.00     0.221 C 
HETATM    9  C   UNL     1      -4.777   5.281 -30.353  1.00  0.00     0.088 A 
HETATM   10  H   UNL     1      -4.158   4.104 -32.813  1.00  0.00     0.161 HD
ENDROOT
BRANCH   1  11
HETATM   11  C   UNL     1      -5.432   6.274 -28.067  1.00  0.00     0.272 C 
HETATM   12  N   UNL     1      -4.105   6.246 -27.698  1.00  0.00    -0.355 N 
HETATM   13  H   UNL     1      -3.465   5.926 -28.423  1.00  0.00     0.162 HD
HETATM   14  O   UNL     1      -6.303   6.849 -27.419  1.00  0.00    -0.266 OA
BRANCH  12  15
HETATM   15  C   UNL     1      -3.621   7.051 -26.597  1.00  0.00     0.127 C 
BRANCH  15  16
HETATM   16  C   UNL     1      -2.364   7.852 -26.937  1.00  0.00     0.060 C 
BRANCH  16  17
HETATM   17  C   UNL     1      -1.349   7.057 -27.700  1.00  0.00    -0.029 A 
HETATM   18  C   UNL     1      -1.116   7.079 -29.113  1.00  0.00    -0.002 A 
HETATM   19  C   UNL     1      -1.687   7.783 -30.193  1.00  0.00     0.014 A 
HETATM   20  C   UNL     1      -0.085   6.177 -29.380  1.00  0.00     0.042 A 
HETATM   21  C   UNL     1      -1.211   7.560 -31.490  1.00  0.00     0.001 A 
HETATM   22  C   UNL     1      -0.181   6.652 -31.722  1.00  0.00     0.002 A 
HETATM   23  C   UNL     1       0.403   5.941 -30.671  1.00  0.00     0.030 A 
HETATM   24  N   UNL     1       0.296   5.630 -28.178  1.00  0.00    -0.365 N 
HETATM   25  H   UNL     1       1.029   4.943 -28.069  1.00  0.00     0.165 HD
HETATM   26  C   UNL     1      -0.459   6.147 -27.161  1.00  0.00     0.096 A 
ENDBRANCH  16  17
ENDBRANCH  15  16
ENDBRANCH  12  15
ENDBRANCH   1  11
BRANCH   8  27
HETATM   27  C   UNL     1      -8.310   2.658 -30.944  1.00  0.00     0.409 C 
HETATM   28  F   UNL     1      -7.319   2.092 -30.216  1.00  0.00    -0.169 F 
HETATM   29  F   UNL     1      -9.324   2.898 -30.071  1.00  0.00    -0.169 F 
HETATM   30  F   UNL     1      -8.750   1.735 -31.817  1.00  0.00    -0.169 F 
ENDBRANCH   8  27
BRANCH   6  31
HETATM   31  C   UNL     1      -5.787   1.917 -33.395  1.00  0.00    -0.033 A 
HETATM   32  C   UNL     1      -6.536   1.099 -34.264  1.00  0.00     0.049 A 
HETATM   33  C   UNL     1      -6.256  -0.252 -34.308  1.00  0.00     0.105 A 
HETATM   34  C   UNL     1      -5.282  -0.817 -33.523  1.00  0.00     0.105 A 
HETATM   35  O   UNL     1      -6.873  -1.165 -35.105  1.00  0.00    -0.323 OA
HETATM   36  O   UNL     1      -5.163  -2.156 -33.722  1.00  0.00    -0.323 OA
HETATM   37  C   UNL     1      -4.531  -0.061 -32.653  1.00  0.00     0.040 A 
HETATM   38  C   UNL     1      -6.163  -2.366 -34.740  1.00  0.00     0.352 A 
HETATM   39  C   UNL     1      -4.783   1.315 -32.598  1.00  0.00     0.012 A 
ENDBRANCH   6  31
TORSDOF 6
ENDMDL
