MODEL 1
REMARK VINA RESULT:      -9.4      0.000      0.000
REMARK  7 active torsions:
REMARK  status: ('A' for Active; 'I' for Inactive)
REMARK    1  A    between atoms: S_2  and  C_3 
REMARK    2  A    between atoms: C_6  and  C_7 
REMARK    3  A    between atoms: N_8  and  C_9 
REMARK    4  A    between atoms: C_9  and  C_10 
REMARK    5  A    between atoms: C_10  and  C_11 
REMARK    6  A    between atoms: C_24  and  C_25 
REMARK    7  A    between atoms: C_26  and  O_27 
ROOT
HETATM    1  C   UNL     1      -7.243   1.955 -32.991  1.00  0.00     0.159 A 
HETATM    2  N   UNL     1      -6.316   0.804 -33.122  1.00  0.00    -0.333 N 
HETATM    3  C   UNL     1      -5.761   0.378 -31.901  1.00  0.00     0.275 A 
HETATM    4  O   UNL     1      -5.005  -0.562 -31.717  1.00  0.00    -0.266 OA
HETATM    5  C   UNL     1      -6.324   1.280 -30.920  1.00  0.00     0.155 A 
HETATM    6  C   UNL     1      -7.198   2.183 -31.528  1.00  0.00     0.034 A 
HETATM    7  N   UNL     1      -6.267   1.412 -29.597  1.00  0.00    -0.168 NA
HETATM    8  N   UNL     1      -7.117   2.446 -29.374  1.00  0.00    -0.276 N 
HETATM    9  H   UNL     1      -7.254   2.763 -28.419  1.00  0.00     0.189 HD
HETATM   10  C   UNL     1      -7.753   2.918 -30.511  1.00  0.00     0.074 A 
ENDROOT
BRANCH   1  11
HETATM   11  C   UNL     1      -8.685   1.687 -33.347  1.00  0.00    -0.031 A 
HETATM   12  C   UNL     1      -9.401   0.584 -32.853  1.00  0.00     0.011 A 
HETATM   13  C   UNL     1     -10.751   0.410 -33.171  1.00  0.00     0.019 A 
HETATM   14  C   UNL     1     -11.412   1.337 -33.980  1.00  0.00    -0.000 A 
HETATM   15  C   UNL     1     -10.704   2.421 -34.498  1.00  0.00     0.019 A 
HETATM   16  C   UNL     1      -9.355   2.596 -34.183  1.00  0.00     0.011 A 
BRANCH  14  17
HETATM   17  S   UNL     1     -13.142   1.120 -34.344  1.00  0.00    -0.134 SA
HETATM   18  C   UNL     1     -13.389  -0.502 -33.574  1.00  0.00     0.095 C 
ENDBRANCH  14  17
ENDBRANCH   1  11
BRANCH   2  19
HETATM   19  C   UNL     1      -6.110   0.060 -34.357  1.00  0.00     0.132 C 
BRANCH  19  20
HETATM   20  C   UNL     1      -6.954  -1.209 -34.536  1.00  0.00     0.058 C 
BRANCH  20  21
HETATM   21  C   UNL     1      -6.227  -2.534 -34.524  1.00  0.00    -0.057 A 
HETATM   22  C   UNL     1      -6.837  -3.739 -34.898  1.00  0.00     0.007 A 
HETATM   23  C   UNL     1      -6.116  -4.934 -34.889  1.00  0.00     0.001 A 
HETATM   24  C   UNL     1      -4.772  -4.940 -34.520  1.00  0.00     0.000 A 
HETATM   25  C   UNL     1      -4.146  -3.749 -34.166  1.00  0.00     0.001 A 
HETATM   26  C   UNL     1      -4.867  -2.554 -34.172  1.00  0.00     0.007 A 
ENDBRANCH  20  21
ENDBRANCH  19  20
ENDBRANCH   2  19
BRANCH  10  27
HETATM   27  C   UNL     1      -8.785   3.943 -30.486  1.00  0.00     0.026 A 
HETATM   28  C   UNL     1      -8.489   5.281 -30.181  1.00  0.00     0.078 A 
HETATM   29  C   UNL     1      -9.477   6.262 -30.207  1.00  0.00     0.037 A 
HETATM   30  C   UNL     1     -10.791   5.911 -30.509  1.00  0.00     0.003 A 
HETATM   31  C   UNL     1     -11.110   4.583 -30.789  1.00  0.00     0.001 A 
HETATM   32  C   UNL     1     -10.112   3.604 -30.781  1.00  0.00     0.016 A 
BRANCH  28  33
HETATM   33  O   UNL     1      -7.233   5.686 -29.816  1.00  0.00    -0.360 OA
HETATM   34  H   UNL     1      -6.688   4.885 -29.710  1.00  0.00     0.217 HD
ENDBRANCH  28  33
ENDBRANCH  10  27
TORSDOF 7
ENDMDL
MODEL 2
REMARK VINA RESULT:      -8.9      3.919      5.616
REMARK  7 active torsions:
REMARK  status: ('A' for Active; 'I' for Inactive)
REMARK    1  A    between atoms: S_2  and  C_3 
REMARK    2  A    between atoms: C_6  and  C_7 
REMARK    3  A    between atoms: N_8  and  C_9 
REMARK    4  A    between atoms: C_9  and  C_10 
REMARK    5  A    between atoms: C_10  and  C_11 
REMARK    6  A    between atoms: C_24  and  C_25 
REMARK    7  A    between atoms: C_26  and  O_27 
ROOT
HETATM    1  C   UNL     1      -4.894   2.371 -30.601  1.00  0.00     0.159 A 
HETATM    2  N   UNL     1      -5.649   1.197 -31.105  1.00  0.00    -0.333 N 
HETATM    3  C   UNL     1      -7.044   1.313 -30.960  1.00  0.00     0.275 A 
HETATM    4  O   UNL     1      -7.896   0.517 -31.321  1.00  0.00    -0.266 OA
HETATM    5  C   UNL     1      -7.231   2.600 -30.327  1.00  0.00     0.155 A 
HETATM    6  C   UNL     1      -6.003   3.235 -30.133  1.00  0.00     0.034 A 
HETATM    7  N   UNL     1      -8.271   3.343 -29.958  1.00  0.00    -0.168 NA
HETATM    8  N   UNL     1      -7.671   4.469 -29.496  1.00  0.00    -0.276 N 
HETATM    9  H   UNL     1      -8.256   5.217 -29.136  1.00  0.00     0.189 HD
HETATM   10  C   UNL     1      -6.292   4.478 -29.630  1.00  0.00     0.074 A 
ENDROOT
BRANCH   1  11
HETATM   11  C   UNL     1      -4.132   3.161 -31.637  1.00  0.00    -0.031 A 
HETATM   12  C   UNL     1      -4.716   3.619 -32.830  1.00  0.00     0.011 A 
HETATM   13  C   UNL     1      -3.981   4.394 -33.732  1.00  0.00     0.019 A 
HETATM   14  C   UNL     1      -2.654   4.730 -33.457  1.00  0.00    -0.000 A 
HETATM   15  C   UNL     1      -2.056   4.259 -32.289  1.00  0.00     0.019 A 
HETATM   16  C   UNL     1      -2.787   3.484 -31.386  1.00  0.00     0.011 A 
BRANCH  14  17
HETATM   17  S   UNL     1      -1.744   5.749 -34.600  1.00  0.00    -0.134 SA
HETATM   18  C   UNL     1      -1.822   7.320 -33.699  1.00  0.00     0.095 C 
ENDBRANCH  14  17
ENDBRANCH   1  11
BRANCH   2  19
HETATM   19  C   UNL     1      -5.044   0.091 -31.834  1.00  0.00     0.132 C 
BRANCH  19  20
HETATM   20  C   UNL     1      -5.491  -0.088 -33.291  1.00  0.00     0.058 C 
BRANCH  20  21
HETATM   21  C   UNL     1      -5.516  -1.495 -33.841  1.00  0.00    -0.057 A 
HETATM   22  C   UNL     1      -4.387  -2.325 -33.856  1.00  0.00     0.007 A 
HETATM   23  C   UNL     1      -4.467  -3.626 -34.358  1.00  0.00     0.001 A 
HETATM   24  C   UNL     1      -5.679  -4.119 -34.838  1.00  0.00     0.000 A 
HETATM   25  C   UNL     1      -6.814  -3.315 -34.811  1.00  0.00     0.001 A 
HETATM   26  C   UNL     1      -6.734  -2.014 -34.312  1.00  0.00     0.007 A 
ENDBRANCH  20  21
ENDBRANCH  19  20
ENDBRANCH   2  19
BRANCH  10  27
HETATM   27  C   UNL     1      -5.462   5.627 -29.305  1.00  0.00     0.026 A 
HETATM   28  C   UNL     1      -5.202   5.998 -27.976  1.00  0.00     0.078 A 
HETATM   29  C   UNL     1      -4.367   7.071 -27.677  1.00  0.00     0.037 A 
HETATM   30  C   UNL     1      -3.801   7.814 -28.710  1.00  0.00     0.003 A 
HETATM   31  C   UNL     1      -4.067   7.478 -30.037  1.00  0.00     0.001 A 
HETATM   32  C   UNL     1      -4.890   6.388 -30.334  1.00  0.00     0.016 A 
BRANCH  28  33
HETATM   33  O   UNL     1      -5.773   5.351 -26.913  1.00  0.00    -0.360 OA
HETATM   34  H   UNL     1      -6.621   4.980 -27.219  1.00  0.00     0.217 HD
ENDBRANCH  28  33
ENDBRANCH  10  27
TORSDOF 7
ENDMDL
MODEL 3
REMARK VINA RESULT:      -8.8      3.924      6.382
REMARK  7 active torsions:
REMARK  status: ('A' for Active; 'I' for Inactive)
REMARK    1  A    between atoms: S_2  and  C_3 
REMARK    2  A    between atoms: C_6  and  C_7 
REMARK    3  A    between atoms: N_8  and  C_9 
REMARK    4  A    between atoms: C_9  and  C_10 
REMARK    5  A    between atoms: C_10  and  C_11 
REMARK    6  A    between atoms: C_24  and  C_25 
REMARK    7  A    between atoms: C_26  and  O_27 
ROOT
HETATM    1  C   UNL     1      -6.363   2.860 -32.984  1.00  0.00     0.159 A 
HETATM    2  N   UNL     1      -5.147   3.383 -32.313  1.00  0.00    -0.333 N 
HETATM    3  C   UNL     1      -5.354   3.757 -30.973  1.00  0.00     0.275 A 
HETATM    4  O   UNL     1      -4.524   4.180 -30.184  1.00  0.00    -0.266 OA
HETATM    5  C   UNL     1      -6.756   3.489 -30.740  1.00  0.00     0.155 A 
HETATM    6  C   UNL     1      -7.349   2.950 -31.883  1.00  0.00     0.034 A 
HETATM    7  N   UNL     1      -7.585   3.563 -29.702  1.00  0.00    -0.168 NA
HETATM    8  N   UNL     1      -8.740   3.075 -30.221  1.00  0.00    -0.276 N 
HETATM    9  H   UNL     1      -9.559   3.029 -29.621  1.00  0.00     0.189 HD
HETATM   10  C   UNL     1      -8.637   2.636 -31.531  1.00  0.00     0.074 A 
ENDROOT
BRANCH   1  11
HETATM   11  C   UNL     1      -6.313   1.412 -33.407  1.00  0.00    -0.031 A 
HETATM   12  C   UNL     1      -5.827   0.389 -32.576  1.00  0.00     0.011 A 
HETATM   13  C   UNL     1      -5.852  -0.944 -32.996  1.00  0.00     0.019 A 
HETATM   14  C   UNL     1      -6.369  -1.280 -34.249  1.00  0.00    -0.000 A 
HETATM   15  C   UNL     1      -6.829  -0.271 -35.094  1.00  0.00     0.019 A 
HETATM   16  C   UNL     1      -6.804   1.062 -34.678  1.00  0.00     0.011 A 
BRANCH  14  17
HETATM   17  S   UNL     1      -6.428  -2.988 -34.753  1.00  0.00    -0.134 SA
HETATM   18  C   UNL     1      -4.683  -3.413 -34.508  1.00  0.00     0.095 C 
ENDBRANCH  14  17
ENDBRANCH   1  11
BRANCH   2  19
HETATM   19  C   UNL     1      -3.817   3.366 -32.907  1.00  0.00     0.132 C 
BRANCH  19  20
HETATM   20  C   UNL     1      -3.339   4.677 -33.543  1.00  0.00     0.058 C 
BRANCH  20  21
HETATM   21  C   UNL     1      -2.215   5.414 -32.851  1.00  0.00    -0.057 A 
HETATM   22  C   UNL     1      -1.416   4.826 -31.861  1.00  0.00     0.007 A 
HETATM   23  C   UNL     1      -0.377   5.543 -31.265  1.00  0.00     0.001 A 
HETATM   24  C   UNL     1      -0.112   6.853 -31.662  1.00  0.00     0.000 A 
HETATM   25  C   UNL     1      -0.882   7.444 -32.658  1.00  0.00     0.001 A 
HETATM   26  C   UNL     1      -1.923   6.729 -33.252  1.00  0.00     0.007 A 
ENDBRANCH  20  21
ENDBRANCH  19  20
ENDBRANCH   2  19
BRANCH  10  27
HETATM   27  C   UNL     1      -9.721   1.975 -32.243  1.00  0.00     0.026 A 
HETATM   28  C   UNL     1     -10.799   2.696 -32.779  1.00  0.00     0.078 A 
HETATM   29  C   UNL     1     -11.805   2.059 -33.501  1.00  0.00     0.037 A 
HETATM   30  C   UNL     1     -11.764   0.676 -33.668  1.00  0.00     0.003 A 
HETATM   31  C   UNL     1     -10.715  -0.061 -33.121  1.00  0.00     0.001 A 
HETATM   32  C   UNL     1      -9.696   0.585 -32.414  1.00  0.00     0.016 A 
BRANCH  28  33
HETATM   33  O   UNL     1     -10.935   4.047 -32.601  1.00  0.00    -0.360 OA
HETATM   34  H   UNL     1     -10.804   4.230 -31.652  1.00  0.00     0.217 HD
ENDBRANCH  28  33
ENDBRANCH  10  27
TORSDOF 7
ENDMDL
MODEL 4
REMARK VINA RESULT:      -8.6      1.556      6.735
REMARK  7 active torsions:
REMARK  status: ('A' for Active; 'I' for Inactive)
REMARK    1  A    between atoms: S_2  and  C_3 
REMARK    2  A    between atoms: C_6  and  C_7 
REMARK    3  A    between atoms: N_8  and  C_9 
REMARK    4  A    between atoms: C_9  and  C_10 
REMARK    5  A    between atoms: C_10  and  C_11 
REMARK    6  A    between atoms: C_24  and  C_25 
REMARK    7  A    between atoms: C_26  and  O_27 
ROOT
HETATM    1  C   UNL     1      -6.785   1.744 -30.849  1.00  0.00     0.159 A 
HETATM    2  N   UNL     1      -6.617   3.032 -30.132  1.00  0.00    -0.333 N 
HETATM    3  C   UNL     1      -5.401   3.684 -30.411  1.00  0.00     0.275 A 
HETATM    4  O   UNL     1      -5.025   4.766 -29.989  1.00  0.00    -0.266 OA
HETATM    5  C   UNL     1      -4.725   2.799 -31.335  1.00  0.00     0.155 A 
HETATM    6  C   UNL     1      -5.520   1.686 -31.617  1.00  0.00     0.034 A 
HETATM    7  N   UNL     1      -3.587   2.821 -32.023  1.00  0.00    -0.168 NA
HETATM    8  N   UNL     1      -3.662   1.672 -32.741  1.00  0.00    -0.276 N 
HETATM    9  H   UNL     1      -2.892   1.437 -33.361  1.00  0.00     0.189 HD
HETATM   10  C   UNL     1      -4.844   0.969 -32.572  1.00  0.00     0.074 A 
ENDROOT
BRANCH   1  11
HETATM   11  C   UNL     1      -7.908   1.691 -31.856  1.00  0.00    -0.031 A 
HETATM   12  C   UNL     1      -8.946   0.745 -31.795  1.00  0.00     0.011 A 
HETATM   13  C   UNL     1      -9.992   0.772 -32.721  1.00  0.00     0.019 A 
HETATM   14  C   UNL     1     -10.024   1.746 -33.721  1.00  0.00    -0.000 A 
HETATM   15  C   UNL     1      -8.986   2.674 -33.809  1.00  0.00     0.019 A 
HETATM   16  C   UNL     1      -7.940   2.648 -32.885  1.00  0.00     0.011 A 
BRANCH  14  17
HETATM   17  S   UNL     1     -11.384   1.789 -34.871  1.00  0.00    -0.134 SA
HETATM   18  C   UNL     1     -12.656   1.025 -33.830  1.00  0.00     0.095 C 
ENDBRANCH  14  17
ENDBRANCH   1  11
BRANCH   2  19
HETATM   19  C   UNL     1      -7.661   3.667 -29.340  1.00  0.00     0.132 C 
BRANCH  19  20
HETATM   20  C   UNL     1      -8.240   4.973 -29.900  1.00  0.00     0.058 C 
BRANCH  20  21
HETATM   21  C   UNL     1      -9.492   4.873 -30.740  1.00  0.00    -0.057 A 
HETATM   22  C   UNL     1     -10.517   3.956 -30.470  1.00  0.00     0.007 A 
HETATM   23  C   UNL     1     -11.664   3.917 -31.266  1.00  0.00     0.001 A 
HETATM   24  C   UNL     1     -11.809   4.803 -32.331  1.00  0.00     0.000 A 
HETATM   25  C   UNL     1     -10.811   5.734 -32.599  1.00  0.00     0.001 A 
HETATM   26  C   UNL     1      -9.662   5.772 -31.807  1.00  0.00     0.007 A 
ENDBRANCH  20  21
ENDBRANCH  19  20
ENDBRANCH   2  19
BRANCH  10  27
HETATM   27  C   UNL     1      -5.181  -0.227 -33.329  1.00  0.00     0.026 A 
HETATM   28  C   UNL     1      -4.416  -1.400 -33.233  1.00  0.00     0.078 A 
HETATM   29  C   UNL     1      -4.776  -2.554 -33.925  1.00  0.00     0.037 A 
HETATM   30  C   UNL     1      -5.896  -2.541 -34.754  1.00  0.00     0.003 A 
HETATM   31  C   UNL     1      -6.653  -1.377 -34.882  1.00  0.00     0.001 A 
HETATM   32  C   UNL     1      -6.300  -0.227 -34.171  1.00  0.00     0.016 A 
BRANCH  28  33
HETATM   33  O   UNL     1      -3.271  -1.466 -32.486  1.00  0.00    -0.360 OA
HETATM   34  H   UNL     1      -2.535  -1.653 -33.097  1.00  0.00     0.217 HD
ENDBRANCH  28  33
ENDBRANCH  10  27
TORSDOF 7
ENDMDL
MODEL 5
REMARK VINA RESULT:      -8.6      4.133      6.042
REMARK  7 active torsions:
REMARK  status: ('A' for Active; 'I' for Inactive)
REMARK    1  A    between atoms: S_2  and  C_3 
REMARK    2  A    between atoms: C_6  and  C_7 
REMARK    3  A    between atoms: N_8  and  C_9 
REMARK    4  A    between atoms: C_9  and  C_10 
REMARK    5  A    between atoms: C_10  and  C_11 
REMARK    6  A    between atoms: C_24  and  C_25 
REMARK    7  A    between atoms: C_26  and  O_27 
ROOT
HETATM    1  C   UNL     1      -5.973   3.258 -30.255  1.00  0.00     0.159 A 
HETATM    2  N   UNL     1      -7.232   2.578 -30.647  1.00  0.00    -0.333 N 
HETATM    3  C   UNL     1      -8.395   3.277 -30.276  1.00  0.00     0.275 A 
HETATM    4  O   UNL     1      -9.553   2.966 -30.506  1.00  0.00    -0.266 OA
HETATM    5  C   UNL     1      -7.902   4.459 -29.603  1.00  0.00     0.155 A 
HETATM    6  C   UNL     1      -6.506   4.475 -29.601  1.00  0.00     0.034 A 
HETATM    7  N   UNL     1      -8.441   5.546 -29.059  1.00  0.00    -0.168 NA
HETATM    8  N   UNL     1      -7.346   6.255 -28.684  1.00  0.00    -0.276 N 
HETATM    9  H   UNL     1      -7.482   7.149 -28.223  1.00  0.00     0.189 HD
HETATM   10  C   UNL     1      -6.140   5.673 -29.040  1.00  0.00     0.074 A 
ENDROOT
BRANCH   1  11
HETATM   11  C   UNL     1      -5.092   3.722 -31.389  1.00  0.00    -0.031 A 
HETATM   12  C   UNL     1      -5.562   4.522 -32.444  1.00  0.00     0.011 A 
HETATM   13  C   UNL     1      -4.692   4.970 -33.443  1.00  0.00     0.019 A 
HETATM   14  C   UNL     1      -3.338   4.634 -33.402  1.00  0.00    -0.000 A 
HETATM   15  C   UNL     1      -2.864   3.818 -32.375  1.00  0.00     0.019 A 
HETATM   16  C   UNL     1      -3.731   3.368 -31.377  1.00  0.00     0.011 A 
BRANCH  14  17
HETATM   17  S   UNL     1      -2.236   5.244 -34.662  1.00  0.00    -0.134 SA
HETATM   18  C   UNL     1      -1.921   6.895 -33.984  1.00  0.00     0.095 C 
ENDBRANCH  14  17
ENDBRANCH   1  11
BRANCH   2  19
HETATM   19  C   UNL     1      -7.289   1.386 -31.481  1.00  0.00     0.132 C 
BRANCH  19  20
HETATM   20  C   UNL     1      -6.201   0.332 -31.239  1.00  0.00     0.058 C 
BRANCH  20  21
HETATM   21  C   UNL     1      -5.869  -0.599 -32.383  1.00  0.00    -0.057 A 
HETATM   22  C   UNL     1      -4.616  -1.212 -32.524  1.00  0.00     0.007 A 
HETATM   23  C   UNL     1      -4.366  -2.080 -33.589  1.00  0.00     0.001 A 
HETATM   24  C   UNL     1      -5.367  -2.358 -34.518  1.00  0.00     0.000 A 
HETATM   25  C   UNL     1      -6.621  -1.774 -34.380  1.00  0.00     0.001 A 
HETATM   26  C   UNL     1      -6.872  -0.903 -33.318  1.00  0.00     0.007 A 
ENDBRANCH  20  21
ENDBRANCH  19  20
ENDBRANCH   2  19
BRANCH  10  27
HETATM   27  C   UNL     1      -4.850   6.313 -28.837  1.00  0.00     0.026 A 
HETATM   28  C   UNL     1      -4.356   6.587 -27.552  1.00  0.00     0.078 A 
HETATM   29  C   UNL     1      -3.098   7.156 -27.369  1.00  0.00     0.037 A 
HETATM   30  C   UNL     1      -2.324   7.492 -28.478  1.00  0.00     0.003 A 
HETATM   31  C   UNL     1      -2.809   7.251 -29.763  1.00  0.00     0.001 A 
HETATM   32  C   UNL     1      -4.063   6.661 -29.943  1.00  0.00     0.016 A 
BRANCH  28  33
HETATM   33  O   UNL     1      -5.087   6.340 -26.421  1.00  0.00    -0.360 OA
HETATM   34  H   UNL     1      -5.845   6.952 -26.425  1.00  0.00     0.217 HD
ENDBRANCH  28  33
ENDBRANCH  10  27
TORSDOF 7
ENDMDL
MODEL 6
REMARK VINA RESULT:      -8.5     15.608     17.436
REMARK  7 active torsions:
REMARK  status: ('A' for Active; 'I' for Inactive)
REMARK    1  A    between atoms: S_2  and  C_3 
REMARK    2  A    between atoms: C_6  and  C_7 
REMARK    3  A    between atoms: N_8  and  C_9 
REMARK    4  A    between atoms: C_9  and  C_10 
REMARK    5  A    between atoms: C_10  and  C_11 
REMARK    6  A    between atoms: C_24  and  C_25 
REMARK    7  A    between atoms: C_26  and  O_27 
ROOT
HETATM    1  C   UNL     1      -5.245 -12.645 -38.488  1.00  0.00     0.159 A 
HETATM    2  N   UNL     1      -4.088 -12.761 -37.566  1.00  0.00    -0.333 N 
HETATM    3  C   UNL     1      -4.418 -13.288 -36.303  1.00  0.00     0.275 A 
HETATM    4  O   UNL     1      -3.660 -13.522 -35.376  1.00  0.00    -0.266 OA
HETATM    5  C   UNL     1      -5.844 -13.521 -36.376  1.00  0.00     0.155 A 
HETATM    6  C   UNL     1      -6.334 -13.178 -37.637  1.00  0.00     0.034 A 
HETATM    7  N   UNL     1      -6.771 -14.040 -35.575  1.00  0.00    -0.168 NA
HETATM    8  N   UNL     1      -7.881 -13.997 -36.353  1.00  0.00    -0.276 N 
HETATM    9  H   UNL     1      -8.757 -14.337 -35.967  1.00  0.00     0.189 HD
HETATM   10  C   UNL     1      -7.660 -13.531 -37.639  1.00  0.00     0.074 A 
ENDROOT
BRANCH   1  11
HETATM   11  C   UNL     1      -5.194 -13.511 -39.723  1.00  0.00    -0.031 A 
HETATM   12  C   UNL     1      -5.163 -14.915 -39.672  1.00  0.00     0.011 A 
HETATM   13  C   UNL     1      -5.170 -15.672 -40.847  1.00  0.00     0.019 A 
HETATM   14  C   UNL     1      -5.217 -15.043 -42.093  1.00  0.00    -0.000 A 
HETATM   15  C   UNL     1      -5.221 -13.650 -42.157  1.00  0.00     0.019 A 
HETATM   16  C   UNL     1      -5.212 -12.891 -40.985  1.00  0.00     0.011 A 
BRANCH  14  17
HETATM   17  S   UNL     1      -5.264 -16.024 -43.579  1.00  0.00    -0.134 SA
HETATM   18  C   UNL     1      -3.691 -15.500 -44.311  1.00  0.00     0.095 C 
ENDBRANCH  14  17
ENDBRANCH   1  11
BRANCH   2  19
HETATM   19  C   UNL     1      -2.707 -12.518 -37.957  1.00  0.00     0.132 C 
BRANCH  19  20
HETATM   20  C   UNL     1      -1.745 -13.707 -37.832  1.00  0.00     0.058 C 
BRANCH  20  21
HETATM   21  C   UNL     1      -1.654 -14.652 -39.008  1.00  0.00    -0.057 A 
HETATM   22  C   UNL     1      -1.698 -16.046 -38.867  1.00  0.00     0.007 A 
HETATM   23  C   UNL     1      -1.630 -16.877 -39.988  1.00  0.00     0.001 A 
HETATM   24  C   UNL     1      -1.531 -16.325 -41.264  1.00  0.00     0.000 A 
HETATM   25  C   UNL     1      -1.508 -14.944 -41.422  1.00  0.00     0.001 A 
HETATM   26  C   UNL     1      -1.573 -14.113 -40.303  1.00  0.00     0.007 A 
ENDBRANCH  20  21
ENDBRANCH  19  20
ENDBRANCH   2  19
BRANCH  10  27
HETATM   27  C   UNL     1      -8.684 -13.508 -38.672  1.00  0.00     0.026 A 
HETATM   28  C   UNL     1      -9.346 -14.677 -39.081  1.00  0.00     0.078 A 
HETATM   29  C   UNL     1     -10.359 -14.636 -40.036  1.00  0.00     0.037 A 
HETATM   30  C   UNL     1     -10.704 -13.420 -40.623  1.00  0.00     0.003 A 
HETATM   31  C   UNL     1     -10.041 -12.253 -40.248  1.00  0.00     0.001 A 
HETATM   32  C   UNL     1      -9.039 -12.295 -39.275  1.00  0.00     0.016 A 
BRANCH  28  33
HETATM   33  O   UNL     1      -9.015 -15.912 -38.592  1.00  0.00    -0.360 OA
HETATM   34  H   UNL     1      -8.042 -15.971 -38.580  1.00  0.00     0.217 HD
ENDBRANCH  28  33
ENDBRANCH  10  27
TORSDOF 7
ENDMDL
MODEL 7
REMARK VINA RESULT:      -8.1     15.640     18.013
REMARK  7 active torsions:
REMARK  status: ('A' for Active; 'I' for Inactive)
REMARK    1  A    between atoms: S_2  and  C_3 
REMARK    2  A    between atoms: C_6  and  C_7 
REMARK    3  A    between atoms: N_8  and  C_9 
REMARK    4  A    between atoms: C_9  and  C_10 
REMARK    5  A    between atoms: C_10  and  C_11 
REMARK    6  A    between atoms: C_24  and  C_25 
REMARK    7  A    between atoms: C_26  and  O_27 
ROOT
HETATM    1  C   UNL     1      -4.378 -15.384 -38.535  1.00  0.00     0.159 A 
HETATM    2  N   UNL     1      -4.043 -14.971 -39.920  1.00  0.00    -0.333 N 
HETATM    3  C   UNL     1      -4.637 -13.757 -40.311  1.00  0.00     0.275 A 
HETATM    4  O   UNL     1      -4.501 -13.173 -41.374  1.00  0.00    -0.266 OA
HETATM    5  C   UNL     1      -5.406 -13.348 -39.156  1.00  0.00     0.155 A 
HETATM    6  C   UNL     1      -5.250 -14.263 -38.114  1.00  0.00     0.034 A 
HETATM    7  N   UNL     1      -6.153 -12.297 -38.826  1.00  0.00    -0.168 NA
HETATM    8  N   UNL     1      -6.494 -12.578 -37.543  1.00  0.00    -0.276 N 
HETATM    9  H   UNL     1      -7.086 -11.920 -37.045  1.00  0.00     0.189 HD
HETATM   10  C   UNL     1      -5.925 -13.737 -37.041  1.00  0.00     0.074 A 
ENDROOT
BRANCH   1  11
HETATM   11  C   UNL     1      -3.225 -15.429 -37.562  1.00  0.00    -0.031 A 
HETATM   12  C   UNL     1      -2.569 -14.276 -37.101  1.00  0.00     0.011 A 
HETATM   13  C   UNL     1      -1.541 -14.369 -36.158  1.00  0.00     0.019 A 
HETATM   14  C   UNL     1      -1.155 -15.613 -35.654  1.00  0.00    -0.000 A 
HETATM   15  C   UNL     1      -1.780 -16.767 -36.124  1.00  0.00     0.019 A 
HETATM   16  C   UNL     1      -2.806 -16.677 -37.067  1.00  0.00     0.011 A 
BRANCH  14  17
HETATM   17  S   UNL     1       0.131 -15.709 -34.425  1.00  0.00    -0.134 SA
HETATM   18  C   UNL     1       0.645 -17.427 -34.692  1.00  0.00     0.095 C 
ENDBRANCH  14  17
ENDBRANCH   1  11
BRANCH   2  19
HETATM   19  C   UNL     1      -3.065 -15.649 -40.759  1.00  0.00     0.132 C 
BRANCH  19  20
HETATM   20  C   UNL     1      -1.745 -14.906 -41.003  1.00  0.00     0.058 C 
BRANCH  20  21
HETATM   21  C   UNL     1      -0.591 -15.220 -40.080  1.00  0.00    -0.057 A 
HETATM   22  C   UNL     1       0.209 -14.226 -39.499  1.00  0.00     0.007 A 
HETATM   23  C   UNL     1       1.253 -14.567 -38.636  1.00  0.00     0.001 A 
HETATM   24  C   UNL     1       1.502 -15.904 -38.331  1.00  0.00     0.000 A 
HETATM   25  C   UNL     1       0.704 -16.901 -38.883  1.00  0.00     0.001 A 
HETATM   26  C   UNL     1      -0.338 -16.561 -39.748  1.00  0.00     0.007 A 
ENDBRANCH  20  21
ENDBRANCH  19  20
ENDBRANCH   2  19
BRANCH  10  27
HETATM   27  C   UNL     1      -6.065 -14.166 -35.658  1.00  0.00     0.026 A 
HETATM   28  C   UNL     1      -5.464 -13.462 -34.603  1.00  0.00     0.078 A 
HETATM   29  C   UNL     1      -5.645 -13.853 -33.279  1.00  0.00     0.037 A 
HETATM   30  C   UNL     1      -6.409 -14.982 -32.992  1.00  0.00     0.003 A 
HETATM   31  C   UNL     1      -6.993 -15.710 -34.028  1.00  0.00     0.001 A 
HETATM   32  C   UNL     1      -6.825 -15.302 -35.354  1.00  0.00     0.016 A 
BRANCH  28  33
HETATM   33  O   UNL     1      -4.652 -12.380 -34.816  1.00  0.00    -0.360 OA
HETATM   34  H   UNL     1      -4.251 -12.143 -33.960  1.00  0.00     0.217 HD
ENDBRANCH  28  33
ENDBRANCH  10  27
TORSDOF 7
ENDMDL
MODEL 8
REMARK VINA RESULT:      -8.1      3.230      4.802
REMARK  7 active torsions:
REMARK  status: ('A' for Active; 'I' for Inactive)
REMARK    1  A    between atoms: S_2  and  C_3 
REMARK    2  A    between atoms: C_6  and  C_7 
REMARK    3  A    between atoms: N_8  and  C_9 
REMARK    4  A    between atoms: C_9  and  C_10 
REMARK    5  A    between atoms: C_10  and  C_11 
REMARK    6  A    between atoms: C_24  and  C_25 
REMARK    7  A    between atoms: C_26  and  O_27 
ROOT
HETATM    1  C   UNL     1      -7.135   2.105 -31.234  1.00  0.00     0.159 A 
HETATM    2  N   UNL     1      -7.462   0.829 -31.918  1.00  0.00    -0.333 N 
HETATM    3  C   UNL     1      -8.671   0.863 -32.638  1.00  0.00     0.275 A 
HETATM    4  O   UNL     1      -9.156  -0.028 -33.316  1.00  0.00    -0.266 OA
HETATM    5  C   UNL     1      -9.178   2.201 -32.420  1.00  0.00     0.155 A 
HETATM    6  C   UNL     1      -8.294   2.938 -31.631  1.00  0.00     0.034 A 
HETATM    7  N   UNL     1     -10.225   2.907 -32.838  1.00  0.00    -0.168 NA
HETATM    8  N   UNL     1      -9.998   4.120 -32.272  1.00  0.00    -0.276 N 
HETATM    9  H   UNL     1     -10.673   4.862 -32.432  1.00  0.00     0.189 HD
HETATM   10  C   UNL     1      -8.807   4.209 -31.570  1.00  0.00     0.074 A 
ENDROOT
BRANCH   1  11
HETATM   11  C   UNL     1      -5.898   2.818 -31.722  1.00  0.00    -0.031 A 
HETATM   12  C   UNL     1      -4.797   3.092 -30.893  1.00  0.00     0.011 A 
HETATM   13  C   UNL     1      -3.653   3.708 -31.408  1.00  0.00     0.019 A 
HETATM   14  C   UNL     1      -3.584   4.054 -32.759  1.00  0.00    -0.000 A 
HETATM   15  C   UNL     1      -4.680   3.811 -33.586  1.00  0.00     0.019 A 
HETATM   16  C   UNL     1      -5.825   3.197 -33.074  1.00  0.00     0.011 A 
BRANCH  14  17
HETATM   17  S   UNL     1      -2.103   4.805 -33.406  1.00  0.00    -0.134 SA
HETATM   18  C   UNL     1      -1.228   5.090 -31.845  1.00  0.00     0.095 C 
ENDBRANCH  14  17
ENDBRANCH   1  11
BRANCH   2  19
HETATM   19  C   UNL     1      -6.559  -0.310 -31.993  1.00  0.00     0.132 C 
BRANCH  19  20
HETATM   20  C   UNL     1      -5.833  -0.516 -33.328  1.00  0.00     0.058 C 
BRANCH  20  21
HETATM   21  C   UNL     1      -5.769  -1.925 -33.874  1.00  0.00    -0.057 A 
HETATM   22  C   UNL     1      -6.879  -2.574 -34.432  1.00  0.00     0.007 A 
HETATM   23  C   UNL     1      -6.763  -3.870 -34.941  1.00  0.00     0.001 A 
HETATM   24  C   UNL     1      -5.535  -4.528 -34.911  1.00  0.00     0.000 A 
HETATM   25  C   UNL     1      -4.420  -3.889 -34.379  1.00  0.00     0.001 A 
HETATM   26  C   UNL     1      -4.534  -2.595 -33.868  1.00  0.00     0.007 A 
ENDBRANCH  20  21
ENDBRANCH  19  20
ENDBRANCH   2  19
BRANCH  10  27
HETATM   27  C   UNL     1      -8.314   5.445 -30.982  1.00  0.00     0.026 A 
HETATM   28  C   UNL     1      -9.040   6.135 -29.998  1.00  0.00     0.078 A 
HETATM   29  C   UNL     1      -8.535   7.290 -29.407  1.00  0.00     0.037 A 
HETATM   30  C   UNL     1      -7.303   7.794 -29.817  1.00  0.00     0.003 A 
HETATM   31  C   UNL     1      -6.578   7.137 -30.811  1.00  0.00     0.001 A 
HETATM   32  C   UNL     1      -7.079   5.966 -31.388  1.00  0.00     0.016 A 
BRANCH  28  33
HETATM   33  O   UNL     1     -10.283   5.732 -29.592  1.00  0.00    -0.360 OA
HETATM   34  H   UNL     1     -10.518   6.258 -28.806  1.00  0.00     0.217 HD
ENDBRANCH  28  33
ENDBRANCH  10  27
TORSDOF 7
ENDMDL
MODEL 9
REMARK VINA RESULT:      -8.0      1.787      2.127
REMARK  7 active torsions:
REMARK  status: ('A' for Active; 'I' for Inactive)
REMARK    1  A    between atoms: S_2  and  C_3 
REMARK    2  A    between atoms: C_6  and  C_7 
REMARK    3  A    between atoms: N_8  and  C_9 
REMARK    4  A    between atoms: C_9  and  C_10 
REMARK    5  A    between atoms: C_10  and  C_11 
REMARK    6  A    between atoms: C_24  and  C_25 
REMARK    7  A    between atoms: C_26  and  O_27 
ROOT
HETATM    1  C   UNL     1      -7.418   1.862 -32.679  1.00  0.00     0.159 A 
HETATM    2  N   UNL     1      -6.573   0.997 -31.821  1.00  0.00    -0.333 N 
HETATM    3  C   UNL     1      -6.272   1.559 -30.566  1.00  0.00     0.275 A 
HETATM    4  O   UNL     1      -5.632   1.052 -29.659  1.00  0.00    -0.266 OA
HETATM    5  C   UNL     1      -6.927   2.849 -30.588  1.00  0.00     0.155 A 
HETATM    6  C   UNL     1      -7.612   3.032 -31.790  1.00  0.00     0.034 A 
HETATM    7  N   UNL     1      -7.092   3.854 -29.731  1.00  0.00    -0.168 NA
HETATM    8  N   UNL     1      -7.886   4.702 -30.431  1.00  0.00    -0.276 N 
HETATM    9  H   UNL     1      -8.163   5.577 -29.995  1.00  0.00     0.189 HD
HETATM   10  C   UNL     1      -8.278   4.225 -31.671  1.00  0.00     0.074 A 
ENDROOT
BRANCH   1  11
HETATM   11  C   UNL     1      -8.793   1.330 -33.004  1.00  0.00    -0.031 A 
HETATM   12  C   UNL     1      -9.361   0.227 -32.345  1.00  0.00     0.011 A 
HETATM   13  C   UNL     1     -10.660  -0.193 -32.647  1.00  0.00     0.019 A 
HETATM   14  C   UNL     1     -11.416   0.483 -33.606  1.00  0.00    -0.000 A 
HETATM   15  C   UNL     1     -10.853   1.563 -34.287  1.00  0.00     0.019 A 
HETATM   16  C   UNL     1      -9.556   1.984 -33.988  1.00  0.00     0.011 A 
BRANCH  14  17
HETATM   17  S   UNL     1     -13.082  -0.043 -33.952  1.00  0.00    -0.134 SA
HETATM   18  C   UNL     1     -13.756   1.531 -34.547  1.00  0.00     0.095 C 
ENDBRANCH  14  17
ENDBRANCH   1  11
BRANCH   2  19
HETATM   19  C   UNL     1      -6.212  -0.375 -32.150  1.00  0.00     0.132 C 
BRANCH  19  20
HETATM   20  C   UNL     1      -5.818  -0.644 -33.608  1.00  0.00     0.058 C 
BRANCH  20  21
HETATM   21  C   UNL     1      -5.754  -2.087 -34.055  1.00  0.00    -0.057 A 
HETATM   22  C   UNL     1      -6.858  -2.766 -34.588  1.00  0.00     0.007 A 
HETATM   23  C   UNL     1      -6.743  -4.094 -35.005  1.00  0.00     0.001 A 
HETATM   24  C   UNL     1      -5.520  -4.755 -34.909  1.00  0.00     0.000 A 
HETATM   25  C   UNL     1      -4.410  -4.088 -34.401  1.00  0.00     0.001 A 
HETATM   26  C   UNL     1      -4.525  -2.762 -33.981  1.00  0.00     0.007 A 
ENDBRANCH  20  21
ENDBRANCH  19  20
ENDBRANCH   2  19
BRANCH  10  27
HETATM   27  C   UNL     1      -9.219   4.920 -32.537  1.00  0.00     0.026 A 
HETATM   28  C   UNL     1     -10.561   5.103 -32.172  1.00  0.00     0.078 A 
HETATM   29  C   UNL     1     -11.441   5.811 -32.987  1.00  0.00     0.037 A 
HETATM   30  C   UNL     1     -10.994   6.323 -34.203  1.00  0.00     0.003 A 
HETATM   31  C   UNL     1      -9.670   6.129 -34.596  1.00  0.00     0.001 A 
HETATM   32  C   UNL     1      -8.785   5.435 -33.766  1.00  0.00     0.016 A 
BRANCH  28  33
HETATM   33  O   UNL     1     -11.083   4.575 -31.021  1.00  0.00    -0.360 OA
HETATM   34  H   UNL     1     -11.738   5.211 -30.680  1.00  0.00     0.217 HD
ENDBRANCH  28  33
ENDBRANCH  10  27
TORSDOF 7
ENDMDL
MODEL 10
REMARK VINA RESULT:      -8.0      2.011      2.572
REMARK  7 active torsions:
REMARK  status: ('A' for Active; 'I' for Inactive)
REMARK    1  A    between atoms: S_2  and  C_3 
REMARK    2  A    between atoms: C_6  and  C_7 
REMARK    3  A    between atoms: N_8  and  C_9 
REMARK    4  A    between atoms: C_9  and  C_10 
REMARK    5  A    between atoms: C_10  and  C_11 
REMARK    6  A    between atoms: C_24  and  C_25 
REMARK    7  A    between atoms: C_26  and  O_27 
ROOT
HETATM    1  C   UNL     1      -6.900   2.195 -33.004  1.00  0.00     0.159 A 
HETATM    2  N   UNL     1      -6.820   0.723 -32.840  1.00  0.00    -0.333 N 
HETATM    3  C   UNL     1      -6.165   0.317 -31.662  1.00  0.00     0.275 A 
HETATM    4  O   UNL     1      -5.993  -0.824 -31.264  1.00  0.00    -0.266 OA
HETATM    5  C   UNL     1      -5.781   1.556 -31.022  1.00  0.00     0.155 A 
HETATM    6  C   UNL     1      -6.218   2.650 -31.770  1.00  0.00     0.034 A 
HETATM    7  N   UNL     1      -5.190   1.901 -29.881  1.00  0.00    -0.168 NA
HETATM    8  N   UNL     1      -5.237   3.256 -29.930  1.00  0.00    -0.276 N 
HETATM    9  H   UNL     1      -4.834   3.783 -29.161  1.00  0.00     0.189 HD
HETATM   10  C   UNL     1      -5.902   3.765 -31.035  1.00  0.00     0.074 A 
ENDROOT
BRANCH   1  11
HETATM   11  C   UNL     1      -8.288   2.788 -32.978  1.00  0.00    -0.031 A 
HETATM   12  C   UNL     1      -9.225   2.498 -31.973  1.00  0.00     0.011 A 
HETATM   13  C   UNL     1     -10.479   3.116 -31.966  1.00  0.00     0.019 A 
HETATM   14  C   UNL     1     -10.817   4.038 -32.958  1.00  0.00    -0.000 A 
HETATM   15  C   UNL     1      -9.906   4.315 -33.977  1.00  0.00     0.019 A 
HETATM   16  C   UNL     1      -8.653   3.698 -33.986  1.00  0.00     0.011 A 
BRANCH  14  17
HETATM   17  S   UNL     1     -12.405   4.844 -32.913  1.00  0.00    -0.134 SA
HETATM   18  C   UNL     1     -13.424   3.429 -32.419  1.00  0.00     0.095 C 
ENDBRANCH  14  17
ENDBRANCH   1  11
BRANCH   2  19
HETATM   19  C   UNL     1      -7.490  -0.232 -33.710  1.00  0.00     0.132 C 
BRANCH  19  20
HETATM   20  C   UNL     1      -6.666  -0.782 -34.881  1.00  0.00     0.058 C 
BRANCH  20  21
HETATM   21  C   UNL     1      -6.040  -2.147 -34.710  1.00  0.00    -0.057 A 
HETATM   22  C   UNL     1      -4.732  -2.330 -34.242  1.00  0.00     0.007 A 
HETATM   23  C   UNL     1      -4.206  -3.614 -34.082  1.00  0.00     0.001 A 
HETATM   24  C   UNL     1      -4.986  -4.732 -34.373  1.00  0.00     0.000 A 
HETATM   25  C   UNL     1      -6.293  -4.567 -34.819  1.00  0.00     0.001 A 
HETATM   26  C   UNL     1      -6.819  -3.285 -34.982  1.00  0.00     0.007 A 
ENDBRANCH  20  21
ENDBRANCH  19  20
ENDBRANCH   2  19
BRANCH  10  27
HETATM   27  C   UNL     1      -6.168   5.182 -31.229  1.00  0.00     0.026 A 
HETATM   28  C   UNL     1      -5.136   6.098 -31.485  1.00  0.00     0.078 A 
HETATM   29  C   UNL     1      -5.406   7.444 -31.718  1.00  0.00     0.037 A 
HETATM   30  C   UNL     1      -6.721   7.902 -31.663  1.00  0.00     0.003 A 
HETATM   31  C   UNL     1      -7.758   7.013 -31.384  1.00  0.00     0.001 A 
HETATM   32  C   UNL     1      -7.484   5.659 -31.171  1.00  0.00     0.016 A 
BRANCH  28  33
HETATM   33  O   UNL     1      -3.817   5.729 -31.493  1.00  0.00    -0.360 OA
HETATM   34  H   UNL     1      -3.407   6.127 -32.282  1.00  0.00     0.217 HD
ENDBRANCH  28  33
ENDBRANCH  10  27
TORSDOF 7
ENDMDL
