MODEL 1
REMARK VINA RESULT:      -8.8      0.000      0.000
REMARK  9 active torsions:
REMARK  status: ('A' for Active; 'I' for Inactive)
REMARK    1  A    between atoms: C_4  and  S_5 
REMARK    2  A    between atoms: S_5  and  C_6 
REMARK    3  A    between atoms: C_6  and  C_7 
REMARK       I    between atoms: C_7  and  N_8 
REMARK    4  A    between atoms: N_8  and  C_9 
REMARK    5  A    between atoms: C_10  and  O_11 
REMARK    6  A    between atoms: C_22  and  C_23 
REMARK    7  A    between atoms: C_29  and  C_30 
REMARK       I    between atoms: C_30  and  N_31 
REMARK    8  A    between atoms: N_31  and  C_32 
REMARK    9  A    between atoms: C_33  and  O_34 
ROOT
HETATM    1  C   UNL     1     -10.311  -0.178 -32.615  1.00  0.00     0.069 C 
HETATM    2  C   UNL     1      -9.535   1.113 -32.737  1.00  0.00     0.019 C 
HETATM    3  N   UNL     1     -10.116   2.212 -32.132  1.00  0.00    -0.353 N 
HETATM    4  C   UNL     1      -9.696   3.519 -32.281  1.00  0.00     0.087 C 
HETATM    5  C   UNL     1      -8.515   3.759 -32.894  1.00  0.00     0.055 C 
HETATM    6  C   UNL     1      -8.038   5.159 -33.244  1.00  0.00     0.019 C 
HETATM    7  N   UNL     1      -7.644   6.322 -33.535  1.00  0.00    -0.096 N 
HETATM    8  C   UNL     1      -7.606   2.593 -33.294  1.00  0.00     0.104 C 
HETATM    9  C   UNL     1      -8.329   1.244 -33.348  1.00  0.00     0.046 C 
HETATM   10  H   UNL     1     -11.026   2.095 -31.697  1.00  0.00     0.166 HD
ENDROOT
BRANCH   4  11
HETATM   11  S   UNL     1     -10.618   4.777 -31.515  1.00  0.00    -0.102 SA
BRANCH  11  12
HETATM   12  C   UNL     1     -11.906   3.916 -30.604  1.00  0.00     0.184 C 
BRANCH  12  13
HETATM   13  C   UNL     1     -13.336   4.331 -30.914  1.00  0.00     0.231 C 
HETATM   14  N   UNL     1     -13.890   4.071 -32.145  1.00  0.00    -0.324 N 
HETATM   15  H   UNL     1     -14.551   4.782 -32.440  1.00  0.00     0.169 HD
HETATM   16  O   UNL     1     -13.938   5.074 -30.130  1.00  0.00    -0.272 OA
BRANCH  14  17
HETATM   17  C   UNL     1     -13.509   3.138 -33.127  1.00  0.00     0.070 C 
HETATM   18  C   UNL     1     -12.946   3.595 -34.333  1.00  0.00     0.095 C 
HETATM   19  C   UNL     1     -12.534   2.665 -35.296  1.00  0.00     0.041 C 
HETATM   20  C   UNL     1     -12.748   1.298 -35.096  1.00  0.00     0.026 C 
HETATM   21  C   UNL     1     -13.404   0.864 -33.951  1.00  0.00     0.036 C 
HETATM   22 CL   UNL     1     -13.739  -0.808 -33.735  1.00  0.00    -0.084 Cl
HETATM   23  C   UNL     1     -13.801   1.781 -32.982  1.00  0.00     0.056 C 
BRANCH  18  24
HETATM   24  O   UNL     1     -12.794   4.954 -34.452  1.00  0.00    -0.354 OA
HETATM   25  C   UNL     1     -11.636   5.396 -35.152  1.00  0.00     0.210 C 
ENDBRANCH  18  24
ENDBRANCH  14  17
ENDBRANCH  12  13
ENDBRANCH  11  12
ENDBRANCH   4  11
BRANCH   8  26
HETATM   26  C   UNL     1      -6.407   2.570 -32.331  1.00  0.00    -0.044 A 
HETATM   27  C   UNL     1      -5.092   2.752 -32.799  1.00  0.00     0.008 A 
HETATM   28  C   UNL     1      -4.003   2.666 -31.931  1.00  0.00     0.001 A 
HETATM   29  C   UNL     1      -4.209   2.389 -30.583  1.00  0.00     0.000 A 
HETATM   30  C   UNL     1      -5.504   2.197 -30.103  1.00  0.00     0.001 A 
HETATM   31  C   UNL     1      -6.597   2.282 -30.970  1.00  0.00     0.008 A 
ENDBRANCH   8  26
BRANCH   9  32
HETATM   32  C   UNL     1      -7.753   0.091 -34.121  1.00  0.00     0.255 C 
HETATM   33  N   UNL     1      -6.875  -0.724 -33.435  1.00  0.00    -0.321 N 
HETATM   34  H   UNL     1      -6.428  -0.383 -32.600  1.00  0.00     0.169 HD
HETATM   35  O   UNL     1      -7.976  -0.009 -35.327  1.00  0.00    -0.268 OA
BRANCH  33  36
HETATM   36  C   UNL     1      -6.337  -1.914 -33.977  1.00  0.00     0.068 A 
HETATM   37  C   UNL     1      -4.950  -2.148 -34.099  1.00  0.00     0.095 A 
HETATM   38  C   UNL     1      -4.509  -3.384 -34.585  1.00  0.00     0.039 A 
HETATM   39  C   UNL     1      -5.428  -4.364 -34.972  1.00  0.00     0.003 A 
HETATM   40  C   UNL     1      -6.794  -4.105 -34.910  1.00  0.00     0.002 A 
HETATM   41  C   UNL     1      -7.248  -2.876 -34.432  1.00  0.00     0.032 A 
BRANCH  37  42
HETATM   42  O   UNL     1      -4.119  -1.086 -33.849  1.00  0.00    -0.354 OA
HETATM   43  C   UNL     1      -3.483  -1.035 -32.581  1.00  0.00     0.210 C 
ENDBRANCH  37  42
ENDBRANCH  33  36
ENDBRANCH   9  32
TORSDOF 9
ENDMDL
MODEL 2
REMARK VINA RESULT:      -8.8      3.270      6.415
REMARK  9 active torsions:
REMARK  status: ('A' for Active; 'I' for Inactive)
REMARK    1  A    between atoms: C_4  and  S_5 
REMARK    2  A    between atoms: S_5  and  C_6 
REMARK    3  A    between atoms: C_6  and  C_7 
REMARK       I    between atoms: C_7  and  N_8 
REMARK    4  A    between atoms: N_8  and  C_9 
REMARK    5  A    between atoms: C_10  and  O_11 
REMARK    6  A    between atoms: C_22  and  C_23 
REMARK    7  A    between atoms: C_29  and  C_30 
REMARK       I    between atoms: C_30  and  N_31 
REMARK    8  A    between atoms: N_31  and  C_32 
REMARK    9  A    between atoms: C_33  and  O_34 
ROOT
HETATM    1  C   UNL     1      -5.408   3.632 -34.652  1.00  0.00     0.069 C 
HETATM    2  C   UNL     1      -6.706   3.552 -33.883  1.00  0.00     0.019 C 
HETATM    3  N   UNL     1      -7.081   4.714 -33.232  1.00  0.00    -0.353 N 
HETATM    4  C   UNL     1      -8.109   4.819 -32.317  1.00  0.00     0.087 C 
HETATM    5  C   UNL     1      -8.962   3.780 -32.172  1.00  0.00     0.055 C 
HETATM    6  C   UNL     1     -10.027   3.735 -31.089  1.00  0.00     0.019 C 
HETATM    7  N   UNL     1     -10.911   3.698 -30.189  1.00  0.00    -0.096 N 
HETATM    8  C   UNL     1      -8.860   2.567 -33.100  1.00  0.00     0.104 C 
HETATM    9  C   UNL     1      -7.516   2.464 -33.827  1.00  0.00     0.046 C 
HETATM   10  H   UNL     1      -6.452   5.510 -33.272  1.00  0.00     0.166 HD
ENDROOT
BRANCH   4  11
HETATM   11  S   UNL     1      -8.364   6.348 -31.531  1.00  0.00    -0.102 SA
BRANCH  11  12
HETATM   12  C   UNL     1      -6.725   7.068 -31.380  1.00  0.00     0.184 C 
BRANCH  12  13
HETATM   13  C   UNL     1      -6.103   7.032 -29.992  1.00  0.00     0.231 C 
HETATM   14  N   UNL     1      -5.259   6.010 -29.629  1.00  0.00    -0.324 N 
HETATM   15  H   UNL     1      -5.326   5.772 -28.645  1.00  0.00     0.169 HD
HETATM   16  O   UNL     1      -6.507   7.814 -29.124  1.00  0.00    -0.272 OA
BRANCH  14  17
HETATM   17  C   UNL     1      -4.528   5.115 -30.432  1.00  0.00     0.070 C 
HETATM   18  C   UNL     1      -4.922   3.767 -30.498  1.00  0.00     0.095 C 
HETATM   19  C   UNL     1      -4.217   2.883 -31.325  1.00  0.00     0.041 C 
HETATM   20  C   UNL     1      -3.084   3.317 -32.020  1.00  0.00     0.026 C 
HETATM   21  C   UNL     1      -2.638   4.623 -31.862  1.00  0.00     0.036 C 
HETATM   22 CL   UNL     1      -1.201   5.142 -32.653  1.00  0.00    -0.084 Cl
HETATM   23  C   UNL     1      -3.344   5.511 -31.055  1.00  0.00     0.056 C 
BRANCH  18  24
HETATM   24  O   UNL     1      -6.031   3.425 -29.766  1.00  0.00    -0.354 OA
HETATM   25  C   UNL     1      -6.591   2.144 -30.037  1.00  0.00     0.210 C 
ENDBRANCH  18  24
ENDBRANCH  14  17
ENDBRANCH  12  13
ENDBRANCH  11  12
ENDBRANCH   4  11
BRANCH   8  26
HETATM   26  C   UNL     1     -10.046   2.614 -34.079  1.00  0.00    -0.044 A 
HETATM   27  C   UNL     1     -10.331   3.774 -34.824  1.00  0.00     0.008 A 
HETATM   28  C   UNL     1     -11.445   3.833 -35.661  1.00  0.00     0.001 A 
HETATM   29  C   UNL     1     -12.298   2.738 -35.762  1.00  0.00     0.000 A 
HETATM   30  C   UNL     1     -12.036   1.584 -35.025  1.00  0.00     0.001 A 
HETATM   31  C   UNL     1     -10.921   1.521 -34.185  1.00  0.00     0.008 A 
ENDBRANCH   8  26
BRANCH   9  32
HETATM   32  C   UNL     1      -7.057   1.160 -34.417  1.00  0.00     0.255 C 
HETATM   33  N   UNL     1      -6.424   0.290 -33.552  1.00  0.00    -0.321 N 
HETATM   34  H   UNL     1      -6.030   0.640 -32.694  1.00  0.00     0.169 HD
HETATM   35  O   UNL     1      -7.145   0.971 -35.630  1.00  0.00    -0.268 OA
BRANCH  33  36
HETATM   36  C   UNL     1      -6.036  -1.021 -33.916  1.00  0.00     0.068 A 
HETATM   37  C   UNL     1      -4.705  -1.483 -33.831  1.00  0.00     0.095 A 
HETATM   38  C   UNL     1      -4.426  -2.817 -34.147  1.00  0.00     0.039 A 
HETATM   39  C   UNL     1      -5.447  -3.674 -34.571  1.00  0.00     0.003 A 
HETATM   40  C   UNL     1      -6.746  -3.197 -34.714  1.00  0.00     0.002 A 
HETATM   41  C   UNL     1      -7.037  -1.868 -34.406  1.00  0.00     0.032 A 
BRANCH  37  42
HETATM   42  O   UNL     1      -3.741  -0.546 -33.561  1.00  0.00    -0.354 OA
HETATM   43  C   UNL     1      -3.086  -0.621 -32.304  1.00  0.00     0.210 C 
ENDBRANCH  37  42
ENDBRANCH  33  36
ENDBRANCH   9  32
TORSDOF 9
ENDMDL
MODEL 3
REMARK VINA RESULT:      -8.8      5.040      8.127
REMARK  9 active torsions:
REMARK  status: ('A' for Active; 'I' for Inactive)
REMARK    1  A    between atoms: C_4  and  S_5 
REMARK    2  A    between atoms: S_5  and  C_6 
REMARK    3  A    between atoms: C_6  and  C_7 
REMARK       I    between atoms: C_7  and  N_8 
REMARK    4  A    between atoms: N_8  and  C_9 
REMARK    5  A    between atoms: C_10  and  O_11 
REMARK    6  A    between atoms: C_22  and  C_23 
REMARK    7  A    between atoms: C_29  and  C_30 
REMARK       I    between atoms: C_30  and  N_31 
REMARK    8  A    between atoms: N_31  and  C_32 
REMARK    9  A    between atoms: C_33  and  O_34 
ROOT
HETATM    1  C   UNL     1      -5.777   1.423 -29.456  1.00  0.00     0.069 C 
HETATM    2  C   UNL     1      -5.891   2.735 -30.197  1.00  0.00     0.019 C 
HETATM    3  N   UNL     1      -5.732   3.868 -29.421  1.00  0.00    -0.353 N 
HETATM    4  C   UNL     1      -5.990   5.160 -29.835  1.00  0.00     0.087 C 
HETATM    5  C   UNL     1      -6.223   5.391 -31.147  1.00  0.00     0.055 C 
HETATM    6  C   UNL     1      -6.667   6.744 -31.678  1.00  0.00     0.019 C 
HETATM    7  N   UNL     1      -7.035   7.868 -32.118  1.00  0.00    -0.096 N 
HETATM    8  C   UNL     1      -6.073   4.257 -32.165  1.00  0.00     0.104 C 
HETATM    9  C   UNL     1      -6.093   2.862 -31.534  1.00  0.00     0.046 C 
HETATM   10  H   UNL     1      -5.601   3.751 -28.421  1.00  0.00     0.166 HD
ENDROOT
BRANCH   4  11
HETATM   11  S   UNL     1      -5.823   6.448 -28.679  1.00  0.00    -0.102 SA
BRANCH  11  12
HETATM   12  C   UNL     1      -4.121   6.343 -28.113  1.00  0.00     0.184 C 
BRANCH  12  13
HETATM   13  C   UNL     1      -3.478   7.651 -27.677  1.00  0.00     0.231 C 
HETATM   14  N   UNL     1      -2.220   7.992 -28.111  1.00  0.00    -0.324 N 
HETATM   15  H   UNL     1      -1.695   8.523 -27.424  1.00  0.00     0.169 HD
HETATM   16  O   UNL     1      -4.005   8.317 -26.779  1.00  0.00    -0.272 OA
BRANCH  14  17
HETATM   17  C   UNL     1      -1.488   7.522 -29.217  1.00  0.00     0.070 C 
HETATM   18  C   UNL     1      -0.323   6.763 -29.003  1.00  0.00     0.095 C 
HETATM   19  C   UNL     1       0.385   6.265 -30.104  1.00  0.00     0.041 C 
HETATM   20  C   UNL     1      -0.016   6.580 -31.406  1.00  0.00     0.026 C 
HETATM   21  C   UNL     1      -1.104   7.421 -31.605  1.00  0.00     0.036 C 
HETATM   22 CL   UNL     1      -1.556   7.876 -33.201  1.00  0.00    -0.084 Cl
HETATM   23  C   UNL     1      -1.823   7.906 -30.516  1.00  0.00     0.056 C 
BRANCH  18  24
HETATM   24  O   UNL     1       0.008   6.520 -27.694  1.00  0.00    -0.354 OA
HETATM   25  C   UNL     1       1.143   7.221 -27.194  1.00  0.00     0.210 C 
ENDBRANCH  18  24
ENDBRANCH  14  17
ENDBRANCH  12  13
ENDBRANCH  11  12
ENDBRANCH   4  11
BRANCH   8  26
HETATM   26  C   UNL     1      -4.789   4.509 -32.974  1.00  0.00    -0.044 A 
HETATM   27  C   UNL     1      -4.842   5.029 -34.282  1.00  0.00     0.008 A 
HETATM   28  C   UNL     1      -3.679   5.196 -35.034  1.00  0.00     0.001 A 
HETATM   29  C   UNL     1      -2.446   4.838 -34.497  1.00  0.00     0.000 A 
HETATM   30  C   UNL     1      -2.376   4.313 -33.208  1.00  0.00     0.001 A 
HETATM   31  C   UNL     1      -3.538   4.145 -32.450  1.00  0.00     0.008 A 
ENDBRANCH   8  26
BRANCH   9  32
HETATM   32  C   UNL     1      -6.398   1.646 -32.363  1.00  0.00     0.255 C 
HETATM   33  N   UNL     1      -5.311   0.992 -32.908  1.00  0.00    -0.321 N 
HETATM   34  H   UNL     1      -4.433   1.476 -32.999  1.00  0.00     0.169 HD
HETATM   35  O   UNL     1      -7.566   1.359 -32.622  1.00  0.00    -0.268 OA
BRANCH  33  36
HETATM   36  C   UNL     1      -5.415  -0.230 -33.613  1.00  0.00     0.068 A 
HETATM   37  C   UNL     1      -4.440  -1.248 -33.541  1.00  0.00     0.095 A 
HETATM   38  C   UNL     1      -4.660  -2.451 -34.219  1.00  0.00     0.039 A 
HETATM   39  C   UNL     1      -5.816  -2.633 -34.983  1.00  0.00     0.003 A 
HETATM   40  C   UNL     1      -6.745  -1.603 -35.104  1.00  0.00     0.002 A 
HETATM   41  C   UNL     1      -6.536  -0.397 -34.436  1.00  0.00     0.032 A 
BRANCH  37  42
HETATM   42  O   UNL     1      -3.266  -0.935 -32.903  1.00  0.00    -0.354 OA
HETATM   43  C   UNL     1      -2.891  -1.732 -31.790  1.00  0.00     0.210 C 
ENDBRANCH  37  42
ENDBRANCH  33  36
ENDBRANCH   9  32
TORSDOF 9
ENDMDL
MODEL 4
REMARK VINA RESULT:      -8.7      4.762      8.024
REMARK  9 active torsions:
REMARK  status: ('A' for Active; 'I' for Inactive)
REMARK    1  A    between atoms: C_4  and  S_5 
REMARK    2  A    between atoms: S_5  and  C_6 
REMARK    3  A    between atoms: C_6  and  C_7 
REMARK       I    between atoms: C_7  and  N_8 
REMARK    4  A    between atoms: N_8  and  C_9 
REMARK    5  A    between atoms: C_10  and  O_11 
REMARK    6  A    between atoms: C_22  and  C_23 
REMARK    7  A    between atoms: C_29  and  C_30 
REMARK       I    between atoms: C_30  and  N_31 
REMARK    8  A    between atoms: N_31  and  C_32 
REMARK    9  A    between atoms: C_33  and  O_34 
ROOT
HETATM    1  C   UNL     1      -3.037   2.878 -31.887  1.00  0.00     0.069 C 
HETATM    2  C   UNL     1      -4.283   3.486 -31.285  1.00  0.00     0.019 C 
HETATM    3  N   UNL     1      -4.141   4.778 -30.812  1.00  0.00    -0.353 N 
HETATM    4  C   UNL     1      -5.073   5.455 -30.051  1.00  0.00     0.087 C 
HETATM    5  C   UNL     1      -6.308   4.924 -29.907  1.00  0.00     0.055 C 
HETATM    6  C   UNL     1      -7.351   5.509 -28.969  1.00  0.00     0.019 C 
HETATM    7  N   UNL     1      -8.216   5.995 -28.190  1.00  0.00    -0.096 N 
HETATM    8  C   UNL     1      -6.697   3.662 -30.683  1.00  0.00     0.104 C 
HETATM    9  C   UNL     1      -5.495   2.878 -31.218  1.00  0.00     0.046 C 
HETATM   10  H   UNL     1      -3.221   5.207 -30.856  1.00  0.00     0.166 HD
ENDROOT
BRANCH   4  11
HETATM   11  S   UNL     1      -4.670   7.042 -29.469  1.00  0.00    -0.102 SA
BRANCH  11  12
HETATM   12  C   UNL     1      -4.758   8.102 -30.916  1.00  0.00     0.184 C 
BRANCH  12  13
HETATM   13  C   UNL     1      -3.700   9.191 -31.015  1.00  0.00     0.231 C 
HETATM   14  N   UNL     1      -2.366   8.868 -31.087  1.00  0.00    -0.324 N 
HETATM   15  H   UNL     1      -1.769   9.551 -30.634  1.00  0.00     0.169 HD
HETATM   16  O   UNL     1      -4.023  10.371 -30.832  1.00  0.00    -0.272 OA
BRANCH  14  17
HETATM   17  C   UNL     1      -1.749   7.660 -31.461  1.00  0.00     0.070 C 
HETATM   18  C   UNL     1      -1.014   6.936 -30.506  1.00  0.00     0.095 C 
HETATM   19  C   UNL     1      -0.429   5.715 -30.868  1.00  0.00     0.041 C 
HETATM   20  C   UNL     1      -0.511   5.255 -32.186  1.00  0.00     0.026 C 
HETATM   21  C   UNL     1      -1.146   6.031 -33.147  1.00  0.00     0.036 C 
HETATM   22 CL   UNL     1      -1.184   5.508 -34.785  1.00  0.00    -0.084 Cl
HETATM   23  C   UNL     1      -1.744   7.237 -32.791  1.00  0.00     0.056 C 
BRANCH  18  24
HETATM   24  O   UNL     1      -0.968   7.473 -29.244  1.00  0.00    -0.354 OA
HETATM   25  C   UNL     1       0.322   7.844 -28.767  1.00  0.00     0.210 C 
ENDBRANCH  18  24
ENDBRANCH  14  17
ENDBRANCH  12  13
ENDBRANCH  11  12
ENDBRANCH   4  11
BRANCH   8  26
HETATM   26  C   UNL     1      -7.668   4.071 -31.803  1.00  0.00    -0.044 A 
HETATM   27  C   UNL     1      -8.957   3.511 -31.891  1.00  0.00     0.008 A 
HETATM   28  C   UNL     1      -9.810   3.838 -32.945  1.00  0.00     0.001 A 
HETATM   29  C   UNL     1      -9.388   4.721 -33.934  1.00  0.00     0.000 A 
HETATM   30  C   UNL     1      -8.111   5.277 -33.868  1.00  0.00     0.001 A 
HETATM   31  C   UNL     1      -7.253   4.953 -32.814  1.00  0.00     0.008 A 
ENDBRANCH   8  26
BRANCH   9  32
HETATM   32  C   UNL     1      -5.629   1.432 -31.605  1.00  0.00     0.255 C 
HETATM   33  N   UNL     1      -5.640   1.163 -32.959  1.00  0.00    -0.321 N 
HETATM   34  H   UNL     1      -5.860   1.898 -33.611  1.00  0.00     0.169 HD
HETATM   35  O   UNL     1      -5.842   0.584 -30.740  1.00  0.00    -0.268 OA
BRANCH  33  36
HETATM   36  C   UNL     1      -5.641  -0.149 -33.489  1.00  0.00     0.068 A 
HETATM   37  C   UNL     1      -4.508  -0.989 -33.470  1.00  0.00     0.095 A 
HETATM   38  C   UNL     1      -4.621  -2.297 -33.956  1.00  0.00     0.039 A 
HETATM   39  C   UNL     1      -5.833  -2.756 -34.480  1.00  0.00     0.003 A 
HETATM   40  C   UNL     1      -6.931  -1.903 -34.555  1.00  0.00     0.002 A 
HETATM   41  C   UNL     1      -6.830  -0.596 -34.078  1.00  0.00     0.032 A 
BRANCH  37  42
HETATM   42  O   UNL     1      -3.321  -0.418 -33.088  1.00  0.00    -0.354 OA
HETATM   43  C   UNL     1      -2.693  -0.927 -31.921  1.00  0.00     0.210 C 
ENDBRANCH  37  42
ENDBRANCH  33  36
ENDBRANCH   9  32
TORSDOF 9
ENDMDL
MODEL 5
REMARK VINA RESULT:      -8.5      5.250      8.600
REMARK  9 active torsions:
REMARK  status: ('A' for Active; 'I' for Inactive)
REMARK    1  A    between atoms: C_4  and  S_5 
REMARK    2  A    between atoms: S_5  and  C_6 
REMARK    3  A    between atoms: C_6  and  C_7 
REMARK       I    between atoms: C_7  and  N_8 
REMARK    4  A    between atoms: N_8  and  C_9 
REMARK    5  A    between atoms: C_10  and  O_11 
REMARK    6  A    between atoms: C_22  and  C_23 
REMARK    7  A    between atoms: C_29  and  C_30 
REMARK       I    between atoms: C_30  and  N_31 
REMARK    8  A    between atoms: N_31  and  C_32 
REMARK    9  A    between atoms: C_33  and  O_34 
ROOT
HETATM    1  C   UNL     1      -5.653   7.027 -28.984  1.00  0.00     0.069 C 
HETATM    2  C   UNL     1      -5.043   5.833 -29.682  1.00  0.00     0.019 C 
HETATM    3  N   UNL     1      -5.889   4.755 -29.858  1.00  0.00    -0.353 N 
HETATM    4  C   UNL     1      -5.503   3.499 -30.283  1.00  0.00     0.087 C 
HETATM    5  C   UNL     1      -4.251   3.329 -30.763  1.00  0.00     0.055 C 
HETATM    6  C   UNL     1      -3.680   1.964 -31.109  1.00  0.00     0.019 C 
HETATM    7  N   UNL     1      -3.207   0.830 -31.395  1.00  0.00    -0.096 N 
HETATM    8  C   UNL     1      -3.329   4.538 -30.949  1.00  0.00     0.104 C 
HETATM    9  C   UNL     1      -3.774   5.774 -30.162  1.00  0.00     0.046 C 
HETATM   10  H   UNL     1      -6.828   4.814 -29.475  1.00  0.00     0.166 HD
ENDROOT
BRANCH   4  11
HETATM   11  S   UNL     1      -6.702   2.242 -30.348  1.00  0.00    -0.102 SA
BRANCH  11  12
HETATM   12  C   UNL     1      -8.097   2.979 -31.209  1.00  0.00     0.184 C 
BRANCH  12  13
HETATM   13  C   UNL     1      -7.761   3.823 -32.428  1.00  0.00     0.231 C 
HETATM   14  N   UNL     1      -7.183   3.254 -33.537  1.00  0.00    -0.324 N 
HETATM   15  H   UNL     1      -6.549   3.882 -34.020  1.00  0.00     0.169 HD
HETATM   16  O   UNL     1      -7.828   5.056 -32.352  1.00  0.00    -0.272 OA
BRANCH  14  17
HETATM   17  C   UNL     1      -7.147   1.907 -33.945  1.00  0.00     0.070 C 
HETATM   18  C   UNL     1      -8.303   1.318 -34.486  1.00  0.00     0.095 C 
HETATM   19  C   UNL     1      -8.257  -0.012 -34.925  1.00  0.00     0.041 C 
HETATM   20  C   UNL     1      -7.095  -0.771 -34.760  1.00  0.00     0.026 C 
HETATM   21  C   UNL     1      -5.993  -0.213 -34.124  1.00  0.00     0.036 C 
HETATM   22 CL   UNL     1      -4.588  -1.165 -33.848  1.00  0.00    -0.084 Cl
HETATM   23  C   UNL     1      -6.026   1.112 -33.701  1.00  0.00     0.056 C 
BRANCH  18  24
HETATM   24  O   UNL     1      -9.404   2.131 -34.590  1.00  0.00    -0.354 OA
HETATM   25  C   UNL     1     -10.608   1.634 -34.015  1.00  0.00     0.210 C 
ENDBRANCH  18  24
ENDBRANCH  14  17
ENDBRANCH  12  13
ENDBRANCH  11  12
ENDBRANCH   4  11
BRANCH   8  26
HETATM   26  C   UNL     1      -3.213   4.821 -32.456  1.00  0.00    -0.044 A 
HETATM   27  C   UNL     1      -4.358   5.029 -33.249  1.00  0.00     0.008 A 
HETATM   28  C   UNL     1      -4.252   5.222 -34.627  1.00  0.00     0.001 A 
HETATM   29  C   UNL     1      -3.001   5.201 -35.237  1.00  0.00     0.000 A 
HETATM   30  C   UNL     1      -1.857   4.986 -34.469  1.00  0.00     0.001 A 
HETATM   31  C   UNL     1      -1.960   4.793 -33.089  1.00  0.00     0.008 A 
ENDBRANCH   8  26
BRANCH   9  32
HETATM   32  C   UNL     1      -2.807   6.884 -29.860  1.00  0.00     0.255 C 
HETATM   33  N   UNL     1      -2.163   6.816 -28.641  1.00  0.00    -0.321 N 
HETATM   34  H   UNL     1      -2.551   6.249 -27.904  1.00  0.00     0.169 HD
HETATM   35  O   UNL     1      -2.720   7.844 -30.624  1.00  0.00    -0.268 OA
BRANCH  33  36
HETATM   36  C   UNL     1      -1.141   7.713 -28.252  1.00  0.00     0.068 A 
HETATM   37  C   UNL     1      -1.389   8.896 -27.524  1.00  0.00     0.095 A 
HETATM   38  C   UNL     1      -0.307   9.688 -27.123  1.00  0.00     0.039 A 
HETATM   39  C   UNL     1       1.000   9.329 -27.465  1.00  0.00     0.003 A 
HETATM   40  C   UNL     1       1.234   8.195 -28.238  1.00  0.00     0.002 A 
HETATM   41  C   UNL     1       0.165   7.399 -28.647  1.00  0.00     0.032 A 
BRANCH  37  42
HETATM   42  O   UNL     1      -2.702   9.261 -27.364  1.00  0.00    -0.354 OA
HETATM   43  C   UNL     1      -3.319   8.962 -26.122  1.00  0.00     0.210 C 
ENDBRANCH  37  42
ENDBRANCH  33  36
ENDBRANCH   9  32
TORSDOF 9
ENDMDL
MODEL 6
REMARK VINA RESULT:      -8.5      4.276      7.527
REMARK  9 active torsions:
REMARK  status: ('A' for Active; 'I' for Inactive)
REMARK    1  A    between atoms: C_4  and  S_5 
REMARK    2  A    between atoms: S_5  and  C_6 
REMARK    3  A    between atoms: C_6  and  C_7 
REMARK       I    between atoms: C_7  and  N_8 
REMARK    4  A    between atoms: N_8  and  C_9 
REMARK    5  A    between atoms: C_10  and  O_11 
REMARK    6  A    between atoms: C_22  and  C_23 
REMARK    7  A    between atoms: C_29  and  C_30 
REMARK       I    between atoms: C_30  and  N_31 
REMARK    8  A    between atoms: N_31  and  C_32 
REMARK    9  A    between atoms: C_33  and  O_34 
ROOT
HETATM    1  C   UNL     1      -3.255   2.627 -31.228  1.00  0.00     0.069 C 
HETATM    2  C   UNL     1      -4.499   3.348 -30.763  1.00  0.00     0.019 C 
HETATM    3  N   UNL     1      -4.288   4.603 -30.221  1.00  0.00    -0.353 N 
HETATM    4  C   UNL     1      -5.237   5.354 -29.556  1.00  0.00     0.087 C 
HETATM    5  C   UNL     1      -6.528   4.955 -29.593  1.00  0.00     0.055 C 
HETATM    6  C   UNL     1      -7.619   5.620 -28.770  1.00  0.00     0.019 C 
HETATM    7  N   UNL     1      -8.524   6.173 -28.087  1.00  0.00    -0.096 N 
HETATM    8  C   UNL     1      -6.940   3.765 -30.465  1.00  0.00     0.104 C 
HETATM    9  C   UNL     1      -5.766   2.873 -30.877  1.00  0.00     0.046 C 
HETATM   10  H   UNL     1      -3.331   4.931 -30.128  1.00  0.00     0.166 HD
ENDROOT
BRANCH   4  11
HETATM   11  S   UNL     1      -4.751   6.870 -28.858  1.00  0.00    -0.102 SA
BRANCH  11  12
HETATM   12  C   UNL     1      -3.170   7.246 -29.624  1.00  0.00     0.184 C 
BRANCH  12  13
HETATM   13  C   UNL     1      -3.167   8.389 -30.628  1.00  0.00     0.231 C 
HETATM   14  N   UNL     1      -2.742   8.187 -31.919  1.00  0.00    -0.324 N 
HETATM   15  H   UNL     1      -2.286   9.001 -32.317  1.00  0.00     0.169 HD
HETATM   16  O   UNL     1      -3.361   9.545 -30.233  1.00  0.00    -0.272 OA
BRANCH  14  17
HETATM   17  C   UNL     1      -2.626   6.993 -32.654  1.00  0.00     0.070 C 
HETATM   18  C   UNL     1      -1.349   6.471 -32.926  1.00  0.00     0.095 C 
HETATM   19  C   UNL     1      -1.234   5.263 -33.628  1.00  0.00     0.041 C 
HETATM   20  C   UNL     1      -2.374   4.620 -34.119  1.00  0.00     0.026 C 
HETATM   21  C   UNL     1      -3.623   5.200 -33.940  1.00  0.00     0.036 C 
HETATM   22 CL   UNL     1      -5.021   4.454 -34.609  1.00  0.00    -0.084 Cl
HETATM   23  C   UNL     1      -3.746   6.391 -33.230  1.00  0.00     0.056 C 
BRANCH  18  24
HETATM   24  O   UNL     1      -0.287   7.180 -32.425  1.00  0.00    -0.354 OA
HETATM   25  C   UNL     1       0.327   6.647 -31.256  1.00  0.00     0.210 C 
ENDBRANCH  18  24
ENDBRANCH  14  17
ENDBRANCH  12  13
ENDBRANCH  11  12
ENDBRANCH   4  11
BRANCH   8  26
HETATM   26  C   UNL     1      -7.709   4.310 -31.681  1.00  0.00    -0.044 A 
HETATM   27  C   UNL     1      -7.349   5.531 -32.284  1.00  0.00     0.008 A 
HETATM   28  C   UNL     1      -8.089   6.051 -33.345  1.00  0.00     0.001 A 
HETATM   29  C   UNL     1      -9.206   5.366 -33.817  1.00  0.00     0.000 A 
HETATM   30  C   UNL     1      -9.582   4.161 -33.225  1.00  0.00     0.001 A 
HETATM   31  C   UNL     1      -8.843   3.636 -32.162  1.00  0.00     0.008 A 
ENDBRANCH   8  26
BRANCH   9  32
HETATM   32  C   UNL     1      -5.996   1.462 -31.340  1.00  0.00     0.255 C 
HETATM   33  N   UNL     1      -5.894   1.243 -32.699  1.00  0.00    -0.321 N 
HETATM   34  H   UNL     1      -5.975   2.019 -33.336  1.00  0.00     0.169 HD
HETATM   35  O   UNL     1      -6.376   0.609 -30.539  1.00  0.00    -0.268 OA
BRANCH  33  36
HETATM   36  C   UNL     1      -5.966  -0.043 -33.285  1.00  0.00     0.068 A 
HETATM   37  C   UNL     1      -7.173  -0.619 -33.737  1.00  0.00     0.095 A 
HETATM   38  C   UNL     1      -7.138  -1.867 -34.366  1.00  0.00     0.039 A 
HETATM   39  C   UNL     1      -5.928  -2.550 -34.520  1.00  0.00     0.003 A 
HETATM   40  C   UNL     1      -4.749  -2.008 -34.016  1.00  0.00     0.002 A 
HETATM   41  C   UNL     1      -4.770  -0.765 -33.383  1.00  0.00     0.032 A 
BRANCH  37  42
HETATM   42  O   UNL     1      -8.332   0.039 -33.410  1.00  0.00    -0.354 OA
HETATM   43  C   UNL     1      -9.014   0.723 -34.449  1.00  0.00     0.210 C 
ENDBRANCH  37  42
ENDBRANCH  33  36
ENDBRANCH   9  32
TORSDOF 9
ENDMDL
MODEL 7
REMARK VINA RESULT:      -8.4      4.116      8.679
REMARK  9 active torsions:
REMARK  status: ('A' for Active; 'I' for Inactive)
REMARK    1  A    between atoms: C_4  and  S_5 
REMARK    2  A    between atoms: S_5  and  C_6 
REMARK    3  A    between atoms: C_6  and  C_7 
REMARK       I    between atoms: C_7  and  N_8 
REMARK    4  A    between atoms: N_8  and  C_9 
REMARK    5  A    between atoms: C_10  and  O_11 
REMARK    6  A    between atoms: C_22  and  C_23 
REMARK    7  A    between atoms: C_29  and  C_30 
REMARK       I    between atoms: C_30  and  N_31 
REMARK    8  A    between atoms: N_31  and  C_32 
REMARK    9  A    between atoms: C_33  and  O_34 
ROOT
HETATM    1  C   UNL     1     -10.218   4.597 -31.030  1.00  0.00     0.069 C 
HETATM    2  C   UNL     1      -9.035   4.362 -31.940  1.00  0.00     0.019 C 
HETATM    3  N   UNL     1      -7.839   4.907 -31.510  1.00  0.00    -0.353 N 
HETATM    4  C   UNL     1      -6.685   4.992 -32.263  1.00  0.00     0.087 C 
HETATM    5  C   UNL     1      -6.621   4.324 -33.437  1.00  0.00     0.055 C 
HETATM    6  C   UNL     1      -5.462   4.477 -34.409  1.00  0.00     0.019 C 
HETATM    7  N   UNL     1      -4.500   4.604 -35.214  1.00  0.00    -0.096 N 
HETATM    8  C   UNL     1      -7.762   3.391 -33.853  1.00  0.00     0.104 C 
HETATM    9  C   UNL     1      -9.066   3.641 -33.091  1.00  0.00     0.046 C 
HETATM   10  H   UNL     1      -7.842   5.458 -30.657  1.00  0.00     0.166 HD
ENDROOT
BRANCH   4  11
HETATM   11  S   UNL     1      -5.309   5.803 -31.579  1.00  0.00    -0.102 SA
BRANCH  11  12
HETATM   12  C   UNL     1      -4.445   4.537 -30.641  1.00  0.00     0.184 C 
BRANCH  12  13
HETATM   13  C   UNL     1      -3.610   3.557 -31.450  1.00  0.00     0.231 C 
HETATM   14  N   UNL     1      -2.391   3.930 -31.963  1.00  0.00    -0.324 N 
HETATM   15  H   UNL     1      -2.180   3.484 -32.848  1.00  0.00     0.169 HD
HETATM   16  O   UNL     1      -4.112   2.487 -31.815  1.00  0.00    -0.272 OA
BRANCH  14  17
HETATM   17  C   UNL     1      -1.538   4.984 -31.585  1.00  0.00     0.070 C 
HETATM   18  C   UNL     1      -1.279   6.024 -32.496  1.00  0.00     0.095 C 
HETATM   19  C   UNL     1      -0.458   7.091 -32.107  1.00  0.00     0.041 C 
HETATM   20  C   UNL     1       0.159   7.087 -30.853  1.00  0.00     0.026 C 
HETATM   21  C   UNL     1      -0.015   6.003 -30.003  1.00  0.00     0.036 C 
HETATM   22 CL   UNL     1       0.804   5.956 -28.491  1.00  0.00    -0.084 Cl
HETATM   23  C   UNL     1      -0.842   4.947 -30.375  1.00  0.00     0.056 C 
BRANCH  18  24
HETATM   24  O   UNL     1      -1.910   5.933 -33.711  1.00  0.00    -0.354 OA
HETATM   25  C   UNL     1      -1.091   5.566 -34.817  1.00  0.00     0.210 C 
ENDBRANCH  18  24
ENDBRANCH  14  17
ENDBRANCH  12  13
ENDBRANCH  11  12
ENDBRANCH   4  11
BRANCH   8  26
HETATM   26  C   UNL     1      -7.270   1.941 -33.701  1.00  0.00    -0.044 A 
HETATM   27  C   UNL     1      -6.958   1.155 -34.827  1.00  0.00     0.008 A 
HETATM   28  C   UNL     1      -6.574  -0.178 -34.687  1.00  0.00     0.001 A 
HETATM   29  C   UNL     1      -6.505  -0.752 -33.421  1.00  0.00     0.000 A 
HETATM   30  C   UNL     1      -6.820   0.008 -32.296  1.00  0.00     0.001 A 
HETATM   31  C   UNL     1      -7.205   1.344 -32.432  1.00  0.00     0.008 A 
ENDBRANCH   8  26
BRANCH   9  32
HETATM   32  C   UNL     1     -10.381   3.158 -33.635  1.00  0.00     0.255 C 
HETATM   33  N   UNL     1     -11.076   2.265 -32.844  1.00  0.00    -0.321 N 
HETATM   34  H   UNL     1     -10.590   1.751 -32.127  1.00  0.00     0.169 HD
HETATM   35  O   UNL     1     -10.721   3.464 -34.777  1.00  0.00    -0.268 OA
BRANCH  33  36
HETATM   36  C   UNL     1     -12.378   1.805 -33.153  1.00  0.00     0.068 A 
HETATM   37  C   UNL     1     -13.537   2.590 -32.970  1.00  0.00     0.095 A 
HETATM   38  C   UNL     1     -14.776   2.077 -33.367  1.00  0.00     0.039 A 
HETATM   39  C   UNL     1     -14.870   0.792 -33.912  1.00  0.00     0.003 A 
HETATM   40  C   UNL     1     -13.734  -0.002 -34.031  1.00  0.00     0.002 A 
HETATM   41  C   UNL     1     -12.492   0.495 -33.635  1.00  0.00     0.032 A 
BRANCH  37  42
HETATM   42  O   UNL     1     -13.383   3.770 -32.288  1.00  0.00    -0.354 OA
HETATM   43  C   UNL     1     -13.733   3.784 -30.912  1.00  0.00     0.210 C 
ENDBRANCH  37  42
ENDBRANCH  33  36
ENDBRANCH   9  32
TORSDOF 9
ENDMDL
MODEL 8
REMARK VINA RESULT:      -8.2      4.828      8.001
REMARK  9 active torsions:
REMARK  status: ('A' for Active; 'I' for Inactive)
REMARK    1  A    between atoms: C_4  and  S_5 
REMARK    2  A    between atoms: S_5  and  C_6 
REMARK    3  A    between atoms: C_6  and  C_7 
REMARK       I    between atoms: C_7  and  N_8 
REMARK    4  A    between atoms: N_8  and  C_9 
REMARK    5  A    between atoms: C_10  and  O_11 
REMARK    6  A    between atoms: C_22  and  C_23 
REMARK    7  A    between atoms: C_29  and  C_30 
REMARK       I    between atoms: C_30  and  N_31 
REMARK    8  A    between atoms: N_31  and  C_32 
REMARK    9  A    between atoms: C_33  and  O_34 
ROOT
HETATM    1  C   UNL     1      -3.870   3.208 -32.829  1.00  0.00     0.069 C 
HETATM    2  C   UNL     1      -5.213   3.680 -32.321  1.00  0.00     0.019 C 
HETATM    3  N   UNL     1      -5.306   5.036 -32.066  1.00  0.00    -0.353 N 
HETATM    4  C   UNL     1      -6.355   5.655 -31.416  1.00  0.00     0.087 C 
HETATM    5  C   UNL     1      -7.482   4.948 -31.175  1.00  0.00     0.055 C 
HETATM    6  C   UNL     1      -8.628   5.486 -30.334  1.00  0.00     0.019 C 
HETATM    7  N   UNL     1      -9.578   5.934 -29.636  1.00  0.00    -0.096 N 
HETATM    8  C   UNL     1      -7.632   3.529 -31.731  1.00  0.00     0.104 C 
HETATM    9  C   UNL     1      -6.303   2.890 -32.145  1.00  0.00     0.046 C 
HETATM   10  H   UNL     1      -4.473   5.605 -32.188  1.00  0.00     0.166 HD
ENDROOT
BRANCH   4  11
HETATM   11  S   UNL     1      -6.243   7.361 -31.103  1.00  0.00    -0.102 SA
BRANCH  11  12
HETATM   12  C   UNL     1      -4.552   7.620 -30.555  1.00  0.00     0.184 C 
BRANCH  12  13
HETATM   13  C   UNL     1      -3.888   8.909 -31.015  1.00  0.00     0.231 C 
HETATM   14  N   UNL     1      -2.525   9.061 -30.941  1.00  0.00    -0.324 N 
HETATM   15  H   UNL     1      -2.242  10.016 -30.751  1.00  0.00     0.169 HD
HETATM   16  O   UNL     1      -4.589   9.895 -31.273  1.00  0.00    -0.272 OA
BRANCH  14  17
HETATM   17  C   UNL     1      -1.512   8.088 -30.846  1.00  0.00     0.070 C 
HETATM   18  C   UNL     1      -1.011   7.495 -32.019  1.00  0.00     0.095 C 
HETATM   19  C   UNL     1       0.022   6.553 -31.927  1.00  0.00     0.041 C 
HETATM   20  C   UNL     1       0.500   6.148 -30.677  1.00  0.00     0.026 C 
HETATM   21  C   UNL     1      -0.077   6.657 -29.521  1.00  0.00     0.036 C 
HETATM   22 CL   UNL     1       0.453   6.105 -27.981  1.00  0.00    -0.084 Cl
HETATM   23  C   UNL     1      -1.092   7.607 -29.605  1.00  0.00     0.056 C 
BRANCH  18  24
HETATM   24  O   UNL     1      -1.554   7.938 -33.199  1.00  0.00    -0.354 OA
HETATM   25  C   UNL     1      -2.206   6.954 -33.997  1.00  0.00     0.210 C 
ENDBRANCH  18  24
ENDBRANCH  14  17
ENDBRANCH  12  13
ENDBRANCH  11  12
ENDBRANCH   4  11
BRANCH   8  26
HETATM   26  C   UNL     1      -8.638   3.577 -32.894  1.00  0.00    -0.044 A 
HETATM   27  C   UNL     1      -8.693   4.681 -33.766  1.00  0.00     0.008 A 
HETATM   28  C   UNL     1      -9.650   4.748 -34.779  1.00  0.00     0.001 A 
HETATM   29  C   UNL     1     -10.574   3.718 -34.932  1.00  0.00     0.000 A 
HETATM   30  C   UNL     1     -10.541   2.622 -34.071  1.00  0.00     0.001 A 
HETATM   31  C   UNL     1      -9.584   2.551 -33.056  1.00  0.00     0.008 A 
ENDBRANCH   8  26
BRANCH   9  32
HETATM   32  C   UNL     1      -6.178   1.399 -32.290  1.00  0.00     0.255 C 
HETATM   33  N   UNL     1      -6.038   0.923 -33.578  1.00  0.00    -0.321 N 
HETATM   34  H   UNL     1      -6.318   1.499 -34.356  1.00  0.00     0.169 HD
HETATM   35  O   UNL     1      -6.324   0.674 -31.307  1.00  0.00    -0.268 OA
BRANCH  33  36
HETATM   36  C   UNL     1      -5.792  -0.437 -33.880  1.00  0.00     0.068 A 
HETATM   37  C   UNL     1      -4.560  -1.075 -33.618  1.00  0.00     0.095 A 
HETATM   38  C   UNL     1      -4.430  -2.441 -33.887  1.00  0.00     0.039 A 
HETATM   39  C   UNL     1      -5.495  -3.160 -34.437  1.00  0.00     0.003 A 
HETATM   40  C   UNL     1      -6.687  -2.514 -34.754  1.00  0.00     0.002 A 
HETATM   41  C   UNL     1      -6.829  -1.151 -34.494  1.00  0.00     0.032 A 
BRANCH  37  42
HETATM   42  O   UNL     1      -3.519  -0.271 -33.228  1.00  0.00    -0.354 OA
HETATM   43  C   UNL     1      -2.944  -0.514 -31.953  1.00  0.00     0.210 C 
ENDBRANCH  37  42
ENDBRANCH  33  36
ENDBRANCH   9  32
TORSDOF 9
ENDMDL
MODEL 9
REMARK VINA RESULT:      -8.1      4.024      7.237
REMARK  9 active torsions:
REMARK  status: ('A' for Active; 'I' for Inactive)
REMARK    1  A    between atoms: C_4  and  S_5 
REMARK    2  A    between atoms: S_5  and  C_6 
REMARK    3  A    between atoms: C_6  and  C_7 
REMARK       I    between atoms: C_7  and  N_8 
REMARK    4  A    between atoms: N_8  and  C_9 
REMARK    5  A    between atoms: C_10  and  O_11 
REMARK    6  A    between atoms: C_22  and  C_23 
REMARK    7  A    between atoms: C_29  and  C_30 
REMARK       I    between atoms: C_30  and  N_31 
REMARK    8  A    between atoms: N_31  and  C_32 
REMARK    9  A    between atoms: C_33  and  O_34 
ROOT
HETATM    1  C   UNL     1      -4.600   2.498 -33.123  1.00  0.00     0.069 C 
HETATM    2  C   UNL     1      -5.981   2.827 -32.605  1.00  0.00     0.019 C 
HETATM    3  N   UNL     1      -6.222   4.168 -32.373  1.00  0.00    -0.353 N 
HETATM    4  C   UNL     1      -7.326   4.679 -31.719  1.00  0.00     0.087 C 
HETATM    5  C   UNL     1      -8.363   3.855 -31.449  1.00  0.00     0.055 C 
HETATM    6  C   UNL     1      -9.552   4.278 -30.602  1.00  0.00     0.019 C 
HETATM    7  N   UNL     1     -10.537   4.630 -29.898  1.00  0.00    -0.096 N 
HETATM    8  C   UNL     1      -8.360   2.417 -31.978  1.00  0.00     0.104 C 
HETATM    9  C   UNL     1      -6.973   1.923 -32.399  1.00  0.00     0.046 C 
HETATM   10  H   UNL     1      -5.460   4.825 -32.516  1.00  0.00     0.166 HD
ENDROOT
BRANCH   4  11
HETATM   11  S   UNL     1      -7.402   6.392 -31.438  1.00  0.00    -0.102 SA
BRANCH  11  12
HETATM   12  C   UNL     1      -5.697   6.894 -31.175  1.00  0.00     0.184 C 
BRANCH  12  13
HETATM   13  C   UNL     1      -4.959   6.193 -30.044  1.00  0.00     0.231 C 
HETATM   14  N   UNL     1      -3.687   5.708 -30.232  1.00  0.00    -0.324 N 
HETATM   15  H   UNL     1      -3.502   4.866 -29.698  1.00  0.00     0.169 HD
HETATM   16  O   UNL     1      -5.574   5.884 -29.016  1.00  0.00    -0.272 OA
BRANCH  14  17
HETATM   17  C   UNL     1      -2.727   6.046 -31.203  1.00  0.00     0.070 C 
HETATM   18  C   UNL     1      -1.805   7.074 -30.935  1.00  0.00     0.095 C 
HETATM   19  C   UNL     1      -0.826   7.386 -31.887  1.00  0.00     0.041 C 
HETATM   20  C   UNL     1      -0.810   6.735 -33.125  1.00  0.00     0.026 C 
HETATM   21  C   UNL     1      -1.792   5.799 -33.423  1.00  0.00     0.036 C 
HETATM   22 CL   UNL     1      -1.824   5.052 -34.971  1.00  0.00    -0.084 Cl
HETATM   23  C   UNL     1      -2.758   5.471 -32.475  1.00  0.00     0.056 C 
BRANCH  18  24
HETATM   24  O   UNL     1      -1.908   7.672 -29.705  1.00  0.00    -0.354 OA
HETATM   25  C   UNL     1      -0.867   7.384 -28.777  1.00  0.00     0.210 C 
ENDBRANCH  18  24
ENDBRANCH  14  17
ENDBRANCH  12  13
ENDBRANCH  11  12
ENDBRANCH   4  11
BRANCH   8  26
HETATM   26  C   UNL     1      -9.379   2.329 -33.126  1.00  0.00    -0.044 A 
HETATM   27  C   UNL     1      -9.516   3.374 -34.061  1.00  0.00     0.008 A 
HETATM   28  C   UNL     1     -10.486   3.317 -35.062  1.00  0.00     0.001 A 
HETATM   29  C   UNL     1     -11.341   2.222 -35.141  1.00  0.00     0.000 A 
HETATM   30  C   UNL     1     -11.227   1.184 -34.217  1.00  0.00     0.001 A 
HETATM   31  C   UNL     1     -10.257   1.237 -33.213  1.00  0.00     0.008 A 
ENDBRANCH   8  26
BRANCH   9  32
HETATM   32  C   UNL     1      -6.683   0.453 -32.519  1.00  0.00     0.255 C 
HETATM   33  N   UNL     1      -6.472  -0.022 -33.798  1.00  0.00    -0.321 N 
HETATM   34  H   UNL     1      -6.800   0.509 -34.588  1.00  0.00     0.169 HD
HETATM   35  O   UNL     1      -6.764  -0.270 -31.528  1.00  0.00    -0.268 OA
BRANCH  33  36
HETATM   36  C   UNL     1      -6.073  -1.351 -34.075  1.00  0.00     0.068 A 
HETATM   37  C   UNL     1      -4.748  -1.809 -33.911  1.00  0.00     0.095 A 
HETATM   38  C   UNL     1      -4.460  -3.158 -34.144  1.00  0.00     0.039 A 
HETATM   39  C   UNL     1      -5.465  -4.036 -34.564  1.00  0.00     0.003 A 
HETATM   40  C   UNL     1      -6.756  -3.566 -34.786  1.00  0.00     0.002 A 
HETATM   41  C   UNL     1      -7.056  -2.222 -34.561  1.00  0.00     0.032 A 
BRANCH  37  42
HETATM   42  O   UNL     1      -3.793  -0.859 -33.651  1.00  0.00    -0.354 OA
HETATM   43  C   UNL     1      -3.170  -0.886 -32.376  1.00  0.00     0.210 C 
ENDBRANCH  37  42
ENDBRANCH  33  36
ENDBRANCH   9  32
TORSDOF 9
ENDMDL
MODEL 10
REMARK VINA RESULT:      -8.0      3.227      7.770
REMARK  9 active torsions:
REMARK  status: ('A' for Active; 'I' for Inactive)
REMARK    1  A    between atoms: C_4  and  S_5 
REMARK    2  A    between atoms: S_5  and  C_6 
REMARK    3  A    between atoms: C_6  and  C_7 
REMARK       I    between atoms: C_7  and  N_8 
REMARK    4  A    between atoms: N_8  and  C_9 
REMARK    5  A    between atoms: C_10  and  O_11 
REMARK    6  A    between atoms: C_22  and  C_23 
REMARK    7  A    between atoms: C_29  and  C_30 
REMARK       I    between atoms: C_30  and  N_31 
REMARK    8  A    between atoms: N_31  and  C_32 
REMARK    9  A    between atoms: C_33  and  O_34 
ROOT
HETATM    1  C   UNL     1      -7.756   1.445 -34.387  1.00  0.00     0.069 C 
HETATM    2  C   UNL     1      -7.680   2.832 -33.793  1.00  0.00     0.019 C 
HETATM    3  N   UNL     1      -6.492   3.506 -34.014  1.00  0.00    -0.353 N 
HETATM    4  C   UNL     1      -6.122   4.689 -33.407  1.00  0.00     0.087 C 
HETATM    5  C   UNL     1      -7.044   5.372 -32.692  1.00  0.00     0.055 C 
HETATM    6  C   UNL     1      -6.699   6.597 -31.861  1.00  0.00     0.019 C 
HETATM    7  N   UNL     1      -6.412   7.614 -31.171  1.00  0.00    -0.096 N 
HETATM    8  C   UNL     1      -8.501   4.902 -32.670  1.00  0.00     0.104 C 
HETATM    9  C   UNL     1      -8.682   3.449 -33.116  1.00  0.00     0.046 C 
HETATM   10  H   UNL     1      -5.749   3.019 -34.507  1.00  0.00     0.166 HD
ENDROOT
BRANCH   4  11
HETATM   11  S   UNL     1      -4.542   5.332 -33.741  1.00  0.00    -0.102 SA
BRANCH  11  12
HETATM   12  C   UNL     1      -3.406   4.001 -33.333  1.00  0.00     0.184 C 
BRANCH  12  13
HETATM   13  C   UNL     1      -2.852   4.004 -31.917  1.00  0.00     0.231 C 
HETATM   14  N   UNL     1      -3.385   3.182 -30.954  1.00  0.00    -0.324 N 
HETATM   15  H   UNL     1      -3.358   3.589 -30.026  1.00  0.00     0.169 HD
HETATM   16  O   UNL     1      -2.052   4.885 -31.579  1.00  0.00    -0.272 OA
BRANCH  14  17
HETATM   17  C   UNL     1      -4.157   2.013 -31.092  1.00  0.00     0.070 C 
HETATM   18  C   UNL     1      -5.515   2.036 -30.728  1.00  0.00     0.095 C 
HETATM   19  C   UNL     1      -6.293   0.883 -30.898  1.00  0.00     0.041 C 
HETATM   20  C   UNL     1      -5.709  -0.302 -31.355  1.00  0.00     0.026 C 
HETATM   21  C   UNL     1      -4.344  -0.345 -31.608  1.00  0.00     0.036 C 
HETATM   22 CL   UNL     1      -3.606  -1.819 -32.096  1.00  0.00    -0.084 Cl
HETATM   23  C   UNL     1      -3.568   0.802 -31.457  1.00  0.00     0.056 C 
BRANCH  18  24
HETATM   24  O   UNL     1      -5.998   3.235 -30.268  1.00  0.00    -0.354 OA
HETATM   25  C   UNL     1      -7.298   3.207 -29.687  1.00  0.00     0.210 C 
ENDBRANCH  18  24
ENDBRANCH  14  17
ENDBRANCH  12  13
ENDBRANCH  11  12
ENDBRANCH   4  11
BRANCH   8  26
HETATM   26  C   UNL     1      -9.330   5.878 -33.523  1.00  0.00    -0.044 A 
HETATM   27  C   UNL     1     -10.012   6.961 -32.936  1.00  0.00     0.008 A 
HETATM   28  C   UNL     1     -10.814   7.805 -33.705  1.00  0.00     0.001 A 
HETATM   29  C   UNL     1     -10.954   7.577 -35.070  1.00  0.00     0.000 A 
HETATM   30  C   UNL     1     -10.294   6.503 -35.666  1.00  0.00     0.001 A 
HETATM   31  C   UNL     1      -9.490   5.656 -34.900  1.00  0.00     0.008 A 
ENDBRANCH   8  26
BRANCH   9  32
HETATM   32  C   UNL     1      -9.923   2.681 -32.756  1.00  0.00     0.255 C 
HETATM   33  N   UNL     1     -11.006   2.845 -33.596  1.00  0.00    -0.321 N 
HETATM   34  H   UNL     1     -11.049   3.649 -34.202  1.00  0.00     0.169 HD
HETATM   35  O   UNL     1      -9.971   2.056 -31.697  1.00  0.00    -0.268 OA
BRANCH  33  36
HETATM   36  C   UNL     1     -12.207   2.109 -33.467  1.00  0.00     0.068 A 
HETATM   37  C   UNL     1     -13.406   2.668 -32.976  1.00  0.00     0.095 A 
HETATM   38  C   UNL     1     -14.563   1.881 -32.949  1.00  0.00     0.039 A 
HETATM   39  C   UNL     1     -14.526   0.550 -33.374  1.00  0.00     0.003 A 
HETATM   40  C   UNL     1     -13.326  -0.016 -33.797  1.00  0.00     0.002 A 
HETATM   41  C   UNL     1     -12.165   0.756 -33.826  1.00  0.00     0.032 A 
BRANCH  37  42
HETATM   42  O   UNL     1     -13.326   3.925 -32.433  1.00  0.00    -0.354 OA
HETATM   43  C   UNL     1     -13.338   4.031 -31.018  1.00  0.00     0.210 C 
ENDBRANCH  37  42
ENDBRANCH  33  36
ENDBRANCH   9  32
TORSDOF 9
ENDMDL
