MODEL 1
REMARK VINA RESULT:     -10.1      0.000      0.000
REMARK  7 active torsions:
REMARK  status: ('A' for Active; 'I' for Inactive)
REMARK    1  A    between atoms: C_2  and  C_3 
REMARK    2  A    between atoms: C_3  and  N_4 
REMARK       I    between atoms: N_4  and  C_5 
REMARK    3  A    between atoms: C_5  and  C_6 
REMARK    4  A    between atoms: C_7  and  N_8 
REMARK    5  A    between atoms: N_9  and  N_10 
REMARK    6  A    between atoms: C_11  and  C_12 
REMARK    7  A    between atoms: C_13  and  O_14 
ROOT
HETATM    1  C   UNL     1      -4.117  -0.647 -32.036  1.00  0.00     0.104 C 
HETATM    2  C   UNL     1      -3.226   0.200 -31.387  1.00  0.00     0.123 C 
HETATM    3  N   UNL     1      -3.759   1.485 -31.455  1.00  0.00    -0.202 N 
HETATM    4  C   UNL     1      -5.122   1.356 -31.615  1.00  0.00     0.183 A 
HETATM    5  C   UNL     1      -5.357   0.053 -32.054  1.00  0.00     0.124 A 
HETATM    6  N   UNL     1      -6.597  -0.336 -32.442  1.00  0.00    -0.242 NA
HETATM    7  C   UNL     1      -7.552   0.600 -32.310  1.00  0.00     0.086 A 
HETATM    8  C   UNL     1      -7.287   1.912 -31.835  1.00  0.00     0.088 A 
HETATM    9  N   UNL     1      -6.055   2.330 -31.503  1.00  0.00    -0.225 NA
HETATM   10  C   UNL     1      -8.856   0.261 -32.650  1.00  0.00     0.034 A 
HETATM   11  C   UNL     1      -9.907   1.170 -32.521  1.00  0.00     0.002 A 
HETATM   12  C   UNL     1      -9.649   2.448 -32.043  1.00  0.00     0.002 A 
HETATM   13  C   UNL     1      -8.343   2.805 -31.708  1.00  0.00     0.034 A 
ENDROOT
BRANCH   3  14
HETATM   14  N   UNL     1      -3.064   2.681 -31.442  1.00  0.00    -0.176 NA
HETATM   15  C   UNL     1      -3.044   3.255 -32.609  1.00  0.00     0.153 C 
BRANCH  15  16
HETATM   16  C   UNL     1      -2.399   4.554 -32.853  1.00  0.00     0.017 A 
HETATM   17  C   UNL     1      -2.692   5.338 -33.970  1.00  0.00     0.077 A 
HETATM   18  C   UNL     1      -1.998   6.526 -34.184  1.00  0.00     0.039 A 
HETATM   19  C   UNL     1      -1.018   6.938 -33.276  1.00  0.00     0.022 A 
HETATM   20  C   UNL     1      -0.739   6.157 -32.155  1.00  0.00     0.012 A 
HETATM   21 BR   UNL     1       0.581   6.714 -30.921  1.00  0.00    -0.051 Br
HETATM   22  C   UNL     1      -1.421   4.963 -31.937  1.00  0.00     0.034 A 
BRANCH  17  23
HETATM   23  O   UNL     1      -3.628   4.986 -34.900  1.00  0.00    -0.360 OA
HETATM   24  H   UNL     1      -4.195   4.279 -34.513  1.00  0.00     0.217 HD
ENDBRANCH  17  23
ENDBRANCH  15  16
ENDBRANCH   3  14
BRANCH   2  25
HETATM   25  N   UNL     1      -1.983  -0.039 -30.861  1.00  0.00    -0.286 NA
HETATM   26  H   UNL     1      -1.237   0.595 -31.164  1.00  0.00     0.125 HD
HETATM   27  H   UNL     1      -1.932  -0.149 -29.844  1.00  0.00     0.125 HD
ENDBRANCH   2  25
BRANCH   1  28
HETATM   28  C   UNL     1      -3.796  -1.956 -32.592  1.00  0.00     0.257 C 
HETATM   29  N   UNL     1      -4.336  -2.142 -33.853  1.00  0.00    -0.356 N 
HETATM   30  H   UNL     1      -4.955  -1.401 -34.164  1.00  0.00     0.162 HD
HETATM   31  O   UNL     1      -3.200  -2.836 -31.984  1.00  0.00    -0.267 OA
BRANCH  29  32
HETATM   32  C   UNL     1      -4.540  -3.452 -34.429  1.00  0.00     0.126 C 
BRANCH  32  33
HETATM   33  C   UNL     1      -6.030  -3.824 -34.544  1.00  0.00    -0.005 C 
HETATM   34  C   UNL     1      -6.273  -4.805 -35.691  1.00  0.00     0.011 C 
HETATM   35  C   UNL     1      -6.938  -2.599 -34.691  1.00  0.00     0.011 C 
ENDBRANCH  32  33
ENDBRANCH  29  32
ENDBRANCH   1  28
TORSDOF 7
ENDMDL
MODEL 2
REMARK VINA RESULT:      -9.6      3.593      7.928
REMARK  7 active torsions:
REMARK  status: ('A' for Active; 'I' for Inactive)
REMARK    1  A    between atoms: C_2  and  C_3 
REMARK    2  A    between atoms: C_3  and  N_4 
REMARK       I    between atoms: N_4  and  C_5 
REMARK    3  A    between atoms: C_5  and  C_6 
REMARK    4  A    between atoms: C_7  and  N_8 
REMARK    5  A    between atoms: N_9  and  N_10 
REMARK    6  A    between atoms: C_11  and  C_12 
REMARK    7  A    between atoms: C_13  and  O_14 
ROOT
HETATM    1  C   UNL     1      -5.218   1.300 -32.502  1.00  0.00     0.104 C 
HETATM    2  C   UNL     1      -6.500   1.821 -32.368  1.00  0.00     0.123 C 
HETATM    3  N   UNL     1      -7.327   1.096 -33.224  1.00  0.00    -0.202 N 
HETATM    4  C   UNL     1      -6.734  -0.130 -33.428  1.00  0.00     0.183 A 
HETATM    5  C   UNL     1      -5.396   0.001 -33.057  1.00  0.00     0.124 A 
HETATM    6  N   UNL     1      -4.511  -1.003 -33.282  1.00  0.00    -0.242 NA
HETATM    7  C   UNL     1      -5.040  -2.115 -33.820  1.00  0.00     0.086 A 
HETATM    8  C   UNL     1      -6.414  -2.228 -34.164  1.00  0.00     0.088 A 
HETATM    9  N   UNL     1      -7.289  -1.223 -34.002  1.00  0.00    -0.225 NA
HETATM   10  C   UNL     1      -4.202  -3.201 -34.043  1.00  0.00     0.034 A 
HETATM   11  C   UNL     1      -4.680  -4.398 -34.579  1.00  0.00     0.002 A 
HETATM   12  C   UNL     1      -6.025  -4.512 -34.901  1.00  0.00     0.002 A 
HETATM   13  C   UNL     1      -6.876  -3.426 -34.693  1.00  0.00     0.034 A 
ENDROOT
BRANCH   3  14
HETATM   14  N   UNL     1      -8.494   1.532 -33.827  1.00  0.00    -0.176 NA
HETATM   15  C   UNL     1      -9.558   1.061 -33.247  1.00  0.00     0.153 C 
BRANCH  15  16
HETATM   16  C   UNL     1     -10.922   1.400 -33.676  1.00  0.00     0.017 A 
HETATM   17  C   UNL     1     -11.990   0.509 -33.551  1.00  0.00     0.077 A 
HETATM   18  C   UNL     1     -13.247   0.862 -34.038  1.00  0.00     0.039 A 
HETATM   19  C   UNL     1     -13.440   2.108 -34.641  1.00  0.00     0.022 A 
HETATM   20  C   UNL     1     -12.372   2.999 -34.750  1.00  0.00     0.012 A 
HETATM   21 BR   UNL     1     -12.632   4.689 -35.558  1.00  0.00    -0.051 Br
HETATM   22  C   UNL     1     -11.111   2.653 -34.274  1.00  0.00     0.034 A 
BRANCH  17  23
HETATM   23  O   UNL     1     -11.865  -0.727 -32.985  1.00  0.00    -0.360 OA
HETATM   24  H   UNL     1     -11.578  -0.609 -32.050  1.00  0.00     0.217 HD
ENDBRANCH  17  23
ENDBRANCH  15  16
ENDBRANCH   3  14
BRANCH   2  25
HETATM   25  N   UNL     1      -6.958   2.907 -31.668  1.00  0.00    -0.286 NA
HETATM   26  H   UNL     1      -7.756   2.738 -31.047  1.00  0.00     0.125 HD
HETATM   27  H   UNL     1      -6.254   3.454 -31.163  1.00  0.00     0.125 HD
ENDBRANCH   2  25
BRANCH   1  28
HETATM   28  C   UNL     1      -3.979   1.989 -32.161  1.00  0.00     0.257 C 
HETATM   29  N   UNL     1      -3.898   3.247 -32.732  1.00  0.00    -0.356 N 
HETATM   30  H   UNL     1      -4.646   3.468 -33.381  1.00  0.00     0.162 HD
HETATM   31  O   UNL     1      -3.064   1.484 -31.523  1.00  0.00    -0.267 OA
BRANCH  29  32
HETATM   32  C   UNL     1      -2.644   3.941 -32.916  1.00  0.00     0.126 C 
BRANCH  32  33
HETATM   33  C   UNL     1      -2.758   5.125 -33.893  1.00  0.00    -0.005 C 
HETATM   34  C   UNL     1      -4.101   5.119 -34.623  1.00  0.00     0.011 C 
HETATM   35  C   UNL     1      -1.606   5.175 -34.903  1.00  0.00     0.011 C 
ENDBRANCH  32  33
ENDBRANCH  29  32
ENDBRANCH   1  28
TORSDOF 7
ENDMDL
MODEL 3
REMARK VINA RESULT:      -9.5      3.796      7.854
REMARK  7 active torsions:
REMARK  status: ('A' for Active; 'I' for Inactive)
REMARK    1  A    between atoms: C_2  and  C_3 
REMARK    2  A    between atoms: C_3  and  N_4 
REMARK       I    between atoms: N_4  and  C_5 
REMARK    3  A    between atoms: C_5  and  C_6 
REMARK    4  A    between atoms: C_7  and  N_8 
REMARK    5  A    between atoms: N_9  and  N_10 
REMARK    6  A    between atoms: C_11  and  C_12 
REMARK    7  A    between atoms: C_13  and  O_14 
ROOT
HETATM    1  C   UNL     1      -5.031   1.607 -32.639  1.00  0.00     0.104 C 
HETATM    2  C   UNL     1      -6.293   2.189 -32.616  1.00  0.00     0.123 C 
HETATM    3  N   UNL     1      -7.097   1.456 -33.485  1.00  0.00    -0.202 N 
HETATM    4  C   UNL     1      -6.551   0.195 -33.586  1.00  0.00     0.183 A 
HETATM    5  C   UNL     1      -5.234   0.288 -33.135  1.00  0.00     0.124 A 
HETATM    6  N   UNL     1      -4.385  -0.764 -33.250  1.00  0.00    -0.242 NA
HETATM    7  C   UNL     1      -4.931  -1.880 -33.763  1.00  0.00     0.086 A 
HETATM    8  C   UNL     1      -6.285  -1.952 -34.189  1.00  0.00     0.088 A 
HETATM    9  N   UNL     1      -7.120  -0.902 -34.137  1.00  0.00    -0.225 NA
HETATM   10  C   UNL     1      -4.133  -3.012 -33.874  1.00  0.00     0.034 A 
HETATM   11  C   UNL     1      -4.632  -4.215 -34.377  1.00  0.00     0.002 A 
HETATM   12  C   UNL     1      -5.959  -4.288 -34.780  1.00  0.00     0.002 A 
HETATM   13  C   UNL     1      -6.769  -3.156 -34.684  1.00  0.00     0.034 A 
ENDROOT
BRANCH   3  14
HETATM   14  N   UNL     1      -8.202   1.909 -34.185  1.00  0.00    -0.176 NA
HETATM   15  C   UNL     1      -9.317   1.662 -33.563  1.00  0.00     0.153 C 
BRANCH  15  16
HETATM   16  C   UNL     1     -10.631   2.072 -34.081  1.00  0.00     0.017 A 
HETATM   17  C   UNL     1     -10.839   3.302 -34.708  1.00  0.00     0.077 A 
HETATM   18  C   UNL     1     -12.121   3.664 -35.116  1.00  0.00     0.039 A 
HETATM   19  C   UNL     1     -13.194   2.793 -34.907  1.00  0.00     0.022 A 
HETATM   20  C   UNL     1     -12.977   1.560 -34.292  1.00  0.00     0.012 A 
HETATM   21 BR   UNL     1     -14.426   0.376 -34.014  1.00  0.00    -0.051 Br
HETATM   22  C   UNL     1     -11.702   1.193 -33.873  1.00  0.00     0.034 A 
BRANCH  17  23
HETATM   23  O   UNL     1      -9.836   4.202 -34.930  1.00  0.00    -0.360 OA
HETATM   24  H   UNL     1      -9.746   4.766 -34.128  1.00  0.00     0.217 HD
ENDBRANCH  17  23
ENDBRANCH  15  16
ENDBRANCH   3  14
BRANCH   2  25
HETATM   25  N   UNL     1      -6.742   3.331 -32.005  1.00  0.00    -0.286 NA
HETATM   26  H   UNL     1      -7.675   3.279 -31.585  1.00  0.00     0.125 HD
HETATM   27  H   UNL     1      -6.101   3.773 -31.338  1.00  0.00     0.125 HD
ENDBRANCH   2  25
BRANCH   1  28
HETATM   28  C   UNL     1      -3.784   2.258 -32.254  1.00  0.00     0.257 C 
HETATM   29  N   UNL     1      -3.636   3.504 -32.838  1.00  0.00    -0.356 N 
HETATM   30  H   UNL     1      -4.348   3.741 -33.520  1.00  0.00     0.162 HD
HETATM   31  O   UNL     1      -2.914   1.733 -31.571  1.00  0.00    -0.267 OA
BRANCH  29  32
HETATM   32  C   UNL     1      -2.352   4.153 -32.977  1.00  0.00     0.126 C 
BRANCH  32  33
HETATM   33  C   UNL     1      -2.187   4.858 -34.335  1.00  0.00    -0.005 C 
HETATM   34  C   UNL     1      -1.258   6.067 -34.228  1.00  0.00     0.011 C 
HETATM   35  C   UNL     1      -3.526   5.272 -34.956  1.00  0.00     0.011 C 
ENDBRANCH  32  33
ENDBRANCH  29  32
ENDBRANCH   1  28
TORSDOF 7
ENDMDL
MODEL 4
REMARK VINA RESULT:      -8.8      4.006      8.500
REMARK  7 active torsions:
REMARK  status: ('A' for Active; 'I' for Inactive)
REMARK    1  A    between atoms: C_2  and  C_3 
REMARK    2  A    between atoms: C_3  and  N_4 
REMARK       I    between atoms: N_4  and  C_5 
REMARK    3  A    between atoms: C_5  and  C_6 
REMARK    4  A    between atoms: C_7  and  N_8 
REMARK    5  A    between atoms: N_9  and  N_10 
REMARK    6  A    between atoms: C_11  and  C_12 
REMARK    7  A    between atoms: C_13  and  O_14 
ROOT
HETATM    1  C   UNL     1      -5.257   4.129 -30.036  1.00  0.00     0.104 C 
HETATM    2  C   UNL     1      -5.484   2.781 -30.286  1.00  0.00     0.123 C 
HETATM    3  N   UNL     1      -5.140   2.547 -31.615  1.00  0.00    -0.202 N 
HETATM    4  C   UNL     1      -4.238   3.521 -31.983  1.00  0.00     0.183 A 
HETATM    5  C   UNL     1      -4.354   4.553 -31.052  1.00  0.00     0.124 A 
HETATM    6  N   UNL     1      -3.694   5.726 -31.229  1.00  0.00    -0.242 NA
HETATM    7  C   UNL     1      -2.902   5.772 -32.313  1.00  0.00     0.086 A 
HETATM    8  C   UNL     1      -2.784   4.694 -33.231  1.00  0.00     0.088 A 
HETATM    9  N   UNL     1      -3.476   3.550 -33.101  1.00  0.00    -0.225 NA
HETATM   10  C   UNL     1      -2.164   6.928 -32.539  1.00  0.00     0.034 A 
HETATM   11  C   UNL     1      -1.302   7.046 -33.631  1.00  0.00     0.002 A 
HETATM   12  C   UNL     1      -1.177   5.986 -34.519  1.00  0.00     0.002 A 
HETATM   13  C   UNL     1      -1.921   4.824 -34.311  1.00  0.00     0.034 A 
ENDROOT
BRANCH   3  14
HETATM   14  N   UNL     1      -5.651   1.571 -32.452  1.00  0.00    -0.176 NA
HETATM   15  C   UNL     1      -4.817   0.591 -32.637  1.00  0.00     0.153 C 
BRANCH  15  16
HETATM   16  C   UNL     1      -5.133  -0.588 -33.457  1.00  0.00     0.017 A 
HETATM   17  C   UNL     1      -6.179  -0.598 -34.381  1.00  0.00     0.077 A 
HETATM   18  C   UNL     1      -6.474  -1.766 -35.081  1.00  0.00     0.039 A 
HETATM   19  C   UNL     1      -5.717  -2.922 -34.866  1.00  0.00     0.022 A 
HETATM   20  C   UNL     1      -4.664  -2.900 -33.951  1.00  0.00     0.012 A 
HETATM   21 BR   UNL     1      -3.632  -4.459 -33.663  1.00  0.00    -0.051 Br
HETATM   22  C   UNL     1      -4.367  -1.740 -33.241  1.00  0.00     0.034 A 
BRANCH  17  23
HETATM   23  O   UNL     1      -6.964   0.492 -34.628  1.00  0.00    -0.360 OA
HETATM   24  H   UNL     1      -7.836   0.174 -34.958  1.00  0.00     0.217 HD
ENDBRANCH  17  23
ENDBRANCH  15  16
ENDBRANCH   3  14
BRANCH   2  25
HETATM   25  N   UNL     1      -6.051   1.808 -29.504  1.00  0.00    -0.286 NA
HETATM   26  H   UNL     1      -7.008   1.987 -29.185  1.00  0.00     0.125 HD
HETATM   27  H   UNL     1      -5.993   0.848 -29.858  1.00  0.00     0.125 HD
ENDBRANCH   2  25
BRANCH   1  28
HETATM   28  C   UNL     1      -5.863   4.912 -28.965  1.00  0.00     0.257 C 
HETATM   29  N   UNL     1      -4.946   5.724 -28.319  1.00  0.00    -0.356 N 
HETATM   30  H   UNL     1      -3.982   5.585 -28.603  1.00  0.00     0.162 HD
HETATM   31  O   UNL     1      -7.028   4.801 -28.605  1.00  0.00    -0.267 OA
BRANCH  29  32
HETATM   32  C   UNL     1      -5.170   6.251 -26.992  1.00  0.00     0.126 C 
BRANCH  32  33
HETATM   33  C   UNL     1      -4.072   7.236 -26.552  1.00  0.00    -0.005 C 
HETATM   34  C   UNL     1      -4.645   8.628 -26.285  1.00  0.00     0.011 C 
HETATM   35  C   UNL     1      -2.915   7.321 -27.553  1.00  0.00     0.011 C 
ENDBRANCH  32  33
ENDBRANCH  29  32
ENDBRANCH   1  28
TORSDOF 7
ENDMDL
MODEL 5
REMARK VINA RESULT:      -8.5      4.333      7.771
REMARK  7 active torsions:
REMARK  status: ('A' for Active; 'I' for Inactive)
REMARK    1  A    between atoms: C_2  and  C_3 
REMARK    2  A    between atoms: C_3  and  N_4 
REMARK       I    between atoms: N_4  and  C_5 
REMARK    3  A    between atoms: C_5  and  C_6 
REMARK    4  A    between atoms: C_7  and  N_8 
REMARK    5  A    between atoms: N_9  and  N_10 
REMARK    6  A    between atoms: C_11  and  C_12 
REMARK    7  A    between atoms: C_13  and  O_14 
ROOT
HETATM    1  C   UNL     1      -9.883   2.629 -32.216  1.00  0.00     0.104 C 
HETATM    2  C   UNL     1      -9.492   1.310 -32.017  1.00  0.00     0.123 C 
HETATM    3  N   UNL     1      -8.165   1.336 -31.594  1.00  0.00    -0.202 N 
HETATM    4  C   UNL     1      -7.940   2.570 -31.025  1.00  0.00     0.183 A 
HETATM    5  C   UNL     1      -8.960   3.412 -31.466  1.00  0.00     0.124 A 
HETATM    6  N   UNL     1      -8.931   4.741 -31.193  1.00  0.00    -0.242 NA
HETATM    7  C   UNL     1      -7.898   5.141 -30.433  1.00  0.00     0.086 A 
HETATM    8  C   UNL     1      -6.886   4.254 -29.975  1.00  0.00     0.088 A 
HETATM    9  N   UNL     1      -6.869   2.948 -30.288  1.00  0.00    -0.225 NA
HETATM   10  C   UNL     1      -7.822   6.482 -30.077  1.00  0.00     0.034 A 
HETATM   11  C   UNL     1      -6.792   6.971 -29.273  1.00  0.00     0.002 A 
HETATM   12  C   UNL     1      -5.812   6.100 -28.815  1.00  0.00     0.002 A 
HETATM   13  C   UNL     1      -5.869   4.753 -29.173  1.00  0.00     0.034 A 
ENDROOT
BRANCH   3  14
HETATM   14  N   UNL     1      -7.213   0.347 -31.768  1.00  0.00    -0.176 NA
HETATM   15  C   UNL     1      -7.104  -0.022 -33.010  1.00  0.00     0.153 C 
BRANCH  15  16
HETATM   16  C   UNL     1      -6.139  -1.034 -33.464  1.00  0.00     0.017 A 
HETATM   17  C   UNL     1      -4.762  -0.889 -33.286  1.00  0.00     0.077 A 
HETATM   18  C   UNL     1      -3.892  -1.848 -33.799  1.00  0.00     0.039 A 
HETATM   19  C   UNL     1      -4.397  -2.959 -34.481  1.00  0.00     0.022 A 
HETATM   20  C   UNL     1      -5.775  -3.105 -34.643  1.00  0.00     0.012 A 
HETATM   21 BR   UNL     1      -6.463  -4.610 -35.558  1.00  0.00    -0.051 Br
HETATM   22  C   UNL     1      -6.652  -2.148 -34.142  1.00  0.00     0.034 A 
BRANCH  17  23
HETATM   23  O   UNL     1      -4.204   0.178 -32.642  1.00  0.00    -0.360 OA
HETATM   24  H   UNL     1      -4.703   0.987 -32.898  1.00  0.00     0.217 HD
ENDBRANCH  17  23
ENDBRANCH  15  16
ENDBRANCH   3  14
BRANCH   2  25
HETATM   25  N   UNL     1     -10.147   0.133 -32.274  1.00  0.00    -0.286 NA
HETATM   26  H   UNL     1     -11.089   0.047 -31.881  1.00  0.00     0.125 HD
HETATM   27  H   UNL     1     -10.164  -0.174 -33.251  1.00  0.00     0.125 HD
ENDBRANCH   2  25
BRANCH   1  28
HETATM   28  C   UNL     1     -10.994   3.073 -33.051  1.00  0.00     0.257 C 
HETATM   29  N   UNL     1     -12.182   2.441 -32.728  1.00  0.00    -0.356 N 
HETATM   30  H   UNL     1     -12.097   1.697 -32.045  1.00  0.00     0.162 HD
HETATM   31  O   UNL     1     -10.881   3.843 -33.996  1.00  0.00    -0.267 OA
BRANCH  29  32
HETATM   32  C   UNL     1     -13.299   2.366 -33.644  1.00  0.00     0.126 C 
BRANCH  32  33
HETATM   33  C   UNL     1     -14.398   1.403 -33.161  1.00  0.00    -0.005 C 
HETATM   34  C   UNL     1     -15.069   0.688 -34.335  1.00  0.00     0.011 C 
HETATM   35  C   UNL     1     -15.452   2.094 -32.289  1.00  0.00     0.011 C 
ENDBRANCH  32  33
ENDBRANCH  29  32
ENDBRANCH   1  28
TORSDOF 7
ENDMDL
MODEL 6
REMARK VINA RESULT:      -8.5      3.093      7.531
REMARK  7 active torsions:
REMARK  status: ('A' for Active; 'I' for Inactive)
REMARK    1  A    between atoms: C_2  and  C_3 
REMARK    2  A    between atoms: C_3  and  N_4 
REMARK       I    between atoms: N_4  and  C_5 
REMARK    3  A    between atoms: C_5  and  C_6 
REMARK    4  A    between atoms: C_7  and  N_8 
REMARK    5  A    between atoms: N_9  and  N_10 
REMARK    6  A    between atoms: C_11  and  C_12 
REMARK    7  A    between atoms: C_13  and  O_14 
ROOT
HETATM    1  C   UNL     1      -6.646   3.691 -32.761  1.00  0.00     0.104 C 
HETATM    2  C   UNL     1      -6.595   2.501 -32.044  1.00  0.00     0.123 C 
HETATM    3  N   UNL     1      -5.261   2.101 -32.010  1.00  0.00    -0.202 N 
HETATM    4  C   UNL     1      -4.489   3.229 -32.184  1.00  0.00     0.183 A 
HETATM    5  C   UNL     1      -5.320   4.209 -32.726  1.00  0.00     0.124 A 
HETATM    6  N   UNL     1      -4.813   5.394 -33.148  1.00  0.00    -0.242 NA
HETATM    7  C   UNL     1      -3.494   5.551 -32.943  1.00  0.00     0.086 A 
HETATM    8  C   UNL     1      -2.677   4.544 -32.364  1.00  0.00     0.088 A 
HETATM    9  N   UNL     1      -3.154   3.343 -31.996  1.00  0.00    -0.225 NA
HETATM   10  C   UNL     1      -2.909   6.756 -33.313  1.00  0.00     0.034 A 
HETATM   11  C   UNL     1      -1.550   7.004 -33.115  1.00  0.00     0.002 A 
HETATM   12  C   UNL     1      -0.756   6.024 -32.535  1.00  0.00     0.002 A 
HETATM   13  C   UNL     1      -1.327   4.804 -32.168  1.00  0.00     0.034 A 
ENDROOT
BRANCH   3  14
HETATM   14  N   UNL     1      -4.779   0.809 -31.899  1.00  0.00    -0.176 NA
HETATM   15  C   UNL     1      -5.119   0.065 -32.910  1.00  0.00     0.153 C 
BRANCH  15  16
HETATM   16  C   UNL     1      -4.704  -1.339 -33.048  1.00  0.00     0.017 A 
HETATM   17  C   UNL     1      -3.636  -1.879 -32.329  1.00  0.00     0.077 A 
HETATM   18  C   UNL     1      -3.246  -3.197 -32.553  1.00  0.00     0.039 A 
HETATM   19  C   UNL     1      -3.927  -3.980 -33.489  1.00  0.00     0.022 A 
HETATM   20  C   UNL     1      -5.002  -3.439 -34.194  1.00  0.00     0.012 A 
HETATM   21 BR   UNL     1      -5.932  -4.498 -35.456  1.00  0.00    -0.051 Br
HETATM   22  C   UNL     1      -5.395  -2.120 -33.984  1.00  0.00     0.034 A 
BRANCH  17  23
HETATM   23  O   UNL     1      -2.922  -1.164 -31.411  1.00  0.00    -0.360 OA
HETATM   24  H   UNL     1      -3.050  -0.206 -31.599  1.00  0.00     0.217 HD
ENDBRANCH  17  23
ENDBRANCH  15  16
ENDBRANCH   3  14
BRANCH   2  25
HETATM   25  N   UNL     1      -7.598   1.717 -31.536  1.00  0.00    -0.286 NA
HETATM   26  H   UNL     1      -8.175   2.144 -30.804  1.00  0.00     0.125 HD
HETATM   27  H   UNL     1      -8.211   1.262 -32.219  1.00  0.00     0.125 HD
ENDBRANCH   2  25
BRANCH   1  28
HETATM   28  C   UNL     1      -7.826   4.239 -33.420  1.00  0.00     0.257 C 
HETATM   29  N   UNL     1      -8.996   3.631 -33.002  1.00  0.00    -0.356 N 
HETATM   30  H   UNL     1      -8.865   2.833 -32.389  1.00  0.00     0.162 HD
HETATM   31  O   UNL     1      -7.790   5.076 -34.314  1.00  0.00    -0.267 OA
BRANCH  29  32
HETATM   32  C   UNL     1     -10.216   3.668 -33.777  1.00  0.00     0.126 C 
BRANCH  32  33
HETATM   33  C   UNL     1     -10.877   2.285 -33.911  1.00  0.00    -0.005 C 
HETATM   34  C   UNL     1      -9.839   1.192 -34.164  1.00  0.00     0.011 C 
HETATM   35  C   UNL     1     -11.961   2.248 -34.994  1.00  0.00     0.011 C 
ENDBRANCH  32  33
ENDBRANCH  29  32
ENDBRANCH   1  28
TORSDOF 7
ENDMDL
MODEL 7
REMARK VINA RESULT:      -8.4      2.784      5.568
REMARK  7 active torsions:
REMARK  status: ('A' for Active; 'I' for Inactive)
REMARK    1  A    between atoms: C_2  and  C_3 
REMARK    2  A    between atoms: C_3  and  N_4 
REMARK       I    between atoms: N_4  and  C_5 
REMARK    3  A    between atoms: C_5  and  C_6 
REMARK    4  A    between atoms: C_7  and  N_8 
REMARK    5  A    between atoms: N_9  and  N_10 
REMARK    6  A    between atoms: C_11  and  C_12 
REMARK    7  A    between atoms: C_13  and  O_14 
ROOT
HETATM    1  C   UNL     1      -8.571   0.850 -33.481  1.00  0.00     0.104 C 
HETATM    2  C   UNL     1      -7.794   1.995 -33.353  1.00  0.00     0.123 C 
HETATM    3  N   UNL     1      -6.498   1.578 -33.057  1.00  0.00    -0.202 N 
HETATM    4  C   UNL     1      -6.361   0.293 -33.533  1.00  0.00     0.183 A 
HETATM    5  C   UNL     1      -7.648  -0.206 -33.729  1.00  0.00     0.124 A 
HETATM    6  N   UNL     1      -7.847  -1.508 -34.056  1.00  0.00    -0.242 NA
HETATM    7  C   UNL     1      -6.725  -2.226 -34.227  1.00  0.00     0.086 A 
HETATM    8  C   UNL     1      -5.425  -1.684 -34.047  1.00  0.00     0.088 A 
HETATM    9  N   UNL     1      -5.214  -0.413 -33.665  1.00  0.00    -0.225 NA
HETATM   10  C   UNL     1      -6.848  -3.559 -34.602  1.00  0.00     0.034 A 
HETATM   11  C   UNL     1      -5.730  -4.366 -34.820  1.00  0.00     0.002 A 
HETATM   12  C   UNL     1      -4.460  -3.830 -34.657  1.00  0.00     0.002 A 
HETATM   13  C   UNL     1      -4.321  -2.496 -34.270  1.00  0.00     0.034 A 
ENDROOT
BRANCH   3  14
HETATM   14  N   UNL     1      -5.534   2.279 -32.354  1.00  0.00    -0.176 NA
HETATM   15  C   UNL     1      -5.074   3.295 -33.021  1.00  0.00     0.153 C 
BRANCH  15  16
HETATM   16  C   UNL     1      -4.066   4.220 -32.482  1.00  0.00     0.017 A 
HETATM   17  C   UNL     1      -4.026   4.581 -31.134  1.00  0.00     0.077 A 
HETATM   18  C   UNL     1      -3.091   5.515 -30.695  1.00  0.00     0.039 A 
HETATM   19  C   UNL     1      -2.187   6.081 -31.599  1.00  0.00     0.022 A 
HETATM   20  C   UNL     1      -2.224   5.705 -32.942  1.00  0.00     0.012 A 
HETATM   21 BR   UNL     1      -0.999   6.463 -34.167  1.00  0.00    -0.051 Br
HETATM   22  C   UNL     1      -3.160   4.780 -33.393  1.00  0.00     0.034 A 
BRANCH  17  23
HETATM   23  O   UNL     1      -4.888   4.075 -30.203  1.00  0.00    -0.360 OA
HETATM   24  H   UNL     1      -4.475   4.178 -29.315  1.00  0.00     0.217 HD
ENDBRANCH  17  23
ENDBRANCH  15  16
ENDBRANCH   3  14
BRANCH   2  25
HETATM   25  N   UNL     1      -8.142   3.321 -33.365  1.00  0.00    -0.286 NA
HETATM   26  H   UNL     1      -7.796   3.870 -34.158  1.00  0.00     0.125 HD
HETATM   27  H   UNL     1      -9.134   3.533 -33.222  1.00  0.00     0.125 HD
ENDBRANCH   2  25
BRANCH   1  28
HETATM   28  C   UNL     1     -10.022   0.786 -33.350  1.00  0.00     0.257 C 
HETATM   29  N   UNL     1     -10.640   1.964 -33.733  1.00  0.00    -0.356 N 
HETATM   30  H   UNL     1     -10.007   2.727 -33.944  1.00  0.00     0.162 HD
HETATM   31  O   UNL     1     -10.630  -0.161 -32.867  1.00  0.00    -0.267 OA
BRANCH  29  32
HETATM   32  C   UNL     1     -11.975   2.318 -33.308  1.00  0.00     0.126 C 
BRANCH  32  33
HETATM   33  C   UNL     1     -13.008   2.215 -34.444  1.00  0.00    -0.005 C 
HETATM   34  C   UNL     1     -13.638   0.823 -34.501  1.00  0.00     0.011 C 
HETATM   35  C   UNL     1     -12.426   2.590 -35.811  1.00  0.00     0.011 C 
ENDBRANCH  32  33
ENDBRANCH  29  32
ENDBRANCH   1  28
TORSDOF 7
ENDMDL
MODEL 8
REMARK VINA RESULT:      -8.3      2.847      5.314
REMARK  7 active torsions:
REMARK  status: ('A' for Active; 'I' for Inactive)
REMARK    1  A    between atoms: C_2  and  C_3 
REMARK    2  A    between atoms: C_3  and  N_4 
REMARK       I    between atoms: N_4  and  C_5 
REMARK    3  A    between atoms: C_5  and  C_6 
REMARK    4  A    between atoms: C_7  and  N_8 
REMARK    5  A    between atoms: N_9  and  N_10 
REMARK    6  A    between atoms: C_11  and  C_12 
REMARK    7  A    between atoms: C_13  and  O_14 
ROOT
HETATM    1  C   UNL     1      -6.264   3.998 -33.121  1.00  0.00     0.104 C 
HETATM    2  C   UNL     1      -5.381   5.015 -32.777  1.00  0.00     0.123 C 
HETATM    3  N   UNL     1      -4.449   4.467 -31.898  1.00  0.00    -0.202 N 
HETATM    4  C   UNL     1      -4.411   3.110 -32.134  1.00  0.00     0.183 A 
HETATM    5  C   UNL     1      -5.576   2.786 -32.828  1.00  0.00     0.124 A 
HETATM    6  N   UNL     1      -5.900   1.493 -33.078  1.00  0.00    -0.242 NA
HETATM    7  C   UNL     1      -4.994   0.592 -32.662  1.00  0.00     0.086 A 
HETATM    8  C   UNL     1      -3.801   0.953 -31.979  1.00  0.00     0.088 A 
HETATM    9  N   UNL     1      -3.497   2.225 -31.673  1.00  0.00    -0.225 NA
HETATM   10  C   UNL     1      -5.237  -0.752 -32.918  1.00  0.00     0.034 A 
HETATM   11  C   UNL     1      -4.334  -1.747 -32.537  1.00  0.00     0.002 A 
HETATM   12  C   UNL     1      -3.163  -1.390 -31.883  1.00  0.00     0.002 A 
HETATM   13  C   UNL     1      -2.911  -0.045 -31.609  1.00  0.00     0.034 A 
ENDROOT
BRANCH   3  14
HETATM   14  N   UNL     1      -3.738   5.130 -30.914  1.00  0.00    -0.176 NA
HETATM   15  C   UNL     1      -2.577   5.539 -31.334  1.00  0.00     0.153 C 
BRANCH  15  16
HETATM   16  C   UNL     1      -1.642   6.299 -30.491  1.00  0.00     0.017 A 
HETATM   17  C   UNL     1      -0.407   5.785 -30.090  1.00  0.00     0.077 A 
HETATM   18  C   UNL     1       0.406   6.525 -29.235  1.00  0.00     0.039 A 
HETATM   19  C   UNL     1      -0.008   7.784 -28.788  1.00  0.00     0.022 A 
HETATM   20  C   UNL     1      -1.236   8.297 -29.204  1.00  0.00     0.012 A 
HETATM   21 BR   UNL     1      -1.797  10.002 -28.608  1.00  0.00    -0.051 Br
HETATM   22  C   UNL     1      -2.060   7.562 -30.051  1.00  0.00     0.034 A 
BRANCH  17  23
HETATM   23  O   UNL     1       0.049   4.559 -30.480  1.00  0.00    -0.360 OA
HETATM   24  H   UNL     1      -0.700   4.068 -30.889  1.00  0.00     0.217 HD
ENDBRANCH  17  23
ENDBRANCH  15  16
ENDBRANCH   3  14
BRANCH   2  25
HETATM   25  N   UNL     1      -5.395   6.353 -33.074  1.00  0.00    -0.286 NA
HETATM   26  H   UNL     1      -5.075   6.609 -34.013  1.00  0.00     0.125 HD
HETATM   27  H   UNL     1      -6.265   6.856 -32.871  1.00  0.00     0.125 HD
ENDBRANCH   2  25
BRANCH   1  28
HETATM   28  C   UNL     1      -7.615   4.182 -33.641  1.00  0.00     0.257 C 
HETATM   29  N   UNL     1      -8.456   3.134 -33.311  1.00  0.00    -0.356 N 
HETATM   30  H   UNL     1      -8.000   2.350 -32.856  1.00  0.00     0.162 HD
HETATM   31  O   UNL     1      -7.952   5.106 -34.370  1.00  0.00    -0.267 OA
BRANCH  29  32
HETATM   32  C   UNL     1      -9.674   2.853 -34.037  1.00  0.00     0.126 C 
BRANCH  32  33
HETATM   33  C   UNL     1     -10.056   1.362 -34.002  1.00  0.00    -0.005 C 
HETATM   34  C   UNL     1     -11.569   1.175 -33.896  1.00  0.00     0.011 C 
HETATM   35  C   UNL     1      -9.347   0.594 -32.880  1.00  0.00     0.011 C 
ENDBRANCH  32  33
ENDBRANCH  29  32
ENDBRANCH   1  28
TORSDOF 7
ENDMDL
MODEL 9
REMARK VINA RESULT:      -8.3      3.804      7.734
REMARK  7 active torsions:
REMARK  status: ('A' for Active; 'I' for Inactive)
REMARK    1  A    between atoms: C_2  and  C_3 
REMARK    2  A    between atoms: C_3  and  N_4 
REMARK       I    between atoms: N_4  and  C_5 
REMARK    3  A    between atoms: C_5  and  C_6 
REMARK    4  A    between atoms: C_7  and  N_8 
REMARK    5  A    between atoms: N_9  and  N_10 
REMARK    6  A    between atoms: C_11  and  C_12 
REMARK    7  A    between atoms: C_13  and  O_14 
ROOT
HETATM    1  C   UNL     1      -5.176   3.786 -31.647  1.00  0.00     0.104 C 
HETATM    2  C   UNL     1      -6.476   4.115 -31.281  1.00  0.00     0.123 C 
HETATM    3  N   UNL     1      -7.324   3.237 -31.952  1.00  0.00    -0.202 N 
HETATM    4  C   UNL     1      -6.595   2.105 -32.245  1.00  0.00     0.183 A 
HETATM    5  C   UNL     1      -5.248   2.451 -32.137  1.00  0.00     0.124 A 
HETATM    6  N   UNL     1      -4.275   1.582 -32.509  1.00  0.00    -0.242 NA
HETATM    7  C   UNL     1      -4.715   0.381 -32.919  1.00  0.00     0.086 A 
HETATM    8  C   UNL     1      -6.094   0.047 -32.994  1.00  0.00     0.088 A 
HETATM    9  N   UNL     1      -7.070   0.917 -32.685  1.00  0.00    -0.225 NA
HETATM   10  C   UNL     1      -3.775  -0.577 -33.280  1.00  0.00     0.034 A 
HETATM   11  C   UNL     1      -4.151  -1.855 -33.695  1.00  0.00     0.002 A 
HETATM   12  C   UNL     1      -5.498  -2.183 -33.755  1.00  0.00     0.002 A 
HETATM   13  C   UNL     1      -6.455  -1.229 -33.406  1.00  0.00     0.034 A 
ENDROOT
BRANCH   3  14
HETATM   14  N   UNL     1      -8.635   3.466 -32.330  1.00  0.00    -0.176 NA
HETATM   15  C   UNL     1      -8.757   3.638 -33.613  1.00  0.00     0.153 C 
BRANCH  15  16
HETATM   16  C   UNL     1     -10.052   3.865 -34.272  1.00  0.00     0.017 A 
HETATM   17  C   UNL     1     -10.341   5.037 -34.972  1.00  0.00     0.077 A 
HETATM   18  C   UNL     1     -11.610   5.223 -35.517  1.00  0.00     0.039 A 
HETATM   19  C   UNL     1     -12.587   4.234 -35.373  1.00  0.00     0.022 A 
HETATM   20  C   UNL     1     -12.286   3.059 -34.684  1.00  0.00     0.012 A 
HETATM   21 BR   UNL     1     -13.603   1.714 -34.493  1.00  0.00    -0.051 Br
HETATM   22  C   UNL     1     -11.025   2.867 -34.128  1.00  0.00     0.034 A 
BRANCH  17  23
HETATM   23  O   UNL     1      -9.437   6.046 -35.137  1.00  0.00    -0.360 OA
HETATM   24  H   UNL     1      -9.721   6.808 -34.582  1.00  0.00     0.217 HD
ENDBRANCH  17  23
ENDBRANCH  15  16
ENDBRANCH   3  14
BRANCH   2  25
HETATM   25  N   UNL     1      -6.959   5.151 -30.524  1.00  0.00    -0.286 NA
HETATM   26  H   UNL     1      -7.866   5.532 -30.811  1.00  0.00     0.125 HD
HETATM   27  H   UNL     1      -6.965   5.010 -29.509  1.00  0.00     0.125 HD
ENDBRANCH   2  25
BRANCH   1  28
HETATM   28  C   UNL     1      -4.017   4.668 -31.559  1.00  0.00     0.257 C 
HETATM   29  N   UNL     1      -3.064   4.386 -32.522  1.00  0.00    -0.356 N 
HETATM   30  H   UNL     1      -3.249   3.556 -33.074  1.00  0.00     0.162 HD
HETATM   31  O   UNL     1      -3.851   5.502 -30.678  1.00  0.00    -0.267 OA
BRANCH  29  32
HETATM   32  C   UNL     1      -1.682   4.793 -32.395  1.00  0.00     0.126 C 
BRANCH  32  33
HETATM   33  C   UNL     1      -1.213   5.674 -33.567  1.00  0.00    -0.005 C 
HETATM   34  C   UNL     1      -1.619   7.134 -33.367  1.00  0.00     0.011 C 
HETATM   35  C   UNL     1      -1.708   5.166 -34.926  1.00  0.00     0.011 C 
ENDBRANCH  32  33
ENDBRANCH  29  32
ENDBRANCH   1  28
TORSDOF 7
ENDMDL
MODEL 10
REMARK VINA RESULT:      -8.3      3.738      8.173
REMARK  7 active torsions:
REMARK  status: ('A' for Active; 'I' for Inactive)
REMARK    1  A    between atoms: C_2  and  C_3 
REMARK    2  A    between atoms: C_3  and  N_4 
REMARK       I    between atoms: N_4  and  C_5 
REMARK    3  A    between atoms: C_5  and  C_6 
REMARK    4  A    between atoms: C_7  and  N_8 
REMARK    5  A    between atoms: N_9  and  N_10 
REMARK    6  A    between atoms: C_11  and  C_12 
REMARK    7  A    between atoms: C_13  and  O_14 
ROOT
HETATM    1  C   UNL     1      -5.843   3.537 -30.269  1.00  0.00     0.104 C 
HETATM    2  C   UNL     1      -5.515   2.188 -30.190  1.00  0.00     0.123 C 
HETATM    3  N   UNL     1      -4.659   1.913 -31.254  1.00  0.00    -0.202 N 
HETATM    4  C   UNL     1      -4.052   3.097 -31.610  1.00  0.00     0.183 A 
HETATM    5  C   UNL     1      -4.823   4.126 -31.069  1.00  0.00     0.124 A 
HETATM    6  N   UNL     1      -4.562   5.423 -31.372  1.00  0.00    -0.242 NA
HETATM    7  C   UNL     1      -3.493   5.616 -32.162  1.00  0.00     0.086 A 
HETATM    8  C   UNL     1      -2.710   4.548 -32.678  1.00  0.00     0.088 A 
HETATM    9  N   UNL     1      -2.991   3.258 -32.435  1.00  0.00    -0.225 NA
HETATM   10  C   UNL     1      -3.139   6.921 -32.483  1.00  0.00     0.034 A 
HETATM   11  C   UNL     1      -2.030   7.205 -33.281  1.00  0.00     0.002 A 
HETATM   12  C   UNL     1      -1.258   6.161 -33.772  1.00  0.00     0.002 A 
HETATM   13  C   UNL     1      -1.607   4.845 -33.467  1.00  0.00     0.034 A 
ENDROOT
BRANCH   3  14
HETATM   14  N   UNL     1      -4.488   0.700 -31.898  1.00  0.00    -0.176 NA
HETATM   15  C   UNL     1      -5.470   0.426 -32.705  1.00  0.00     0.153 C 
BRANCH  15  16
HETATM   16  C   UNL     1      -5.512  -0.789 -33.533  1.00  0.00     0.017 A 
HETATM   17  C   UNL     1      -6.418  -0.948 -34.583  1.00  0.00     0.077 A 
HETATM   18  C   UNL     1      -6.456  -2.149 -35.288  1.00  0.00     0.039 A 
HETATM   19  C   UNL     1      -5.583  -3.187 -34.952  1.00  0.00     0.022 A 
HETATM   20  C   UNL     1      -4.671  -3.016 -33.911  1.00  0.00     0.012 A 
HETATM   21 BR   UNL     1      -3.482  -4.416 -33.458  1.00  0.00    -0.051 Br
HETATM   22  C   UNL     1      -4.630  -1.823 -33.195  1.00  0.00     0.034 A 
BRANCH  17  23
HETATM   23  O   UNL     1      -7.305   0.021 -34.953  1.00  0.00    -0.360 OA
HETATM   24  H   UNL     1      -6.942   0.893 -34.675  1.00  0.00     0.217 HD
ENDBRANCH  17  23
ENDBRANCH  15  16
ENDBRANCH   3  14
BRANCH   2  25
HETATM   25  N   UNL     1      -5.978   1.200 -29.360  1.00  0.00    -0.286 NA
HETATM   26  H   UNL     1      -6.956   1.281 -29.067  1.00  0.00     0.125 HD
HETATM   27  H   UNL     1      -5.797   0.236 -29.655  1.00  0.00     0.125 HD
ENDBRANCH   2  25
BRANCH   1  28
HETATM   28  C   UNL     1      -7.012   4.167 -29.666  1.00  0.00     0.257 C 
HETATM   29  N   UNL     1      -6.743   5.439 -29.193  1.00  0.00    -0.356 N 
HETATM   30  H   UNL     1      -5.767   5.709 -29.232  1.00  0.00     0.162 HD
HETATM   31  O   UNL     1      -8.089   3.607 -29.505  1.00  0.00    -0.267 OA
BRANCH  29  32
HETATM   32  C   UNL     1      -7.564   6.091 -28.197  1.00  0.00     0.126 C 
BRANCH  32  33
HETATM   33  C   UNL     1      -8.366   7.273 -28.771  1.00  0.00    -0.005 C 
HETATM   34  C   UNL     1      -8.778   8.254 -27.673  1.00  0.00     0.011 C 
HETATM   35  C   UNL     1      -9.595   6.824 -29.570  1.00  0.00     0.011 C 
ENDBRANCH  32  33
ENDBRANCH  29  32
ENDBRANCH   1  28
TORSDOF 7
ENDMDL
