MODEL 1
REMARK VINA RESULT:      -9.3      0.000      0.000
REMARK  7 active torsions:
REMARK  status: ('A' for Active; 'I' for Inactive)
REMARK       I    between atoms: C_2  and  N_3 
REMARK    1  A    between atoms: N_3  and  C_4 
REMARK    2  A    between atoms: C_7  and  N_8 
REMARK       I    between atoms: N_8  and  C_9 
REMARK    3  A    between atoms: C_9  and  C_10 
REMARK    4  A    between atoms: C_11  and  C_12 
REMARK    5  A    between atoms: C_13  and  O_14 
REMARK    6  A    between atoms: N_20  and  C_21 
REMARK    7  A    between atoms: C_24  and  O_25 
ROOT
HETATM    1  C   UNL     1      -4.554   3.184 -33.061  1.00  0.00     0.106 C 
HETATM    2  C   UNL     1      -5.698   2.189 -32.788  1.00  0.00     0.142 C 
HETATM    3  N   UNL     1      -5.120   0.916 -32.273  1.00  0.00    -0.308 N 
HETATM    4  C   UNL     1      -4.201   0.929 -31.220  1.00  0.00     0.225 C 
HETATM    5  O   UNL     1      -3.977  -0.007 -30.451  1.00  0.00    -0.273 OA
HETATM    6  C   UNL     1      -3.257   2.125 -31.182  1.00  0.00     0.104 C 
HETATM    7  C   UNL     1      -3.719   3.425 -31.813  1.00  0.00     0.026 C 
ENDROOT
BRANCH   1   8
HETATM    8  C   UNL     1      -4.991   4.517 -33.638  1.00  0.00     0.228 C 
HETATM    9  N   UNL     1      -4.425   5.705 -33.285  1.00  0.00    -0.327 N 
HETATM   10  H   UNL     1      -4.872   6.439 -33.828  1.00  0.00     0.169 HD
HETATM   11  O   UNL     1      -5.943   4.601 -34.419  1.00  0.00    -0.273 OA
BRANCH   9  12
HETATM   12  C   UNL     1      -3.360   6.130 -32.474  1.00  0.00     0.034 A 
HETATM   13  C   UNL     1      -2.016   6.192 -32.824  1.00  0.00     0.032 A 
HETATM   14  C   UNL     1      -1.064   6.740 -31.946  1.00  0.00     0.032 A 
HETATM   15  C   UNL     1      -1.435   7.206 -30.686  1.00  0.00     0.034 A 
HETATM   16  C   UNL     1      -2.766   7.067 -30.296  1.00  0.00     0.032 A 
HETATM   17  C   UNL     1      -3.714   6.537 -31.179  1.00  0.00     0.032 A 
BRANCH  15  18
HETATM   18  N   UNL     1      -0.555   7.821 -29.775  1.00  0.00    -0.328 N 
HETATM   19  C   UNL     1       0.302   7.199 -28.885  1.00  0.00     0.218 C 
HETATM   20  C   UNL     1       1.159   8.178 -28.119  1.00  0.00     0.117 C 
HETATM   21  O   UNL     1       0.435   5.992 -28.715  1.00  0.00    -0.274 OA
HETATM   22  H   UNL     1      -0.501   8.831 -29.826  1.00  0.00     0.169 HD
ENDBRANCH  15  18
ENDBRANCH   9  12
ENDBRANCH   1   8
BRANCH   2  23
HETATM   23  C   UNL     1      -6.879   2.653 -31.916  1.00  0.00    -0.001 A 
HETATM   24  C   UNL     1      -8.178   2.762 -32.471  1.00  0.00     0.076 A 
HETATM   25  C   UNL     1      -9.239   3.246 -31.691  1.00  0.00     0.037 A 
HETATM   26  C   UNL     1      -9.039   3.603 -30.359  1.00  0.00     0.003 A 
HETATM   27  C   UNL     1      -7.780   3.466 -29.790  1.00  0.00     0.001 A 
HETATM   28  C   UNL     1      -6.715   2.990 -30.558  1.00  0.00     0.012 A 
BRANCH  24  29
HETATM   29  O   UNL     1      -8.318   2.395 -33.788  1.00  0.00    -0.355 OA
HETATM   30  C   UNL     1      -9.530   1.753 -34.163  1.00  0.00     0.210 C 
ENDBRANCH  24  29
ENDBRANCH   2  23
BRANCH   3  31
HETATM   31  C   UNL     1      -5.430  -0.317 -32.936  1.00  0.00     0.038 A 
HETATM   32  C   UNL     1      -4.432  -1.140 -33.464  1.00  0.00     0.032 A 
HETATM   33  C   UNL     1      -4.756  -2.262 -34.237  1.00  0.00     0.039 A 
HETATM   34  C   UNL     1      -6.084  -2.565 -34.526  1.00  0.00     0.068 A 
HETATM   35  C   UNL     1      -7.092  -1.777 -33.979  1.00  0.00     0.039 A 
HETATM   36  C   UNL     1      -6.766  -0.667 -33.186  1.00  0.00     0.032 A 
BRANCH  34  37
HETATM   37  O   UNL     1      -6.278  -3.647 -35.339  1.00  0.00    -0.356 OA
HETATM   38  C   UNL     1      -5.641  -4.853 -34.926  1.00  0.00     0.210 C 
ENDBRANCH  34  37
ENDBRANCH   3  31
TORSDOF 7
ENDMDL
MODEL 2
REMARK VINA RESULT:      -8.9      2.428      8.545
REMARK  7 active torsions:
REMARK  status: ('A' for Active; 'I' for Inactive)
REMARK       I    between atoms: C_2  and  N_3 
REMARK    1  A    between atoms: N_3  and  C_4 
REMARK    2  A    between atoms: C_7  and  N_8 
REMARK       I    between atoms: N_8  and  C_9 
REMARK    3  A    between atoms: C_9  and  C_10 
REMARK    4  A    between atoms: C_11  and  C_12 
REMARK    5  A    between atoms: C_13  and  O_14 
REMARK    6  A    between atoms: N_20  and  C_21 
REMARK    7  A    between atoms: C_24  and  O_25 
ROOT
HETATM    1  C   UNL     1      -5.567   3.995 -32.246  1.00  0.00     0.106 C 
HETATM    2  C   UNL     1      -5.001   5.235 -31.526  1.00  0.00     0.142 C 
HETATM    3  N   UNL     1      -3.769   5.684 -32.231  1.00  0.00    -0.308 N 
HETATM    4  C   UNL     1      -3.769   5.864 -33.617  1.00  0.00     0.225 C 
HETATM    5  O   UNL     1      -3.004   6.595 -34.247  1.00  0.00    -0.273 OA
HETATM    6  C   UNL     1      -4.646   4.899 -34.407  1.00  0.00     0.104 C 
HETATM    7  C   UNL     1      -5.848   4.287 -33.712  1.00  0.00     0.026 C 
ENDROOT
BRANCH   1   8
HETATM    8  C   UNL     1      -6.805   3.395 -31.607  1.00  0.00     0.228 C 
HETATM    9  N   UNL     1      -7.198   2.106 -31.806  1.00  0.00    -0.327 N 
HETATM   10  H   UNL     1      -8.033   1.943 -31.250  1.00  0.00     0.169 HD
HETATM   11  O   UNL     1      -7.569   4.077 -30.916  1.00  0.00    -0.273 OA
BRANCH   9  12
HETATM   12  C   UNL     1      -6.699   0.976 -32.474  1.00  0.00     0.034 A 
HETATM   13  C   UNL     1      -5.791   0.046 -31.980  1.00  0.00     0.032 A 
HETATM   14  C   UNL     1      -5.456  -1.101 -32.720  1.00  0.00     0.032 A 
HETATM   15  C   UNL     1      -5.998  -1.324 -33.985  1.00  0.00     0.034 A 
HETATM   16  C   UNL     1      -6.843  -0.352 -34.522  1.00  0.00     0.032 A 
HETATM   17  C   UNL     1      -7.187   0.781 -33.775  1.00  0.00     0.032 A 
BRANCH  15  18
HETATM   18  N   UNL     1      -5.760  -2.474 -34.761  1.00  0.00    -0.328 N 
HETATM   19  C   UNL     1      -6.488  -3.651 -34.763  1.00  0.00     0.218 C 
HETATM   20  C   UNL     1      -5.990  -4.642 -35.787  1.00  0.00     0.117 C 
HETATM   21  O   UNL     1      -7.465  -3.911 -34.069  1.00  0.00    -0.274 OA
HETATM   22  H   UNL     1      -5.010  -2.403 -35.438  1.00  0.00     0.169 HD
ENDBRANCH  15  18
ENDBRANCH   9  12
ENDBRANCH   1   8
BRANCH   2  23
HETATM   23  C   UNL     1      -5.947   6.419 -31.255  1.00  0.00    -0.001 A 
HETATM   24  C   UNL     1      -6.137   6.896 -29.934  1.00  0.00     0.076 A 
HETATM   25  C   UNL     1      -7.048   7.933 -29.684  1.00  0.00     0.037 A 
HETATM   26  C   UNL     1      -7.759   8.524 -30.726  1.00  0.00     0.003 A 
HETATM   27  C   UNL     1      -7.556   8.093 -32.030  1.00  0.00     0.001 A 
HETATM   28  C   UNL     1      -6.656   7.059 -32.291  1.00  0.00     0.012 A 
BRANCH  24  29
HETATM   29  O   UNL     1      -5.409   6.278 -28.947  1.00  0.00    -0.355 OA
HETATM   30  C   UNL     1      -6.133   5.666 -27.887  1.00  0.00     0.210 C 
ENDBRANCH  24  29
ENDBRANCH   2  23
BRANCH   3  31
HETATM   31  C   UNL     1      -2.548   5.828 -31.492  1.00  0.00     0.038 A 
HETATM   32  C   UNL     1      -1.549   4.851 -31.524  1.00  0.00     0.032 A 
HETATM   33  C   UNL     1      -0.432   4.935 -30.683  1.00  0.00     0.039 A 
HETATM   34  C   UNL     1      -0.307   5.980 -29.770  1.00  0.00     0.068 A 
HETATM   35  C   UNL     1      -1.274   6.980 -29.751  1.00  0.00     0.039 A 
HETATM   36  C   UNL     1      -2.381   6.906 -30.609  1.00  0.00     0.032 A 
BRANCH  34  37
HETATM   37  O   UNL     1       0.794   5.926 -28.961  1.00  0.00    -0.356 OA
HETATM   38  C   UNL     1       0.762   6.773 -27.816  1.00  0.00     0.210 C 
ENDBRANCH  34  37
ENDBRANCH   3  31
TORSDOF 7
ENDMDL
MODEL 3
REMARK VINA RESULT:      -8.8      3.617      7.934
REMARK  7 active torsions:
REMARK  status: ('A' for Active; 'I' for Inactive)
REMARK       I    between atoms: C_2  and  N_3 
REMARK    1  A    between atoms: N_3  and  C_4 
REMARK    2  A    between atoms: C_7  and  N_8 
REMARK       I    between atoms: N_8  and  C_9 
REMARK    3  A    between atoms: C_9  and  C_10 
REMARK    4  A    between atoms: C_11  and  C_12 
REMARK    5  A    between atoms: C_13  and  O_14 
REMARK    6  A    between atoms: N_20  and  C_21 
REMARK    7  A    between atoms: C_24  and  O_25 
ROOT
HETATM    1  C   UNL     1     -10.783   2.457 -34.234  1.00  0.00     0.106 C 
HETATM    2  C   UNL     1     -10.484   3.614 -33.261  1.00  0.00     0.142 C 
HETATM    3  N   UNL     1      -9.919   4.759 -34.028  1.00  0.00    -0.308 N 
HETATM    4  C   UNL     1     -10.558   5.224 -35.181  1.00  0.00     0.225 C 
HETATM    5  O   UNL     1     -10.457   6.358 -35.650  1.00  0.00    -0.273 OA
HETATM    6  C   UNL     1     -11.248   4.161 -36.028  1.00  0.00     0.104 C 
HETATM    7  C   UNL     1     -11.729   2.896 -35.341  1.00  0.00     0.026 C 
ENDROOT
BRANCH   1   8
HETATM    8  C   UNL     1     -11.322   1.198 -33.583  1.00  0.00     0.228 C 
HETATM    9  N   UNL     1     -10.530   0.278 -32.965  1.00  0.00    -0.327 N 
HETATM   10  H   UNL     1     -11.129  -0.451 -32.589  1.00  0.00     0.169 HD
HETATM   11  O   UNL     1     -12.521   0.906 -33.639  1.00  0.00    -0.273 OA
BRANCH   9  12
HETATM   12  C   UNL     1      -9.167   0.150 -32.648  1.00  0.00     0.034 A 
HETATM   13  C   UNL     1      -8.537   0.577 -31.484  1.00  0.00     0.032 A 
HETATM   14  C   UNL     1      -7.181   0.289 -31.250  1.00  0.00     0.032 A 
HETATM   15  C   UNL     1      -6.421  -0.403 -32.191  1.00  0.00     0.034 A 
HETATM   16  C   UNL     1      -7.025  -0.758 -33.397  1.00  0.00     0.032 A 
HETATM   17  C   UNL     1      -8.379  -0.484 -33.620  1.00  0.00     0.032 A 
BRANCH  15  18
HETATM   18  N   UNL     1      -5.077  -0.781 -32.005  1.00  0.00    -0.328 N 
HETATM   19  C   UNL     1      -3.953   0.010 -32.162  1.00  0.00     0.218 C 
HETATM   20  C   UNL     1      -2.678  -0.711 -31.797  1.00  0.00     0.117 C 
HETATM   21  O   UNL     1      -3.924   1.185 -32.512  1.00  0.00    -0.274 OA
HETATM   22  H   UNL     1      -4.927  -1.720 -31.656  1.00  0.00     0.169 HD
ENDBRANCH  15  18
ENDBRANCH   9  12
ENDBRANCH   1   8
BRANCH   2  23
HETATM   23  C   UNL     1     -11.603   4.081 -32.312  1.00  0.00    -0.001 A 
HETATM   24  C   UNL     1     -11.439   3.983 -30.908  1.00  0.00     0.076 A 
HETATM   25  C   UNL     1     -12.485   4.350 -30.049  1.00  0.00     0.037 A 
HETATM   26  C   UNL     1     -13.688   4.837 -30.558  1.00  0.00     0.003 A 
HETATM   27  C   UNL     1     -13.850   4.974 -31.930  1.00  0.00     0.001 A 
HETATM   28  C   UNL     1     -12.817   4.607 -32.795  1.00  0.00     0.012 A 
BRANCH  24  29
HETATM   29  O   UNL     1     -10.233   3.499 -30.462  1.00  0.00    -0.355 OA
HETATM   30  C   UNL     1      -9.279   4.446 -29.999  1.00  0.00     0.210 C 
ENDBRANCH  24  29
ENDBRANCH   2  23
BRANCH   3  31
HETATM   31  C   UNL     1      -8.657   5.314 -33.637  1.00  0.00     0.038 A 
HETATM   32  C   UNL     1      -7.449   4.671 -33.925  1.00  0.00     0.032 A 
HETATM   33  C   UNL     1      -6.237   5.147 -33.409  1.00  0.00     0.039 A 
HETATM   34  C   UNL     1      -6.211   6.257 -32.567  1.00  0.00     0.068 A 
HETATM   35  C   UNL     1      -7.399   6.930 -32.299  1.00  0.00     0.039 A 
HETATM   36  C   UNL     1      -8.609   6.465 -32.836  1.00  0.00     0.032 A 
BRANCH  34  37
HETATM   37  O   UNL     1      -4.982   6.594 -32.075  1.00  0.00    -0.356 OA
HETATM   38  C   UNL     1      -3.870   6.251 -32.898  1.00  0.00     0.210 C 
ENDBRANCH  34  37
ENDBRANCH   3  31
TORSDOF 7
ENDMDL
MODEL 4
REMARK VINA RESULT:      -8.8      2.877      6.550
REMARK  7 active torsions:
REMARK  status: ('A' for Active; 'I' for Inactive)
REMARK       I    between atoms: C_2  and  N_3 
REMARK    1  A    between atoms: N_3  and  C_4 
REMARK    2  A    between atoms: C_7  and  N_8 
REMARK       I    between atoms: N_8  and  C_9 
REMARK    3  A    between atoms: C_9  and  C_10 
REMARK    4  A    between atoms: C_11  and  C_12 
REMARK    5  A    between atoms: C_13  and  O_14 
REMARK    6  A    between atoms: N_20  and  C_21 
REMARK    7  A    between atoms: C_24  and  O_25 
ROOT
HETATM    1  C   UNL     1      -7.062   1.742 -31.124  1.00  0.00     0.106 C 
HETATM    2  C   UNL     1      -6.275   1.749 -32.450  1.00  0.00     0.142 C 
HETATM    3  N   UNL     1      -4.860   2.122 -32.171  1.00  0.00    -0.308 N 
HETATM    4  C   UNL     1      -4.141   1.476 -31.163  1.00  0.00     0.225 C 
HETATM    5  O   UNL     1      -2.914   1.379 -31.103  1.00  0.00    -0.273 OA
HETATM    6  C   UNL     1      -4.948   1.061 -29.938  1.00  0.00     0.104 C 
HETATM    7  C   UNL     1      -6.432   0.797 -30.112  1.00  0.00     0.026 C 
ENDROOT
BRANCH   1   8
HETATM    8  C   UNL     1      -8.538   1.423 -31.260  1.00  0.00     0.228 C 
HETATM    9  N   UNL     1      -9.504   2.380 -31.350  1.00  0.00    -0.327 N 
HETATM   10  H   UNL     1     -10.399   1.912 -31.461  1.00  0.00     0.169 HD
HETATM   11  O   UNL     1      -8.952   0.260 -31.227  1.00  0.00    -0.273 OA
BRANCH   9  12
HETATM   12  C   UNL     1      -9.551   3.781 -31.429  1.00  0.00     0.034 A 
HETATM   13  C   UNL     1      -9.918   4.663 -30.419  1.00  0.00     0.032 A 
HETATM   14  C   UNL     1      -9.818   6.053 -30.601  1.00  0.00     0.032 A 
HETATM   15  C   UNL     1      -9.380   6.589 -31.811  1.00  0.00     0.034 A 
HETATM   16  C   UNL     1      -9.093   5.712 -32.857  1.00  0.00     0.032 A 
HETATM   17  C   UNL     1      -9.178   4.328 -32.666  1.00  0.00     0.032 A 
BRANCH  15  18
HETATM   18  N   UNL     1      -9.196   7.965 -32.052  1.00  0.00    -0.328 N 
HETATM   19  C   UNL     1      -8.068   8.720 -31.783  1.00  0.00     0.218 C 
HETATM   20  C   UNL     1      -8.200  10.149 -32.251  1.00  0.00     0.117 C 
HETATM   21  O   UNL     1      -7.028   8.328 -31.265  1.00  0.00    -0.274 OA
HETATM   22  H   UNL     1      -9.952   8.433 -32.534  1.00  0.00     0.169 HD
ENDBRANCH  15  18
ENDBRANCH   9  12
ENDBRANCH   1   8
BRANCH   2  23
HETATM   23  C   UNL     1      -6.352   0.505 -33.353  1.00  0.00    -0.001 A 
HETATM   24  C   UNL     1      -7.306   0.436 -34.398  1.00  0.00     0.076 A 
HETATM   25  C   UNL     1      -7.415  -0.725 -35.177  1.00  0.00     0.037 A 
HETATM   26  C   UNL     1      -6.576  -1.815 -34.954  1.00  0.00     0.003 A 
HETATM   27  C   UNL     1      -5.612  -1.749 -33.958  1.00  0.00     0.001 A 
HETATM   28  C   UNL     1      -5.496  -0.601 -33.173  1.00  0.00     0.012 A 
BRANCH  24  29
HETATM   29  O   UNL     1      -8.104   1.540 -34.575  1.00  0.00    -0.355 OA
HETATM   30  C   UNL     1      -9.509   1.328 -34.636  1.00  0.00     0.210 C 
ENDBRANCH  24  29
ENDBRANCH   2  23
BRANCH   3  31
HETATM   31  C   UNL     1      -4.272   3.225 -32.874  1.00  0.00     0.038 A 
HETATM   32  C   UNL     1      -2.926   3.568 -32.711  1.00  0.00     0.032 A 
HETATM   33  C   UNL     1      -2.404   4.734 -33.286  1.00  0.00     0.039 A 
HETATM   34  C   UNL     1      -3.224   5.597 -34.009  1.00  0.00     0.068 A 
HETATM   35  C   UNL     1      -4.557   5.253 -34.211  1.00  0.00     0.039 A 
HETATM   36  C   UNL     1      -5.073   4.074 -33.654  1.00  0.00     0.032 A 
BRANCH  34  37
HETATM   37  O   UNL     1      -2.620   6.732 -34.472  1.00  0.00    -0.356 OA
HETATM   38  C   UNL     1      -1.686   7.342 -33.586  1.00  0.00     0.210 C 
ENDBRANCH  34  37
ENDBRANCH   3  31
TORSDOF 7
ENDMDL
MODEL 5
REMARK VINA RESULT:      -8.6     17.282     19.470
REMARK  7 active torsions:
REMARK  status: ('A' for Active; 'I' for Inactive)
REMARK       I    between atoms: C_2  and  N_3 
REMARK    1  A    between atoms: N_3  and  C_4 
REMARK    2  A    between atoms: C_7  and  N_8 
REMARK       I    between atoms: N_8  and  C_9 
REMARK    3  A    between atoms: C_9  and  C_10 
REMARK    4  A    between atoms: C_11  and  C_12 
REMARK    5  A    between atoms: C_13  and  O_14 
REMARK    6  A    between atoms: N_20  and  C_21 
REMARK    7  A    between atoms: C_24  and  O_25 
ROOT
HETATM    1  C   UNL     1      -6.849 -15.165 -37.688  1.00  0.00     0.106 C 
HETATM    2  C   UNL     1      -7.052 -14.858 -39.184  1.00  0.00     0.142 C 
HETATM    3  N   UNL     1      -6.974 -16.130 -39.955  1.00  0.00    -0.308 N 
HETATM    4  C   UNL     1      -7.721 -17.244 -39.565  1.00  0.00     0.225 C 
HETATM    5  O   UNL     1      -8.069 -18.169 -40.299  1.00  0.00    -0.273 OA
HETATM    6  C   UNL     1      -7.916 -17.415 -38.062  1.00  0.00     0.104 C 
HETATM    7  C   UNL     1      -7.870 -16.176 -37.187  1.00  0.00     0.026 C 
ENDROOT
BRANCH   1   8
HETATM    8  C   UNL     1      -6.858 -13.951 -36.779  1.00  0.00     0.228 C 
HETATM    9  N   UNL     1      -5.724 -13.315 -36.371  1.00  0.00    -0.327 N 
HETATM   10  H   UNL     1      -5.998 -12.522 -35.798  1.00  0.00     0.169 HD
HETATM   11  O   UNL     1      -7.908 -13.510 -36.302  1.00  0.00    -0.273 OA
BRANCH   9  12
HETATM   12  C   UNL     1      -4.345 -13.421 -36.621  1.00  0.00     0.034 A 
HETATM   13  C   UNL     1      -3.406 -14.098 -35.851  1.00  0.00     0.032 A 
HETATM   14  C   UNL     1      -2.071 -14.213 -36.277  1.00  0.00     0.032 A 
HETATM   15  C   UNL     1      -1.643 -13.624 -37.465  1.00  0.00     0.034 A 
HETATM   16  C   UNL     1      -2.560 -12.871 -38.197  1.00  0.00     0.032 A 
HETATM   17  C   UNL     1      -3.892 -12.772 -37.779  1.00  0.00     0.032 A 
BRANCH  15  18
HETATM   18  N   UNL     1      -0.340 -13.744 -37.988  1.00  0.00    -0.328 N 
HETATM   19  C   UNL     1       0.322 -14.909 -38.330  1.00  0.00     0.218 C 
HETATM   20  C   UNL     1       1.679 -14.650 -38.939  1.00  0.00     0.117 C 
HETATM   21  O   UNL     1      -0.101 -16.055 -38.220  1.00  0.00    -0.274 OA
HETATM   22  H   UNL     1       0.135 -12.874 -38.193  1.00  0.00     0.169 HD
ENDBRANCH  15  18
ENDBRANCH   9  12
ENDBRANCH   1   8
BRANCH   2  23
HETATM   23  C   UNL     1      -8.284 -14.033 -39.602  1.00  0.00    -0.001 A 
HETATM   24  C   UNL     1      -8.158 -12.649 -39.879  1.00  0.00     0.076 A 
HETATM   25  C   UNL     1      -9.293 -11.888 -40.196  1.00  0.00     0.037 A 
HETATM   26  C   UNL     1     -10.552 -12.481 -40.267  1.00  0.00     0.003 A 
HETATM   27  C   UNL     1     -10.686 -13.843 -40.035  1.00  0.00     0.001 A 
HETATM   28  C   UNL     1      -9.564 -14.610 -39.713  1.00  0.00     0.012 A 
BRANCH  24  29
HETATM   29  O   UNL     1      -6.894 -12.118 -39.796  1.00  0.00    -0.355 OA
HETATM   30  C   UNL     1      -6.118 -12.087 -40.987  1.00  0.00     0.210 C 
ENDBRANCH  24  29
ENDBRANCH   2  23
BRANCH   3  31
HETATM   31  C   UNL     1      -6.043 -16.238 -41.040  1.00  0.00     0.038 A 
HETATM   32  C   UNL     1      -4.787 -16.831 -40.876  1.00  0.00     0.032 A 
HETATM   33  C   UNL     1      -3.834 -16.796 -41.902  1.00  0.00     0.039 A 
HETATM   34  C   UNL     1      -4.104 -16.140 -43.100  1.00  0.00     0.068 A 
HETATM   35  C   UNL     1      -5.361 -15.576 -43.294  1.00  0.00     0.039 A 
HETATM   36  C   UNL     1      -6.323 -15.632 -42.275  1.00  0.00     0.032 A 
BRANCH  34  37
HETATM   37  O   UNL     1      -3.079 -16.119 -44.004  1.00  0.00    -0.356 OA
HETATM   38  C   UNL     1      -3.444 -16.357 -45.360  1.00  0.00     0.210 C 
ENDBRANCH  34  37
ENDBRANCH   3  31
TORSDOF 7
ENDMDL
MODEL 6
REMARK VINA RESULT:      -8.4      3.586      6.751
REMARK  7 active torsions:
REMARK  status: ('A' for Active; 'I' for Inactive)
REMARK       I    between atoms: C_2  and  N_3 
REMARK    1  A    between atoms: N_3  and  C_4 
REMARK    2  A    between atoms: C_7  and  N_8 
REMARK       I    between atoms: N_8  and  C_9 
REMARK    3  A    between atoms: C_9  and  C_10 
REMARK    4  A    between atoms: C_11  and  C_12 
REMARK    5  A    between atoms: C_13  and  O_14 
REMARK    6  A    between atoms: N_20  and  C_21 
REMARK    7  A    between atoms: C_24  and  O_25 
ROOT
HETATM    1  C   UNL     1     -12.529   3.528 -31.778  1.00  0.00     0.106 C 
HETATM    2  C   UNL     1     -11.485   3.432 -32.907  1.00  0.00     0.142 C 
HETATM    3  N   UNL     1     -11.652   2.131 -33.612  1.00  0.00    -0.308 N 
HETATM    4  C   UNL     1     -12.911   1.720 -34.056  1.00  0.00     0.225 C 
HETATM    5  O   UNL     1     -13.127   0.925 -34.972  1.00  0.00    -0.273 OA
HETATM    6  C   UNL     1     -14.087   2.129 -33.176  1.00  0.00     0.104 C 
HETATM    7  C   UNL     1     -13.943   3.372 -32.317  1.00  0.00     0.026 C 
ENDROOT
BRANCH   1   8
HETATM    8  C   UNL     1     -12.448   4.788 -30.939  1.00  0.00     0.228 C 
HETATM    9  N   UNL     1     -11.307   5.203 -30.322  1.00  0.00    -0.327 N 
HETATM   10  H   UNL     1     -11.506   6.081 -29.851  1.00  0.00     0.169 HD
HETATM   11  O   UNL     1     -13.448   5.478 -30.713  1.00  0.00    -0.273 OA
BRANCH   9  12
HETATM   12  C   UNL     1      -9.965   4.790 -30.268  1.00  0.00     0.034 A 
HETATM   13  C   UNL     1      -9.496   3.484 -30.183  1.00  0.00     0.032 A 
HETATM   14  C   UNL     1      -8.119   3.205 -30.244  1.00  0.00     0.032 A 
HETATM   15  C   UNL     1      -7.183   4.232 -30.358  1.00  0.00     0.034 A 
HETATM   16  C   UNL     1      -7.643   5.548 -30.357  1.00  0.00     0.032 A 
HETATM   17  C   UNL     1      -9.015   5.821 -30.313  1.00  0.00     0.032 A 
BRANCH  15  18
HETATM   18  N   UNL     1      -5.795   4.032 -30.486  1.00  0.00    -0.328 N 
HETATM   19  C   UNL     1      -5.136   3.329 -31.478  1.00  0.00     0.218 C 
HETATM   20  C   UNL     1      -3.634   3.393 -31.338  1.00  0.00     0.117 C 
HETATM   21  O   UNL     1      -5.648   2.733 -32.420  1.00  0.00    -0.274 OA
HETATM   22  H   UNL     1      -5.216   4.512 -29.808  1.00  0.00     0.169 HD
ENDBRANCH  15  18
ENDBRANCH   9  12
ENDBRANCH   1   8
BRANCH   2  23
HETATM   23  C   UNL     1     -11.382   4.596 -33.910  1.00  0.00    -0.001 A 
HETATM   24  C   UNL     1     -10.120   5.152 -34.235  1.00  0.00     0.076 A 
HETATM   25  C   UNL     1     -10.036   6.253 -35.100  1.00  0.00     0.037 A 
HETATM   26  C   UNL     1     -11.184   6.800 -35.669  1.00  0.00     0.003 A 
HETATM   27  C   UNL     1     -12.425   6.244 -35.390  1.00  0.00     0.001 A 
HETATM   28  C   UNL     1     -12.521   5.150 -34.527  1.00  0.00     0.012 A 
BRANCH  24  29
HETATM   29  O   UNL     1      -9.023   4.571 -33.647  1.00  0.00    -0.355 OA
HETATM   30  C   UNL     1      -7.753   5.154 -33.912  1.00  0.00     0.210 C 
ENDBRANCH  24  29
ENDBRANCH   2  23
BRANCH   3  31
HETATM   31  C   UNL     1     -10.527   1.250 -33.738  1.00  0.00     0.038 A 
HETATM   32  C   UNL     1     -10.226   0.297 -32.761  1.00  0.00     0.032 A 
HETATM   33  C   UNL     1      -9.044  -0.452 -32.824  1.00  0.00     0.039 A 
HETATM   34  C   UNL     1      -8.124  -0.241 -33.848  1.00  0.00     0.068 A 
HETATM   35  C   UNL     1      -8.425   0.677 -34.849  1.00  0.00     0.039 A 
HETATM   36  C   UNL     1      -9.620   1.410 -34.796  1.00  0.00     0.032 A 
BRANCH  34  37
HETATM   37  O   UNL     1      -6.980  -0.986 -33.775  1.00  0.00    -0.356 OA
HETATM   38  C   UNL     1      -6.186  -0.789 -32.609  1.00  0.00     0.210 C 
ENDBRANCH  34  37
ENDBRANCH   3  31
TORSDOF 7
ENDMDL
MODEL 7
REMARK VINA RESULT:      -8.4     16.988     20.336
REMARK  7 active torsions:
REMARK  status: ('A' for Active; 'I' for Inactive)
REMARK       I    between atoms: C_2  and  N_3 
REMARK    1  A    between atoms: N_3  and  C_4 
REMARK    2  A    between atoms: C_7  and  N_8 
REMARK       I    between atoms: N_8  and  C_9 
REMARK    3  A    between atoms: C_9  and  C_10 
REMARK    4  A    between atoms: C_11  and  C_12 
REMARK    5  A    between atoms: C_13  and  O_14 
REMARK    6  A    between atoms: N_20  and  C_21 
REMARK    7  A    between atoms: C_24  and  O_25 
ROOT
HETATM    1  C   UNL     1      -3.512 -12.968 -38.339  1.00  0.00     0.106 C 
HETATM    2  C   UNL     1      -3.576 -14.369 -38.979  1.00  0.00     0.142 C 
HETATM    3  N   UNL     1      -2.663 -14.406 -40.155  1.00  0.00    -0.308 N 
HETATM    4  C   UNL     1      -1.342 -13.965 -40.042  1.00  0.00     0.225 C 
HETATM    5  O   UNL     1      -0.405 -14.311 -40.763  1.00  0.00    -0.273 OA
HETATM    6  C   UNL     1      -1.116 -12.795 -39.091  1.00  0.00     0.104 C 
HETATM    7  C   UNL     1      -2.089 -12.605 -37.943  1.00  0.00     0.026 C 
ENDROOT
BRANCH   1   8
HETATM    8  C   UNL     1      -4.432 -12.766 -37.150  1.00  0.00     0.228 C 
HETATM    9  N   UNL     1      -5.788 -12.874 -37.228  1.00  0.00    -0.327 N 
HETATM   10  H   UNL     1      -6.168 -12.723 -36.298  1.00  0.00     0.169 HD
HETATM   11  O   UNL     1      -3.994 -12.423 -36.048  1.00  0.00    -0.273 OA
BRANCH   9  12
HETATM   12  C   UNL     1      -6.732 -13.227 -38.207  1.00  0.00     0.034 A 
HETATM   13  C   UNL     1      -6.812 -12.736 -39.505  1.00  0.00     0.032 A 
HETATM   14  C   UNL     1      -7.746 -13.257 -40.418  1.00  0.00     0.032 A 
HETATM   15  C   UNL     1      -8.641 -14.256 -40.038  1.00  0.00     0.034 A 
HETATM   16  C   UNL     1      -8.622 -14.691 -38.714  1.00  0.00     0.032 A 
HETATM   17  C   UNL     1      -7.680 -14.182 -37.812  1.00  0.00     0.032 A 
BRANCH  15  18
HETATM   18  N   UNL     1      -9.563 -14.870 -40.908  1.00  0.00    -0.328 N 
HETATM   19  C   UNL     1     -10.924 -14.636 -40.988  1.00  0.00     0.218 C 
HETATM   20  C   UNL     1     -11.585 -15.420 -42.096  1.00  0.00     0.117 C 
HETATM   21  O   UNL     1     -11.579 -13.861 -40.299  1.00  0.00    -0.274 OA
HETATM   22  H   UNL     1      -9.170 -15.506 -41.590  1.00  0.00     0.169 HD
ENDBRANCH  15  18
ENDBRANCH   9  12
ENDBRANCH   1   8
BRANCH   2  23
HETATM   23  C   UNL     1      -3.365 -15.597 -38.074  1.00  0.00    -0.001 A 
HETATM   24  C   UNL     1      -4.293 -16.668 -38.092  1.00  0.00     0.076 A 
HETATM   25  C   UNL     1      -4.132 -17.754 -37.221  1.00  0.00     0.037 A 
HETATM   26  C   UNL     1      -3.049 -17.811 -36.345  1.00  0.00     0.003 A 
HETATM   27  C   UNL     1      -2.111 -16.788 -36.342  1.00  0.00     0.001 A 
HETATM   28  C   UNL     1      -2.264 -15.698 -37.201  1.00  0.00     0.012 A 
BRANCH  24  29
HETATM   29  O   UNL     1      -5.339 -16.560 -38.976  1.00  0.00    -0.355 OA
HETATM   30  C   UNL     1      -5.516 -17.616 -39.911  1.00  0.00     0.210 C 
ENDBRANCH  24  29
ENDBRANCH   2  23
BRANCH   3  31
HETATM   31  C   UNL     1      -3.179 -14.799 -41.434  1.00  0.00     0.038 A 
HETATM   32  C   UNL     1      -2.628 -15.863 -42.154  1.00  0.00     0.032 A 
HETATM   33  C   UNL     1      -3.043 -16.140 -43.463  1.00  0.00     0.039 A 
HETATM   34  C   UNL     1      -3.994 -15.339 -44.090  1.00  0.00     0.068 A 
HETATM   35  C   UNL     1      -4.579 -14.298 -43.375  1.00  0.00     0.039 A 
HETATM   36  C   UNL     1      -4.179 -14.037 -42.057  1.00  0.00     0.032 A 
BRANCH  34  37
HETATM   37  O   UNL     1      -4.277 -15.666 -45.387  1.00  0.00    -0.356 OA
HETATM   38  C   UNL     1      -3.310 -16.480 -46.045  1.00  0.00     0.210 C 
ENDBRANCH  34  37
ENDBRANCH   3  31
TORSDOF 7
ENDMDL
MODEL 8
REMARK VINA RESULT:      -8.3     17.056     20.138
REMARK  7 active torsions:
REMARK  status: ('A' for Active; 'I' for Inactive)
REMARK       I    between atoms: C_2  and  N_3 
REMARK    1  A    between atoms: N_3  and  C_4 
REMARK    2  A    between atoms: C_7  and  N_8 
REMARK       I    between atoms: N_8  and  C_9 
REMARK    3  A    between atoms: C_9  and  C_10 
REMARK    4  A    between atoms: C_11  and  C_12 
REMARK    5  A    between atoms: C_13  and  O_14 
REMARK    6  A    between atoms: N_20  and  C_21 
REMARK    7  A    between atoms: C_24  and  O_25 
ROOT
HETATM    1  C   UNL     1      -2.083 -13.559 -39.761  1.00  0.00     0.106 C 
HETATM    2  C   UNL     1      -3.028 -14.776 -39.797  1.00  0.00     0.142 C 
HETATM    3  N   UNL     1      -2.637 -15.659 -40.931  1.00  0.00    -0.308 N 
HETATM    4  C   UNL     1      -1.307 -16.051 -41.099  1.00  0.00     0.225 C 
HETATM    5  O   UNL     1      -0.924 -17.059 -41.696  1.00  0.00    -0.273 OA
HETATM    6  C   UNL     1      -0.259 -15.019 -40.699  1.00  0.00     0.104 C 
HETATM    7  C   UNL     1      -0.629 -13.991 -39.646  1.00  0.00     0.026 C 
ENDROOT
BRANCH   1   8
HETATM    8  C   UNL     1      -2.392 -12.542 -38.679  1.00  0.00     0.228 C 
HETATM    9  N   UNL     1      -3.643 -12.053 -38.449  1.00  0.00    -0.327 N 
HETATM   10  H   UNL     1      -3.590 -11.415 -37.660  1.00  0.00     0.169 HD
HETATM   11  O   UNL     1      -1.499 -12.048 -37.985  1.00  0.00    -0.273 OA
BRANCH   9  12
HETATM   12  C   UNL     1      -4.938 -12.284 -38.942  1.00  0.00     0.034 A 
HETATM   13  C   UNL     1      -5.356 -12.200 -40.266  1.00  0.00     0.032 A 
HETATM   14  C   UNL     1      -6.663 -12.562 -40.635  1.00  0.00     0.032 A 
HETATM   15  C   UNL     1      -7.588 -12.983 -39.682  1.00  0.00     0.034 A 
HETATM   16  C   UNL     1      -7.201 -12.986 -38.342  1.00  0.00     0.032 A 
HETATM   17  C   UNL     1      -5.894 -12.641 -37.979  1.00  0.00     0.032 A 
BRANCH  15  18
HETATM   18  N   UNL     1      -8.894 -13.418 -39.979  1.00  0.00    -0.328 N 
HETATM   19  C   UNL     1     -10.001 -12.632 -40.245  1.00  0.00     0.218 C 
HETATM   20  C   UNL     1     -11.221 -13.446 -40.602  1.00  0.00     0.117 C 
HETATM   21  O   UNL     1     -10.047 -11.406 -40.251  1.00  0.00    -0.274 OA
HETATM   22  H   UNL     1      -9.016 -14.419 -40.068  1.00  0.00     0.169 HD
ENDBRANCH  15  18
ENDBRANCH   9  12
ENDBRANCH   1   8
BRANCH   2  23
HETATM   23  C   UNL     1      -3.225 -15.589 -38.504  1.00  0.00    -0.001 A 
HETATM   24  C   UNL     1      -4.498 -16.119 -38.179  1.00  0.00     0.076 A 
HETATM   25  C   UNL     1      -4.689 -16.803 -36.969  1.00  0.00     0.037 A 
HETATM   26  C   UNL     1      -3.629 -16.993 -36.084  1.00  0.00     0.003 A 
HETATM   27  C   UNL     1      -2.367 -16.513 -36.406  1.00  0.00     0.001 A 
HETATM   28  C   UNL     1      -2.167 -15.825 -37.605  1.00  0.00     0.012 A 
BRANCH  24  29
HETATM   29  O   UNL     1      -5.505 -15.903 -39.089  1.00  0.00    -0.355 OA
HETATM   30  C   UNL     1      -6.743 -16.566 -38.864  1.00  0.00     0.210 C 
ENDBRANCH  24  29
ENDBRANCH   2  23
BRANCH   3  31
HETATM   31  C   UNL     1      -3.618 -16.020 -41.912  1.00  0.00     0.038 A 
HETATM   32  C   UNL     1      -4.060 -15.112 -42.879  1.00  0.00     0.032 A 
HETATM   33  C   UNL     1      -5.124 -15.429 -43.734  1.00  0.00     0.039 A 
HETATM   34  C   UNL     1      -5.787 -16.649 -43.619  1.00  0.00     0.068 A 
HETATM   35  C   UNL     1      -5.337 -17.578 -42.687  1.00  0.00     0.039 A 
HETATM   36  C   UNL     1      -4.258 -17.268 -41.847  1.00  0.00     0.032 A 
BRANCH  34  37
HETATM   37  O   UNL     1      -6.846 -16.824 -44.465  1.00  0.00    -0.356 OA
HETATM   38  C   UNL     1      -6.522 -16.936 -45.848  1.00  0.00     0.210 C 
ENDBRANCH  34  37
ENDBRANCH   3  31
TORSDOF 7
ENDMDL
MODEL 9
REMARK VINA RESULT:      -8.2     17.508     19.853
REMARK  7 active torsions:
REMARK  status: ('A' for Active; 'I' for Inactive)
REMARK       I    between atoms: C_2  and  N_3 
REMARK    1  A    between atoms: N_3  and  C_4 
REMARK    2  A    between atoms: C_7  and  N_8 
REMARK       I    between atoms: N_8  and  C_9 
REMARK    3  A    between atoms: C_9  and  C_10 
REMARK    4  A    between atoms: C_11  and  C_12 
REMARK    5  A    between atoms: C_13  and  O_14 
REMARK    6  A    between atoms: N_20  and  C_21 
REMARK    7  A    between atoms: C_24  and  O_25 
ROOT
HETATM    1  C   UNL     1      -4.626 -13.430 -40.676  1.00  0.00     0.106 C 
HETATM    2  C   UNL     1      -5.164 -14.566 -39.784  1.00  0.00     0.142 C 
HETATM    3  N   UNL     1      -5.934 -13.973 -38.656  1.00  0.00    -0.308 N 
HETATM    4  C   UNL     1      -6.920 -13.012 -38.896  1.00  0.00     0.225 C 
HETATM    5  O   UNL     1      -7.874 -12.760 -38.159  1.00  0.00    -0.273 OA
HETATM    6  C   UNL     1      -6.646 -12.062 -40.057  1.00  0.00     0.104 C 
HETATM    7  C   UNL     1      -5.753 -12.544 -41.184  1.00  0.00     0.026 C 
ENDROOT
BRANCH   1   8
HETATM    8  C   UNL     1      -3.777 -13.885 -41.847  1.00  0.00     0.228 C 
HETATM    9  N   UNL     1      -2.466 -14.236 -41.728  1.00  0.00    -0.327 N 
HETATM   10  H   UNL     1      -2.135 -14.528 -42.643  1.00  0.00     0.169 HD
HETATM   11  O   UNL     1      -4.222 -13.898 -42.999  1.00  0.00    -0.273 OA
BRANCH   9  12
HETATM   12  C   UNL     1      -1.537 -14.384 -40.684  1.00  0.00     0.034 A 
HETATM   13  C   UNL     1      -1.301 -13.493 -39.643  1.00  0.00     0.032 A 
HETATM   14  C   UNL     1      -0.414 -13.817 -38.602  1.00  0.00     0.032 A 
HETATM   15  C   UNL     1       0.281 -15.025 -38.601  1.00  0.00     0.034 A 
HETATM   16  C   UNL     1       0.114 -15.885 -39.686  1.00  0.00     0.032 A 
HETATM   17  C   UNL     1      -0.783 -15.566 -40.713  1.00  0.00     0.032 A 
BRANCH  15  18
HETATM   18  N   UNL     1       1.139 -15.448 -37.567  1.00  0.00    -0.328 N 
HETATM   19  C   UNL     1       0.800 -16.172 -36.438  1.00  0.00     0.218 C 
HETATM   20  C   UNL     1       1.998 -16.517 -35.586  1.00  0.00     0.117 C 
HETATM   21  O   UNL     1      -0.320 -16.559 -36.122  1.00  0.00    -0.274 OA
HETATM   22  H   UNL     1       2.123 -15.253 -37.703  1.00  0.00     0.169 HD
ENDBRANCH  15  18
ENDBRANCH   9  12
ENDBRANCH   1   8
BRANCH   2  23
HETATM   23  C   UNL     1      -5.952 -15.709 -40.451  1.00  0.00    -0.001 A 
HETATM   24  C   UNL     1      -5.290 -16.896 -40.852  1.00  0.00     0.076 A 
HETATM   25  C   UNL     1      -5.998 -17.908 -41.516  1.00  0.00     0.037 A 
HETATM   26  C   UNL     1      -7.362 -17.774 -41.770  1.00  0.00     0.003 A 
HETATM   27  C   UNL     1      -8.032 -16.634 -41.350  1.00  0.00     0.001 A 
HETATM   28  C   UNL     1      -7.337 -15.618 -40.692  1.00  0.00     0.012 A 
BRANCH  24  29
HETATM   29  O   UNL     1      -3.946 -16.974 -40.575  1.00  0.00    -0.355 OA
HETATM   30  C   UNL     1      -3.525 -17.977 -39.659  1.00  0.00     0.210 C 
ENDBRANCH  24  29
ENDBRANCH   2  23
BRANCH   3  31
HETATM   31  C   UNL     1      -5.584 -14.315 -37.308  1.00  0.00     0.038 A 
HETATM   32  C   UNL     1      -6.261 -15.314 -36.603  1.00  0.00     0.032 A 
HETATM   33  C   UNL     1      -6.009 -15.534 -35.243  1.00  0.00     0.039 A 
HETATM   34  C   UNL     1      -5.098 -14.739 -34.552  1.00  0.00     0.068 A 
HETATM   35  C   UNL     1      -4.388 -13.764 -35.247  1.00  0.00     0.039 A 
HETATM   36  C   UNL     1      -4.626 -13.560 -36.614  1.00  0.00     0.032 A 
BRANCH  34  37
HETATM   37  O   UNL     1      -4.977 -15.006 -33.217  1.00  0.00    -0.356 OA
HETATM   38  C   UNL     1      -5.613 -14.080 -32.341  1.00  0.00     0.210 C 
ENDBRANCH  34  37
ENDBRANCH   3  31
TORSDOF 7
ENDMDL
MODEL 10
REMARK VINA RESULT:      -8.2      3.444      9.358
REMARK  7 active torsions:
REMARK  status: ('A' for Active; 'I' for Inactive)
REMARK       I    between atoms: C_2  and  N_3 
REMARK    1  A    between atoms: N_3  and  C_4 
REMARK    2  A    between atoms: C_7  and  N_8 
REMARK       I    between atoms: N_8  and  C_9 
REMARK    3  A    between atoms: C_9  and  C_10 
REMARK    4  A    between atoms: C_11  and  C_12 
REMARK    5  A    between atoms: C_13  and  O_14 
REMARK    6  A    between atoms: N_20  and  C_21 
REMARK    7  A    between atoms: C_24  and  O_25 
ROOT
HETATM    1  C   UNL     1      -8.005   3.052 -32.742  1.00  0.00     0.106 C 
HETATM    2  C   UNL     1      -6.631   3.415 -32.144  1.00  0.00     0.142 C 
HETATM    3  N   UNL     1      -6.833   4.311 -30.972  1.00  0.00    -0.308 N 
HETATM    4  C   UNL     1      -7.744   3.971 -29.968  1.00  0.00     0.225 C 
HETATM    5  O   UNL     1      -7.710   4.369 -28.803  1.00  0.00    -0.273 OA
HETATM    6  C   UNL     1      -8.992   3.229 -30.432  1.00  0.00     0.104 C 
HETATM    7  C   UNL     1      -8.905   2.403 -31.702  1.00  0.00     0.026 C 
ENDROOT
BRANCH   1   8
HETATM    8  C   UNL     1      -7.953   2.177 -33.979  1.00  0.00     0.228 C 
HETATM    9  N   UNL     1      -9.054   1.590 -34.525  1.00  0.00    -0.327 N 
HETATM   10  H   UNL     1      -8.760   1.084 -35.356  1.00  0.00     0.169 HD
HETATM   11  O   UNL     1      -6.881   1.894 -34.523  1.00  0.00    -0.273 OA
BRANCH   9  12
HETATM   12  C   UNL     1     -10.439   1.598 -34.293  1.00  0.00     0.034 A 
HETATM   13  C   UNL     1     -11.206   0.560 -33.775  1.00  0.00     0.032 A 
HETATM   14  C   UNL     1     -12.571   0.741 -33.494  1.00  0.00     0.032 A 
HETATM   15  C   UNL     1     -13.204   1.954 -33.756  1.00  0.00     0.034 A 
HETATM   16  C   UNL     1     -12.460   2.971 -34.354  1.00  0.00     0.032 A 
HETATM   17  C   UNL     1     -11.097   2.793 -34.618  1.00  0.00     0.032 A 
BRANCH  15  18
HETATM   18  N   UNL     1     -14.549   2.233 -33.447  1.00  0.00    -0.328 N 
HETATM   19  C   UNL     1     -15.053   2.722 -32.255  1.00  0.00     0.218 C 
HETATM   20  C   UNL     1     -16.540   2.977 -32.312  1.00  0.00     0.117 C 
HETATM   21  O   UNL     1     -14.416   2.982 -31.240  1.00  0.00    -0.274 OA
HETATM   22  H   UNL     1     -15.209   2.122 -34.207  1.00  0.00     0.169 HD
ENDBRANCH  15  18
ENDBRANCH   9  12
ENDBRANCH   1   8
BRANCH   2  23
HETATM   23  C   UNL     1      -5.655   2.273 -31.807  1.00  0.00    -0.001 A 
HETATM   24  C   UNL     1      -4.308   2.329 -32.244  1.00  0.00     0.076 A 
HETATM   25  C   UNL     1      -3.440   1.257 -31.990  1.00  0.00     0.037 A 
HETATM   26  C   UNL     1      -3.877   0.137 -31.286  1.00  0.00     0.003 A 
HETATM   27  C   UNL     1      -5.183   0.084 -30.818  1.00  0.00     0.001 A 
HETATM   28  C   UNL     1      -6.058   1.142 -31.070  1.00  0.00     0.012 A 
BRANCH  24  29
HETATM   29  O   UNL     1      -3.932   3.457 -32.932  1.00  0.00    -0.355 OA
HETATM   30  C   UNL     1      -2.620   3.955 -32.702  1.00  0.00     0.210 C 
ENDBRANCH  24  29
ENDBRANCH   2  23
BRANCH   3  31
HETATM   31  C   UNL     1      -6.165   5.579 -30.931  1.00  0.00     0.038 A 
HETATM   32  C   UNL     1      -6.671   6.698 -31.599  1.00  0.00     0.032 A 
HETATM   33  C   UNL     1      -5.933   7.887 -31.675  1.00  0.00     0.039 A 
HETATM   34  C   UNL     1      -4.662   7.970 -31.112  1.00  0.00     0.068 A 
HETATM   35  C   UNL     1      -4.159   6.877 -30.413  1.00  0.00     0.039 A 
HETATM   36  C   UNL     1      -4.908   5.696 -30.319  1.00  0.00     0.032 A 
BRANCH  34  37
HETATM   37  O   UNL     1      -4.012   9.158 -31.300  1.00  0.00    -0.356 OA
HETATM   38  C   UNL     1      -2.597   9.122 -31.135  1.00  0.00     0.210 C 
ENDBRANCH  34  37
ENDBRANCH   3  31
TORSDOF 7
ENDMDL
