MODEL 1
REMARK VINA RESULT:      -9.5      0.000      0.000
REMARK  6 active torsions:
REMARK  status: ('A' for Active; 'I' for Inactive)
REMARK    1  A    between atoms: O_2  and  C_3 
REMARK    2  A    between atoms: C_6  and  C_7 
REMARK    3  A    between atoms: C_13  and  C_14 
REMARK       I    between atoms: C_14  and  N_15 
REMARK    4  A    between atoms: N_15  and  C_16 
REMARK    5  A    between atoms: C_16  and  C_17 
REMARK    6  A    between atoms: C_24  and  C_25 
ROOT
HETATM    1  C   UNL     1      -6.719   0.121 -34.909  1.00  0.00     0.118 C 
HETATM    2  N   UNL     1      -6.084   1.026 -33.943  1.00  0.00    -0.365 N 
HETATM    3  C   UNL     1      -6.644   1.266 -32.728  1.00  0.00     0.138 A 
HETATM    4  N   UNL     1      -7.919   0.824 -32.452  1.00  0.00    -0.240 N 
HETATM    5  N   UNL     1      -8.330   1.098 -31.206  1.00  0.00    -0.181 NA
HETATM    6  C   UNL     1      -7.325   1.820 -30.705  1.00  0.00     0.160 A 
HETATM    7  C   UNL     1      -6.233   1.951 -31.599  1.00  0.00     0.096 A 
HETATM    8  C   UNL     1      -8.762   0.119 -33.400  1.00  0.00     0.221 C 
HETATM    9  C   UNL     1      -8.238   0.350 -34.832  1.00  0.00     0.066 C 
HETATM   10  H   UNL     1      -5.309   1.578 -34.304  1.00  0.00     0.161 HD
ENDROOT
BRANCH   7  11
HETATM   11  C   UNL     1      -4.999   2.658 -31.318  1.00  0.00     0.257 C 
HETATM   12  N   UNL     1      -5.072   4.026 -31.427  1.00  0.00    -0.352 N 
HETATM   13  H   UNL     1      -5.918   4.430 -31.803  1.00  0.00     0.163 HD
HETATM   14  O   UNL     1      -3.967   2.062 -31.036  1.00  0.00    -0.267 OA
BRANCH  12  15
HETATM   15  C   UNL     1      -3.928   4.877 -31.205  1.00  0.00     0.161 C 
BRANCH  15  16
HETATM   16  C   UNL     1      -3.132   5.130 -32.462  1.00  0.00    -0.041 A 
HETATM   17  C   UNL     1      -1.736   5.252 -32.386  1.00  0.00     0.009 A 
HETATM   18  C   UNL     1      -0.970   5.424 -33.540  1.00  0.00     0.001 A 
HETATM   19  C   UNL     1      -1.590   5.471 -34.787  1.00  0.00     0.000 A 
HETATM   20  C   UNL     1      -2.973   5.337 -34.880  1.00  0.00     0.001 A 
HETATM   21  C   UNL     1      -3.740   5.158 -33.726  1.00  0.00     0.009 A 
ENDBRANCH  15  16
ENDBRANCH  12  15
ENDBRANCH   7  11
BRANCH   1  22
HETATM   22  C   UNL     1      -6.265  -1.325 -34.714  1.00  0.00    -0.035 A 
HETATM   23  C   UNL     1      -7.105  -2.408 -35.025  1.00  0.00     0.012 A 
HETATM   24  C   UNL     1      -6.685  -3.735 -34.860  1.00  0.00     0.037 A 
HETATM   25  C   UNL     1      -5.401  -4.014 -34.401  1.00  0.00     0.068 A 
HETATM   26  C   UNL     1      -4.540  -2.954 -34.128  1.00  0.00     0.037 A 
HETATM   27  C   UNL     1      -4.961  -1.630 -34.286  1.00  0.00     0.012 A 
BRANCH  25  28
HETATM   28  O   UNL     1      -4.869  -5.256 -34.198  1.00  0.00    -0.356 OA
HETATM   29  C   UNL     1      -3.635  -5.320 -33.494  1.00  0.00     0.210 C 
ENDBRANCH  25  28
ENDBRANCH   1  22
BRANCH   8  30
HETATM   30  C   UNL     1     -10.210   0.557 -33.325  1.00  0.00     0.409 C 
HETATM   31  F   UNL     1     -10.378   1.674 -32.582  1.00  0.00    -0.169 F 
HETATM   32  F   UNL     1     -10.651   0.864 -34.579  1.00  0.00    -0.169 F 
HETATM   33  F   UNL     1     -11.045  -0.396 -32.864  1.00  0.00    -0.169 F 
ENDBRANCH   8  30
TORSDOF 6
ENDMDL
MODEL 2
REMARK VINA RESULT:      -9.5      3.417      6.777
REMARK  6 active torsions:
REMARK  status: ('A' for Active; 'I' for Inactive)
REMARK    1  A    between atoms: O_2  and  C_3 
REMARK    2  A    between atoms: C_6  and  C_7 
REMARK    3  A    between atoms: C_13  and  C_14 
REMARK       I    between atoms: C_14  and  N_15 
REMARK    4  A    between atoms: N_15  and  C_16 
REMARK    5  A    between atoms: C_16  and  C_17 
REMARK    6  A    between atoms: C_24  and  C_25 
ROOT
HETATM    1  C   UNL     1      -6.352   0.674 -31.620  1.00  0.00     0.118 C 
HETATM    2  N   UNL     1      -7.364   1.632 -32.082  1.00  0.00    -0.365 N 
HETATM    3  C   UNL     1      -7.020   2.724 -32.814  1.00  0.00     0.138 A 
HETATM    4  N   UNL     1      -5.695   3.066 -32.968  1.00  0.00    -0.240 N 
HETATM    5  N   UNL     1      -5.500   4.143 -33.743  1.00  0.00    -0.181 NA
HETATM    6  C   UNL     1      -6.741   4.556 -34.009  1.00  0.00     0.160 A 
HETATM    7  C   UNL     1      -7.739   3.705 -33.472  1.00  0.00     0.096 A 
HETATM    8  C   UNL     1      -4.589   2.344 -32.366  1.00  0.00     0.221 C 
HETATM    9  C   UNL     1      -5.109   1.478 -31.201  1.00  0.00     0.066 C 
HETATM   10  H   UNL     1      -8.292   1.515 -31.681  1.00  0.00     0.161 HD
ENDROOT
BRANCH   7  11
HETATM   11  C   UNL     1      -9.169   3.891 -33.622  1.00  0.00     0.257 C 
HETATM   12  N   UNL     1      -9.755   3.135 -34.607  1.00  0.00    -0.352 N 
HETATM   13  H   UNL     1      -9.156   2.607 -35.225  1.00  0.00     0.163 HD
HETATM   14  O   UNL     1      -9.788   4.694 -32.933  1.00  0.00    -0.267 OA
BRANCH  12  15
HETATM   15  C   UNL     1     -11.166   3.219 -34.904  1.00  0.00     0.161 C 
BRANCH  15  16
HETATM   16  C   UNL     1     -11.940   2.017 -34.419  1.00  0.00    -0.041 A 
HETATM   17  C   UNL     1     -13.300   1.893 -34.740  1.00  0.00     0.009 A 
HETATM   18  C   UNL     1     -14.023   0.762 -34.358  1.00  0.00     0.001 A 
HETATM   19  C   UNL     1     -13.395  -0.263 -33.655  1.00  0.00     0.000 A 
HETATM   20  C   UNL     1     -12.041  -0.161 -33.342  1.00  0.00     0.001 A 
HETATM   21  C   UNL     1     -11.315   0.967 -33.729  1.00  0.00     0.009 A 
ENDBRANCH  15  16
ENDBRANCH  12  15
ENDBRANCH   7  11
BRANCH   1  22
HETATM   22  C   UNL     1      -6.102  -0.427 -32.649  1.00  0.00    -0.035 A 
HETATM   23  C   UNL     1      -4.875  -1.111 -32.711  1.00  0.00     0.012 A 
HETATM   24  C   UNL     1      -4.648  -2.131 -33.645  1.00  0.00     0.037 A 
HETATM   25  C   UNL     1      -5.655  -2.511 -34.528  1.00  0.00     0.068 A 
HETATM   26  C   UNL     1      -6.891  -1.873 -34.454  1.00  0.00     0.037 A 
HETATM   27  C   UNL     1      -7.114  -0.851 -33.526  1.00  0.00     0.012 A 
BRANCH  25  28
HETATM   28  O   UNL     1      -5.566  -3.485 -35.482  1.00  0.00    -0.356 OA
HETATM   29  C   UNL     1      -6.431  -4.606 -35.340  1.00  0.00     0.210 C 
ENDBRANCH  25  28
ENDBRANCH   1  22
BRANCH   8  30
HETATM   30  C   UNL     1      -3.505   3.269 -31.851  1.00  0.00     0.409 C 
HETATM   31  F   UNL     1      -4.002   4.314 -31.151  1.00  0.00    -0.169 F 
HETATM   32  F   UNL     1      -2.701   2.581 -30.991  1.00  0.00    -0.169 F 
HETATM   33  F   UNL     1      -2.691   3.745 -32.815  1.00  0.00    -0.169 F 
ENDBRANCH   8  30
TORSDOF 6
ENDMDL
MODEL 3
REMARK VINA RESULT:      -9.3      1.216      1.542
REMARK  6 active torsions:
REMARK  status: ('A' for Active; 'I' for Inactive)
REMARK    1  A    between atoms: O_2  and  C_3 
REMARK    2  A    between atoms: C_6  and  C_7 
REMARK    3  A    between atoms: C_13  and  C_14 
REMARK       I    between atoms: C_14  and  N_15 
REMARK    4  A    between atoms: N_15  and  C_16 
REMARK    5  A    between atoms: C_16  and  C_17 
REMARK    6  A    between atoms: C_24  and  C_25 
ROOT
HETATM    1  C   UNL     1      -6.726   1.003 -34.703  1.00  0.00     0.118 C 
HETATM    2  N   UNL     1      -6.400   2.141 -33.835  1.00  0.00    -0.365 N 
HETATM    3  C   UNL     1      -7.080   2.364 -32.680  1.00  0.00     0.138 A 
HETATM    4  N   UNL     1      -8.221   1.646 -32.396  1.00  0.00    -0.240 N 
HETATM    5  N   UNL     1      -8.767   1.944 -31.209  1.00  0.00    -0.181 NA
HETATM    6  C   UNL     1      -8.008   2.949 -30.767  1.00  0.00     0.160 A 
HETATM    7  C   UNL     1      -6.926   3.252 -31.630  1.00  0.00     0.096 A 
HETATM    8  C   UNL     1      -8.799   0.649 -33.279  1.00  0.00     0.221 C 
HETATM    9  C   UNL     1      -8.256   0.845 -34.708  1.00  0.00     0.066 C 
HETATM   10  H   UNL     1      -5.764   2.828 -34.234  1.00  0.00     0.161 HD
ENDROOT
BRANCH   7  11
HETATM   11  C   UNL     1      -5.928   4.276 -31.396  1.00  0.00     0.257 C 
HETATM   12  N   UNL     1      -5.877   5.270 -32.343  1.00  0.00    -0.352 N 
HETATM   13  H   UNL     1      -6.434   5.163 -33.178  1.00  0.00     0.163 HD
HETATM   14  O   UNL     1      -5.170   4.226 -30.434  1.00  0.00    -0.267 OA
BRANCH  12  15
HETATM   15  C   UNL     1      -4.923   6.351 -32.272  1.00  0.00     0.161 C 
BRANCH  15  16
HETATM   16  C   UNL     1      -3.654   6.065 -33.036  1.00  0.00    -0.041 A 
HETATM   17  C   UNL     1      -3.721   5.386 -34.262  1.00  0.00     0.009 A 
HETATM   18  C   UNL     1      -2.569   5.164 -35.019  1.00  0.00     0.001 A 
HETATM   19  C   UNL     1      -1.336   5.623 -34.563  1.00  0.00     0.000 A 
HETATM   20  C   UNL     1      -1.255   6.312 -33.356  1.00  0.00     0.001 A 
HETATM   21  C   UNL     1      -2.408   6.541 -32.600  1.00  0.00     0.009 A 
ENDBRANCH  15  16
ENDBRANCH  12  15
ENDBRANCH   7  11
BRANCH   1  22
HETATM   22  C   UNL     1      -5.941  -0.249 -34.314  1.00  0.00    -0.035 A 
HETATM   23  C   UNL     1      -6.272  -1.514 -34.831  1.00  0.00     0.012 A 
HETATM   24  C   UNL     1      -5.545  -2.662 -34.486  1.00  0.00     0.037 A 
HETATM   25  C   UNL     1      -4.449  -2.569 -33.632  1.00  0.00     0.068 A 
HETATM   26  C   UNL     1      -4.081  -1.318 -33.144  1.00  0.00     0.037 A 
HETATM   27  C   UNL     1      -4.811  -0.174 -33.482  1.00  0.00     0.012 A 
BRANCH  25  28
HETATM   28  O   UNL     1      -3.659  -3.605 -33.220  1.00  0.00    -0.356 OA
HETATM   29  C   UNL     1      -3.891  -4.871 -33.823  1.00  0.00     0.210 C 
ENDBRANCH  25  28
ENDBRANCH   1  22
BRANCH   8  30
HETATM   30  C   UNL     1     -10.312   0.711 -33.310  1.00  0.00     0.409 C 
HETATM   31  F   UNL     1     -10.800   1.827 -32.721  1.00  0.00    -0.169 F 
HETATM   32  F   UNL     1     -10.732   0.749 -34.607  1.00  0.00    -0.169 F 
HETATM   33  F   UNL     1     -10.913  -0.363 -32.760  1.00  0.00    -0.169 F 
ENDBRANCH   8  30
TORSDOF 6
ENDMDL
MODEL 4
REMARK VINA RESULT:      -9.2      1.669      2.450
REMARK  6 active torsions:
REMARK  status: ('A' for Active; 'I' for Inactive)
REMARK    1  A    between atoms: O_2  and  C_3 
REMARK    2  A    between atoms: C_6  and  C_7 
REMARK    3  A    between atoms: C_13  and  C_14 
REMARK       I    between atoms: C_14  and  N_15 
REMARK    4  A    between atoms: N_15  and  C_16 
REMARK    5  A    between atoms: C_16  and  C_17 
REMARK    6  A    between atoms: C_24  and  C_25 
ROOT
HETATM    1  C   UNL     1      -6.984   0.279 -34.988  1.00  0.00     0.118 C 
HETATM    2  N   UNL     1      -6.415   1.618 -34.793  1.00  0.00    -0.365 N 
HETATM    3  C   UNL     1      -6.567   2.285 -33.619  1.00  0.00     0.138 A 
HETATM    4  N   UNL     1      -7.427   1.807 -32.655  1.00  0.00    -0.240 N 
HETATM    5  N   UNL     1      -7.450   2.544 -31.536  1.00  0.00    -0.181 NA
HETATM    6  C   UNL     1      -6.656   3.574 -31.832  1.00  0.00     0.160 A 
HETATM    7  C   UNL     1      -6.059   3.468 -33.113  1.00  0.00     0.096 A 
HETATM    8  C   UNL     1      -8.242   0.615 -32.806  1.00  0.00     0.221 C 
HETATM    9  C   UNL     1      -8.361   0.255 -34.301  1.00  0.00     0.066 C 
HETATM   10  H   UNL     1      -6.058   2.069 -35.633  1.00  0.00     0.161 HD
ENDROOT
BRANCH   7  11
HETATM   11  C   UNL     1      -5.135   4.425 -33.689  1.00  0.00     0.257 C 
HETATM   12  N   UNL     1      -4.263   5.004 -32.799  1.00  0.00    -0.352 N 
HETATM   13  H   UNL     1      -4.398   4.826 -31.814  1.00  0.00     0.163 HD
HETATM   14  O   UNL     1      -5.165   4.709 -34.881  1.00  0.00    -0.267 OA
BRANCH  12  15
HETATM   15  C   UNL     1      -3.296   5.996 -33.206  1.00  0.00     0.161 C 
BRANCH  15  16
HETATM   16  C   UNL     1      -2.060   5.998 -32.341  1.00  0.00    -0.041 A 
HETATM   17  C   UNL     1      -1.791   4.898 -31.512  1.00  0.00     0.009 A 
HETATM   18  C   UNL     1      -0.623   4.848 -30.749  1.00  0.00     0.001 A 
HETATM   19  C   UNL     1       0.294   5.894 -30.808  1.00  0.00     0.000 A 
HETATM   20  C   UNL     1       0.049   6.986 -31.637  1.00  0.00     0.001 A 
HETATM   21  C   UNL     1      -1.116   7.035 -32.406  1.00  0.00     0.009 A 
ENDBRANCH  15  16
ENDBRANCH  12  15
ENDBRANCH   7  11
BRANCH   1  22
HETATM   22  C   UNL     1      -6.015  -0.818 -34.549  1.00  0.00    -0.035 A 
HETATM   23  C   UNL     1      -4.932  -0.544 -33.695  1.00  0.00     0.012 A 
HETATM   24  C   UNL     1      -4.050  -1.551 -33.281  1.00  0.00     0.037 A 
HETATM   25  C   UNL     1      -4.244  -2.868 -33.691  1.00  0.00     0.068 A 
HETATM   26  C   UNL     1      -5.336  -3.165 -34.502  1.00  0.00     0.037 A 
HETATM   27  C   UNL     1      -6.212  -2.158 -34.922  1.00  0.00     0.012 A 
BRANCH  25  28
HETATM   28  O   UNL     1      -3.463  -3.939 -33.360  1.00  0.00    -0.356 OA
HETATM   29  C   UNL     1      -3.969  -5.228 -33.684  1.00  0.00     0.210 C 
ENDBRANCH  25  28
ENDBRANCH   1  22
BRANCH   8  30
HETATM   30  C   UNL     1      -9.630   0.785 -32.225  1.00  0.00     0.409 C 
HETATM   31  F   UNL     1     -10.513  -0.116 -32.714  1.00  0.00    -0.169 F 
HETATM   32  F   UNL     1      -9.581   0.577 -30.878  1.00  0.00    -0.169 F 
HETATM   33  F   UNL     1     -10.142   2.022 -32.389  1.00  0.00    -0.169 F 
ENDBRANCH   8  30
TORSDOF 6
ENDMDL
MODEL 5
REMARK VINA RESULT:      -8.8      2.566      3.545
REMARK  6 active torsions:
REMARK  status: ('A' for Active; 'I' for Inactive)
REMARK    1  A    between atoms: O_2  and  C_3 
REMARK    2  A    between atoms: C_6  and  C_7 
REMARK    3  A    between atoms: C_13  and  C_14 
REMARK       I    between atoms: C_14  and  N_15 
REMARK    4  A    between atoms: N_15  and  C_16 
REMARK    5  A    between atoms: C_16  and  C_17 
REMARK    6  A    between atoms: C_24  and  C_25 
ROOT
HETATM    1  C   UNL     1      -6.621   2.236 -34.195  1.00  0.00     0.118 C 
HETATM    2  N   UNL     1      -5.478   2.904 -33.562  1.00  0.00    -0.365 N 
HETATM    3  C   UNL     1      -5.438   3.116 -32.221  1.00  0.00     0.138 A 
HETATM    4  N   UNL     1      -6.557   2.890 -31.449  1.00  0.00    -0.240 N 
HETATM    5  N   UNL     1      -6.365   3.105 -30.140  1.00  0.00    -0.181 NA
HETATM    6  C   UNL     1      -5.117   3.574 -30.088  1.00  0.00     0.160 A 
HETATM    7  C   UNL     1      -4.474   3.594 -31.351  1.00  0.00     0.096 A 
HETATM    8  C   UNL     1      -7.838   2.454 -31.976  1.00  0.00     0.221 C 
HETATM    9  C   UNL     1      -7.896   2.731 -33.491  1.00  0.00     0.066 C 
HETATM   10  H   UNL     1      -4.815   3.339 -34.202  1.00  0.00     0.161 HD
ENDROOT
BRANCH   7  11
HETATM   11  C   UNL     1      -3.113   4.029 -31.593  1.00  0.00     0.257 C 
HETATM   12  N   UNL     1      -2.717   5.132 -30.876  1.00  0.00    -0.352 N 
HETATM   13  H   UNL     1      -3.413   5.627 -30.337  1.00  0.00     0.163 HD
HETATM   14  O   UNL     1      -2.393   3.462 -32.406  1.00  0.00    -0.267 OA
BRANCH  12  15
HETATM   15  C   UNL     1      -1.401   5.709 -31.018  1.00  0.00     0.161 C 
BRANCH  15  16
HETATM   16  C   UNL     1      -1.027   6.607 -29.864  1.00  0.00    -0.041 A 
HETATM   17  C   UNL     1       0.313   6.983 -29.686  1.00  0.00     0.009 A 
HETATM   18  C   UNL     1       0.678   7.863 -28.665  1.00  0.00     0.001 A 
HETATM   19  C   UNL     1      -0.294   8.382 -27.812  1.00  0.00     0.000 A 
HETATM   20  C   UNL     1      -1.630   8.030 -27.986  1.00  0.00     0.001 A 
HETATM   21  C   UNL     1      -1.997   7.155 -29.012  1.00  0.00     0.009 A 
ENDBRANCH  15  16
ENDBRANCH  12  15
ENDBRANCH   7  11
BRANCH   1  22
HETATM   22  C   UNL     1      -6.442   0.719 -34.232  1.00  0.00    -0.035 A 
HETATM   23  C   UNL     1      -7.303  -0.105 -34.977  1.00  0.00     0.012 A 
HETATM   24  C   UNL     1      -7.132  -1.496 -35.023  1.00  0.00     0.037 A 
HETATM   25  C   UNL     1      -6.076  -2.097 -34.343  1.00  0.00     0.068 A 
HETATM   26  C   UNL     1      -5.188  -1.292 -33.634  1.00  0.00     0.037 A 
HETATM   27  C   UNL     1      -5.364   0.095 -33.582  1.00  0.00     0.012 A 
BRANCH  25  28
HETATM   28  O   UNL     1      -5.797  -3.434 -34.307  1.00  0.00    -0.356 OA
HETATM   29  C   UNL     1      -6.636  -4.287 -35.076  1.00  0.00     0.210 C 
ENDBRANCH  25  28
ENDBRANCH   1  22
BRANCH   8  30
HETATM   30  C   UNL     1      -9.006   3.141 -31.300  1.00  0.00     0.409 C 
HETATM   31  F   UNL     1      -8.808   4.470 -31.141  1.00  0.00    -0.169 F 
HETATM   32  F   UNL     1     -10.115   3.012 -32.083  1.00  0.00    -0.169 F 
HETATM   33  F   UNL     1      -9.335   2.609 -30.105  1.00  0.00    -0.169 F 
ENDBRANCH   8  30
TORSDOF 6
ENDMDL
MODEL 6
REMARK VINA RESULT:      -8.5      4.477      9.460
REMARK  6 active torsions:
REMARK  status: ('A' for Active; 'I' for Inactive)
REMARK    1  A    between atoms: O_2  and  C_3 
REMARK    2  A    between atoms: C_6  and  C_7 
REMARK    3  A    between atoms: C_13  and  C_14 
REMARK       I    between atoms: C_14  and  N_15 
REMARK    4  A    between atoms: N_15  and  C_16 
REMARK    5  A    between atoms: C_16  and  C_17 
REMARK    6  A    between atoms: C_24  and  C_25 
ROOT
HETATM    1  C   UNL     1      -4.568   6.893 -31.989  1.00  0.00     0.118 C 
HETATM    2  N   UNL     1      -5.049   5.540 -32.297  1.00  0.00    -0.365 N 
HETATM    3  C   UNL     1      -4.289   4.445 -32.036  1.00  0.00     0.138 A 
HETATM    4  N   UNL     1      -2.970   4.588 -31.665  1.00  0.00    -0.240 N 
HETATM    5  N   UNL     1      -2.351   3.428 -31.405  1.00  0.00    -0.181 NA
HETATM    6  C   UNL     1      -3.273   2.514 -31.714  1.00  0.00     0.160 A 
HETATM    7  C   UNL     1      -4.513   3.081 -32.102  1.00  0.00     0.096 A 
HETATM    8  C   UNL     1      -2.288   5.864 -31.550  1.00  0.00     0.221 C 
HETATM    9  C   UNL     1      -3.069   6.941 -32.329  1.00  0.00     0.066 C 
HETATM   10  H   UNL     1      -5.896   5.494 -32.861  1.00  0.00     0.161 HD
ENDROOT
BRANCH   7  11
HETATM   11  C   UNL     1      -5.699   2.334 -32.469  1.00  0.00     0.257 C 
HETATM   12  N   UNL     1      -5.602   0.972 -32.314  1.00  0.00    -0.352 N 
HETATM   13  H   UNL     1      -4.701   0.580 -32.080  1.00  0.00     0.163 HD
HETATM   14  O   UNL     1      -6.696   2.889 -32.914  1.00  0.00    -0.267 OA
BRANCH  12  15
HETATM   15  C   UNL     1      -6.684   0.080 -32.657  1.00  0.00     0.161 C 
BRANCH  15  16
HETATM   16  C   UNL     1      -6.218  -1.157 -33.384  1.00  0.00    -0.041 A 
HETATM   17  C   UNL     1      -7.155  -1.972 -34.038  1.00  0.00     0.009 A 
HETATM   18  C   UNL     1      -6.743  -3.088 -34.769  1.00  0.00     0.001 A 
HETATM   19  C   UNL     1      -5.389  -3.401 -34.860  1.00  0.00     0.000 A 
HETATM   20  C   UNL     1      -4.446  -2.593 -34.229  1.00  0.00     0.001 A 
HETATM   21  C   UNL     1      -4.856  -1.473 -33.503  1.00  0.00     0.009 A 
ENDBRANCH  15  16
ENDBRANCH  12  15
ENDBRANCH   7  11
BRANCH   1  22
HETATM   22  C   UNL     1      -4.930   7.312 -30.565  1.00  0.00    -0.035 A 
HETATM   23  C   UNL     1      -4.275   8.378 -29.924  1.00  0.00     0.012 A 
HETATM   24  C   UNL     1      -4.614   8.773 -28.622  1.00  0.00     0.037 A 
HETATM   25  C   UNL     1      -5.638   8.125 -27.936  1.00  0.00     0.068 A 
HETATM   26  C   UNL     1      -6.325   7.094 -28.570  1.00  0.00     0.037 A 
HETATM   27  C   UNL     1      -5.982   6.695 -29.866  1.00  0.00     0.012 A 
BRANCH  25  28
HETATM   28  O   UNL     1      -6.066   8.411 -26.670  1.00  0.00    -0.356 OA
HETATM   29  C   UNL     1      -6.269   9.782 -26.354  1.00  0.00     0.210 C 
ENDBRANCH  25  28
ENDBRANCH   1  22
BRANCH   8  30
HETATM   30  C   UNL     1      -0.866   5.809 -32.070  1.00  0.00     0.409 C 
HETATM   31  F   UNL     1      -0.772   5.181 -33.264  1.00  0.00    -0.169 F 
HETATM   32  F   UNL     1      -0.413   7.080 -32.271  1.00  0.00    -0.169 F 
HETATM   33  F   UNL     1       0.006   5.239 -31.214  1.00  0.00    -0.169 F 
ENDBRANCH   8  30
TORSDOF 6
ENDMDL
MODEL 7
REMARK VINA RESULT:      -8.4      2.547      3.411
REMARK  6 active torsions:
REMARK  status: ('A' for Active; 'I' for Inactive)
REMARK    1  A    between atoms: O_2  and  C_3 
REMARK    2  A    between atoms: C_6  and  C_7 
REMARK    3  A    between atoms: C_13  and  C_14 
REMARK       I    between atoms: C_14  and  N_15 
REMARK    4  A    between atoms: N_15  and  C_16 
REMARK    5  A    between atoms: C_16  and  C_17 
REMARK    6  A    between atoms: C_24  and  C_25 
ROOT
HETATM    1  C   UNL     1      -7.055   2.197 -34.404  1.00  0.00     0.118 C 
HETATM    2  N   UNL     1      -6.274   3.406 -34.112  1.00  0.00    -0.365 N 
HETATM    3  C   UNL     1      -6.338   4.010 -32.896  1.00  0.00     0.138 A 
HETATM    4  N   UNL     1      -7.287   3.621 -31.976  1.00  0.00    -0.240 N 
HETATM    5  N   UNL     1      -7.211   4.276 -30.810  1.00  0.00    -0.181 NA
HETATM    6  C   UNL     1      -6.249   5.175 -31.026  1.00  0.00     0.160 A 
HETATM    7  C   UNL     1      -5.651   5.055 -32.305  1.00  0.00     0.096 A 
HETATM    8  C   UNL     1      -8.286   2.595 -32.218  1.00  0.00     0.221 C 
HETATM    9  C   UNL     1      -8.430   2.359 -33.734  1.00  0.00     0.066 C 
HETATM   10  H   UNL     1      -5.829   3.844 -34.915  1.00  0.00     0.161 HD
ENDROOT
BRANCH   7  11
HETATM   11  C   UNL     1      -4.568   5.878 -32.805  1.00  0.00     0.257 C 
HETATM   12  N   UNL     1      -3.964   6.680 -31.867  1.00  0.00    -0.352 N 
HETATM   13  H   UNL     1      -4.377   6.735 -30.947  1.00  0.00     0.163 HD
HETATM   14  O   UNL     1      -4.250   5.872 -33.988  1.00  0.00    -0.267 OA
BRANCH  12  15
HETATM   15  C   UNL     1      -2.886   7.579 -32.205  1.00  0.00     0.161 C 
BRANCH  15  16
HETATM   16  C   UNL     1      -1.687   7.423 -31.302  1.00  0.00    -0.041 A 
HETATM   17  C   UNL     1      -0.529   6.797 -31.789  1.00  0.00     0.009 A 
HETATM   18  C   UNL     1       0.615   6.696 -30.995  1.00  0.00     0.001 A 
HETATM   19  C   UNL     1       0.619   7.223 -29.706  1.00  0.00     0.000 A 
HETATM   20  C   UNL     1      -0.518   7.860 -29.214  1.00  0.00     0.001 A 
HETATM   21  C   UNL     1      -1.661   7.968 -30.009  1.00  0.00     0.009 A 
ENDBRANCH  15  16
ENDBRANCH  12  15
ENDBRANCH   7  11
BRANCH   1  22
HETATM   22  C   UNL     1      -6.292   0.926 -34.031  1.00  0.00    -0.035 A 
HETATM   23  C   UNL     1      -6.587  -0.311 -34.631  1.00  0.00     0.012 A 
HETATM   24  C   UNL     1      -5.880  -1.475 -34.300  1.00  0.00     0.037 A 
HETATM   25  C   UNL     1      -4.839  -1.426 -33.377  1.00  0.00     0.068 A 
HETATM   26  C   UNL     1      -4.505  -0.202 -32.804  1.00  0.00     0.037 A 
HETATM   27  C   UNL     1      -5.216   0.958 -33.128  1.00  0.00     0.012 A 
BRANCH  25  28
HETATM   28  O   UNL     1      -4.073  -2.481 -32.969  1.00  0.00    -0.356 OA
HETATM   29  C   UNL     1      -3.101  -2.221 -31.964  1.00  0.00     0.210 C 
ENDBRANCH  25  28
ENDBRANCH   1  22
BRANCH   8  30
HETATM   30  C   UNL     1      -9.639   2.957 -31.641  1.00  0.00     0.409 C 
HETATM   31  F   UNL     1      -9.958   4.257 -31.839  1.00  0.00    -0.169 F 
HETATM   32  F   UNL     1     -10.604   2.227 -32.270  1.00  0.00    -0.169 F 
HETATM   33  F   UNL     1      -9.764   2.680 -30.327  1.00  0.00    -0.169 F 
ENDBRANCH   8  30
TORSDOF 6
ENDMDL
MODEL 8
REMARK VINA RESULT:      -8.3      4.150      6.214
REMARK  6 active torsions:
REMARK  status: ('A' for Active; 'I' for Inactive)
REMARK    1  A    between atoms: O_2  and  C_3 
REMARK    2  A    between atoms: C_6  and  C_7 
REMARK    3  A    between atoms: C_13  and  C_14 
REMARK       I    between atoms: C_14  and  N_15 
REMARK    4  A    between atoms: N_15  and  C_16 
REMARK    5  A    between atoms: C_16  and  C_17 
REMARK    6  A    between atoms: C_24  and  C_25 
ROOT
HETATM    1  C   UNL     1      -6.369   1.643 -29.988  1.00  0.00     0.118 C 
HETATM    2  N   UNL     1      -5.694   2.946 -29.952  1.00  0.00    -0.365 N 
HETATM    3  C   UNL     1      -4.695   3.246 -30.823  1.00  0.00     0.138 A 
HETATM    4  N   UNL     1      -4.155   2.265 -31.626  1.00  0.00    -0.240 N 
HETATM    5  N   UNL     1      -3.205   2.709 -32.460  1.00  0.00    -0.181 NA
HETATM    6  C   UNL     1      -3.065   3.990 -32.110  1.00  0.00     0.160 A 
HETATM    7  C   UNL     1      -3.976   4.395 -31.103  1.00  0.00     0.096 A 
HETATM    8  C   UNL     1      -4.563   0.872 -31.599  1.00  0.00     0.221 C 
HETATM    9  C   UNL     1      -5.302   0.574 -30.280  1.00  0.00     0.066 C 
HETATM   10  H   UNL     1      -5.903   3.526 -29.142  1.00  0.00     0.161 HD
ENDROOT
BRANCH   7  11
HETATM   11  C   UNL     1      -4.071   5.730 -30.546  1.00  0.00     0.257 C 
HETATM   12  N   UNL     1      -2.975   6.141 -29.826  1.00  0.00    -0.352 N 
HETATM   13  H   UNL     1      -2.249   5.467 -29.633  1.00  0.00     0.163 HD
HETATM   14  O   UNL     1      -5.077   6.415 -30.687  1.00  0.00    -0.267 OA
BRANCH  12  15
HETATM   15  C   UNL     1      -2.918   7.433 -29.185  1.00  0.00     0.161 C 
BRANCH  15  16
HETATM   16  C   UNL     1      -1.531   7.793 -28.712  1.00  0.00    -0.041 A 
HETATM   17  C   UNL     1      -0.420   7.129 -29.253  1.00  0.00     0.009 A 
HETATM   18  C   UNL     1       0.877   7.485 -28.880  1.00  0.00     0.001 A 
HETATM   19  C   UNL     1       1.080   8.514 -27.963  1.00  0.00     0.000 A 
HETATM   20  C   UNL     1      -0.012   9.193 -27.428  1.00  0.00     0.001 A 
HETATM   21  C   UNL     1      -1.310   8.842 -27.806  1.00  0.00     0.009 A 
ENDBRANCH  15  16
ENDBRANCH  12  15
ENDBRANCH   7  11
BRANCH   1  22
HETATM   22  C   UNL     1      -7.564   1.650 -30.940  1.00  0.00    -0.035 A 
HETATM   23  C   UNL     1      -7.987   0.482 -31.598  1.00  0.00     0.012 A 
HETATM   24  C   UNL     1      -9.092   0.484 -32.461  1.00  0.00     0.037 A 
HETATM   25  C   UNL     1      -9.820   1.653 -32.669  1.00  0.00     0.068 A 
HETATM   26  C   UNL     1      -9.440   2.810 -31.994  1.00  0.00     0.037 A 
HETATM   27  C   UNL     1      -8.334   2.810 -31.138  1.00  0.00     0.012 A 
BRANCH  25  28
HETATM   28  O   UNL     1     -10.911   1.789 -33.479  1.00  0.00    -0.356 OA
HETATM   29  C   UNL     1     -10.880   2.850 -34.426  1.00  0.00     0.210 C 
ENDBRANCH  25  28
ENDBRANCH   1  22
BRANCH   8  30
HETATM   30  C   UNL     1      -3.391  -0.077 -31.737  1.00  0.00     0.409 C 
HETATM   31  F   UNL     1      -2.403   0.184 -30.851  1.00  0.00    -0.169 F 
HETATM   32  F   UNL     1      -3.810  -1.348 -31.476  1.00  0.00    -0.169 F 
HETATM   33  F   UNL     1      -2.860  -0.111 -32.976  1.00  0.00    -0.169 F 
ENDBRANCH   8  30
TORSDOF 6
ENDMDL
MODEL 9
REMARK VINA RESULT:      -8.2      2.312      7.660
REMARK  6 active torsions:
REMARK  status: ('A' for Active; 'I' for Inactive)
REMARK    1  A    between atoms: O_2  and  C_3 
REMARK    2  A    between atoms: C_6  and  C_7 
REMARK    3  A    between atoms: C_13  and  C_14 
REMARK       I    between atoms: C_14  and  N_15 
REMARK    4  A    between atoms: N_15  and  C_16 
REMARK    5  A    between atoms: C_16  and  C_17 
REMARK    6  A    between atoms: C_24  and  C_25 
ROOT
HETATM    1  C   UNL     1      -5.849   4.075 -29.753  1.00  0.00     0.118 C 
HETATM    2  N   UNL     1      -5.707   2.738 -30.342  1.00  0.00    -0.365 N 
HETATM    3  C   UNL     1      -6.521   2.319 -31.346  1.00  0.00     0.138 A 
HETATM    4  N   UNL     1      -7.627   3.060 -31.698  1.00  0.00    -0.240 N 
HETATM    5  N   UNL     1      -8.319   2.548 -32.725  1.00  0.00    -0.181 NA
HETATM    6  C   UNL     1      -7.690   1.397 -32.972  1.00  0.00     0.160 A 
HETATM    7  C   UNL     1      -6.549   1.198 -32.156  1.00  0.00     0.096 A 
HETATM    8  C   UNL     1      -8.030   4.290 -31.039  1.00  0.00     0.221 C 
HETATM    9  C   UNL     1      -7.354   4.382 -29.656  1.00  0.00     0.066 C 
HETATM   10  H   UNL     1      -5.086   2.104 -29.843  1.00  0.00     0.161 HD
ENDROOT
BRANCH   7  11
HETATM   11  C   UNL     1      -5.662   0.053 -32.219  1.00  0.00     0.257 C 
HETATM   12  N   UNL     1      -5.016  -0.121 -33.419  1.00  0.00    -0.352 N 
HETATM   13  H   UNL     1      -5.283   0.468 -34.195  1.00  0.00     0.163 HD
HETATM   14  O   UNL     1      -5.536  -0.714 -31.271  1.00  0.00    -0.267 OA
BRANCH  12  15
HETATM   15  C   UNL     1      -4.118  -1.226 -33.655  1.00  0.00     0.161 C 
BRANCH  15  16
HETATM   16  C   UNL     1      -4.829  -2.468 -34.132  1.00  0.00    -0.041 A 
HETATM   17  C   UNL     1      -4.172  -3.707 -34.079  1.00  0.00     0.009 A 
HETATM   18  C   UNL     1      -4.829  -4.880 -34.455  1.00  0.00     0.001 A 
HETATM   19  C   UNL     1      -6.152  -4.831 -34.886  1.00  0.00     0.000 A 
HETATM   20  C   UNL     1      -6.822  -3.611 -34.931  1.00  0.00     0.001 A 
HETATM   21  C   UNL     1      -6.169  -2.437 -34.548  1.00  0.00     0.009 A 
ENDBRANCH  15  16
ENDBRANCH  12  15
ENDBRANCH   7  11
BRANCH   1  22
HETATM   22  C   UNL     1      -5.017   5.116 -30.501  1.00  0.00    -0.035 A 
HETATM   23  C   UNL     1      -5.126   6.488 -30.215  1.00  0.00     0.012 A 
HETATM   24  C   UNL     1      -4.353   7.443 -30.891  1.00  0.00     0.037 A 
HETATM   25  C   UNL     1      -3.431   7.046 -31.855  1.00  0.00     0.068 A 
HETATM   26  C   UNL     1      -3.279   5.688 -32.122  1.00  0.00     0.037 A 
HETATM   27  C   UNL     1      -4.056   4.735 -31.453  1.00  0.00     0.012 A 
BRANCH  25  28
HETATM   28  O   UNL     1      -2.619   7.870 -32.582  1.00  0.00    -0.356 OA
HETATM   29  C   UNL     1      -1.218   7.645 -32.482  1.00  0.00     0.210 C 
ENDBRANCH  25  28
ENDBRANCH   1  22
BRANCH   8  30
HETATM   30  C   UNL     1      -9.531   4.389 -30.865  1.00  0.00     0.409 C 
HETATM   31  F   UNL     1     -10.090   3.216 -30.487  1.00  0.00    -0.169 F 
HETATM   32  F   UNL     1      -9.809   5.281 -29.872  1.00  0.00    -0.169 F 
HETATM   33  F   UNL     1     -10.178   4.841 -31.958  1.00  0.00    -0.169 F 
ENDBRANCH   8  30
TORSDOF 6
ENDMDL
MODEL 10
REMARK VINA RESULT:      -8.2      4.411      6.206
REMARK  6 active torsions:
REMARK  status: ('A' for Active; 'I' for Inactive)
REMARK    1  A    between atoms: O_2  and  C_3 
REMARK    2  A    between atoms: C_6  and  C_7 
REMARK    3  A    between atoms: C_13  and  C_14 
REMARK       I    between atoms: C_14  and  N_15 
REMARK    4  A    between atoms: N_15  and  C_16 
REMARK    5  A    between atoms: C_16  and  C_17 
REMARK    6  A    between atoms: C_24  and  C_25 
ROOT
HETATM    1  C   UNL     1      -6.213   0.629 -31.530  1.00  0.00     0.118 C 
HETATM    2  N   UNL     1      -7.241   1.605 -31.913  1.00  0.00    -0.365 N 
HETATM    3  C   UNL     1      -6.935   2.691 -32.670  1.00  0.00     0.138 A 
HETATM    4  N   UNL     1      -5.619   3.009 -32.928  1.00  0.00    -0.240 N 
HETATM    5  N   UNL     1      -5.466   4.083 -33.716  1.00  0.00    -0.181 NA
HETATM    6  C   UNL     1      -6.716   4.518 -33.886  1.00  0.00     0.160 A 
HETATM    7  C   UNL     1      -7.685   3.686 -33.271  1.00  0.00     0.096 A 
HETATM    8  C   UNL     1      -4.483   2.267 -32.413  1.00  0.00     0.221 C 
HETATM    9  C   UNL     1      -4.927   1.410 -31.210  1.00  0.00     0.066 C 
HETATM   10  H   UNL     1      -8.137   1.506 -31.441  1.00  0.00     0.161 HD
ENDROOT
BRANCH   7  11
HETATM   11  C   UNL     1      -9.118   3.898 -33.310  1.00  0.00     0.257 C 
HETATM   12  N   UNL     1      -9.691   3.786 -34.554  1.00  0.00    -0.352 N 
HETATM   13  H   UNL     1      -9.083   3.688 -35.353  1.00  0.00     0.163 HD
HETATM   14  O   UNL     1      -9.751   4.189 -32.302  1.00  0.00    -0.267 OA
BRANCH  12  15
HETATM   15  C   UNL     1     -11.104   3.991 -34.770  1.00  0.00     0.161 C 
BRANCH  15  16
HETATM   16  C   UNL     1     -11.420   5.362 -35.316  1.00  0.00    -0.041 A 
HETATM   17  C   UNL     1     -12.756   5.724 -35.550  1.00  0.00     0.009 A 
HETATM   18  C   UNL     1     -13.080   7.007 -35.995  1.00  0.00     0.001 A 
HETATM   19  C   UNL     1     -12.074   7.946 -36.207  1.00  0.00     0.000 A 
HETATM   20  C   UNL     1     -10.745   7.607 -35.965  1.00  0.00     0.001 A 
HETATM   21  C   UNL     1     -10.419   6.326 -35.513  1.00  0.00     0.009 A 
ENDBRANCH  15  16
ENDBRANCH  12  15
ENDBRANCH   7  11
BRANCH   1  22
HETATM   22  C   UNL     1      -6.064  -0.476 -32.575  1.00  0.00    -0.035 A 
HETATM   23  C   UNL     1      -7.119  -0.818 -33.439  1.00  0.00     0.012 A 
HETATM   24  C   UNL     1      -6.981  -1.822 -34.407  1.00  0.00     0.037 A 
HETATM   25  C   UNL     1      -5.770  -2.494 -34.554  1.00  0.00     0.068 A 
HETATM   26  C   UNL     1      -4.701  -2.140 -33.735  1.00  0.00     0.037 A 
HETATM   27  C   UNL     1      -4.842  -1.143 -32.764  1.00  0.00     0.012 A 
BRANCH  25  28
HETATM   28  O   UNL     1      -5.503  -3.487 -35.454  1.00  0.00    -0.356 OA
HETATM   29  C   UNL     1      -6.348  -4.630 -35.420  1.00  0.00     0.210 C 
ENDBRANCH  25  28
ENDBRANCH   1  22
BRANCH   8  30
HETATM   30  C   UNL     1      -3.346   3.171 -31.985  1.00  0.00     0.409 C 
HETATM   31  F   UNL     1      -2.551   3.532 -33.018  1.00  0.00    -0.169 F 
HETATM   32  F   UNL     1      -3.860   4.327 -31.476  1.00  0.00    -0.169 F 
HETATM   33  F   UNL     1      -2.573   2.651 -31.009  1.00  0.00    -0.169 F 
ENDBRANCH   8  30
TORSDOF 6
ENDMDL
