MODEL 1
REMARK VINA RESULT:     -10.3      0.000      0.000
REMARK  8 active torsions:
REMARK  status: ('A' for Active; 'I' for Inactive)
REMARK    1  A    between atoms: C_3  and  N_4 
REMARK       I    between atoms: N_4  and  C_5 
REMARK    2  A    between atoms: C_5  and  C_6 
REMARK    3  A    between atoms: C_7  and  C_8 
REMARK    4  A    between atoms: C_17  and  C_18 
REMARK    5  A    between atoms: C_20  and  O_21 
REMARK    6  A    between atoms: C_23  and  O_24 
REMARK    7  A    between atoms: O_24  and  C_25 
REMARK    8  A    between atoms: C_25  and  C_26 
REMARK       I    between atoms: C_26  and  N_27 
ROOT
HETATM    1  C   UNL     1      -4.095   6.378 -30.338  1.00  0.00     0.062 C 
HETATM    2  C   UNL     1      -3.984   5.048 -31.042  1.00  0.00     0.176 C 
HETATM    3  N   UNL     1      -5.260   4.354 -30.955  1.00  0.00    -0.277 N 
HETATM    4  C   UNL     1      -6.400   5.022 -30.639  1.00  0.00     0.177 C 
HETATM    5  S   UNL     1      -7.799   4.003 -30.815  1.00  0.00    -0.046 SA
HETATM    6  C   UNL     1      -6.844   2.681 -31.390  1.00  0.00     0.077 C 
HETATM    7  C   UNL     1      -7.378   1.577 -31.933  1.00  0.00     0.036 C 
HETATM    8  C   UNL     1      -5.393   3.024 -31.279  1.00  0.00     0.267 C 
HETATM    9  O   UNL     1      -4.475   2.233 -31.423  1.00  0.00    -0.266 OA
HETATM   10  N   UNL     1      -6.475   6.242 -30.231  1.00  0.00    -0.228 NA
HETATM   11  C   UNL     1      -5.292   6.922 -30.033  1.00  0.00     0.047 C 
HETATM   12  C   UNL     1      -5.481   8.313 -29.484  1.00  0.00     0.071 C 
ENDROOT
BRANCH   7  13
HETATM   13  C   UNL     1      -6.605   0.531 -32.604  1.00  0.00    -0.032 A 
HETATM   14  C   UNL     1      -5.604  -0.146 -31.888  1.00  0.00     0.051 A 
HETATM   15  C   UNL     1      -4.876  -1.178 -32.487  1.00  0.00     0.102 A 
HETATM   16  C   UNL     1      -5.156  -1.522 -33.819  1.00  0.00     0.102 A 
HETATM   17  C   UNL     1      -6.155  -0.853 -34.535  1.00  0.00     0.040 A 
HETATM   18  C   UNL     1      -6.872   0.179 -33.929  1.00  0.00     0.014 A 
BRANCH  15  19
HETATM   19  O   UNL     1      -3.878  -1.896 -31.878  1.00  0.00    -0.353 OA
HETATM   20  C   UNL     1      -2.616  -1.260 -31.730  1.00  0.00     0.210 C 
ENDBRANCH  15  19
BRANCH  16  21
HETATM   21  O   UNL     1      -4.475  -2.583 -34.355  1.00  0.00    -0.339 OA
BRANCH  21  22
HETATM   22  C   UNL     1      -5.175  -3.242 -35.411  1.00  0.00     0.278 C 
BRANCH  22  23
HETATM   23  C   UNL     1      -5.751  -4.554 -34.885  1.00  0.00     0.239 C 
HETATM   24  N   UNL     1      -7.101  -4.556 -34.667  1.00  0.00    -0.368 N 
HETATM   25  H   UNL     1      -7.663  -3.806 -35.059  1.00  0.00     0.159 HD
HETATM   26  H   UNL     1      -7.545  -5.422 -34.399  1.00  0.00     0.159 HD
HETATM   27  O   UNL     1      -5.063  -5.533 -34.615  1.00  0.00    -0.271 OA
ENDBRANCH  22  23
ENDBRANCH  21  22
ENDBRANCH  16  21
ENDBRANCH   7  13
BRANCH   2  28
HETATM   28  C   UNL     1      -3.634   5.150 -32.521  1.00  0.00     0.011 A 
HETATM   29  S   UNL     1      -2.047   4.759 -33.053  1.00  0.00    -0.104 SA
HETATM   30  C   UNL     1      -2.445   5.073 -34.684  1.00  0.00     0.050 A 
HETATM   31  C   UNL     1      -3.751   5.477 -34.830  1.00  0.00     0.008 A 
HETATM   32  C   UNL     1      -4.439   5.525 -33.583  1.00  0.00     0.017 A 
ENDBRANCH   2  28
BRANCH   1  33
HETATM   33  C   UNL     1      -2.792   7.038 -30.049  1.00  0.00     0.256 C 
HETATM   34  N   UNL     1      -2.266   6.687 -28.822  1.00  0.00    -0.323 N 
HETATM   35  H   UNL     1      -2.830   6.082 -28.241  1.00  0.00     0.169 HD
HETATM   36  O   UNL     1      -2.289   7.768 -30.891  1.00  0.00    -0.267 OA
BRANCH  34  37
HETATM   37  C   UNL     1      -1.030   7.099 -28.264  1.00  0.00     0.041 A 
HETATM   38  C   UNL     1      -0.806   6.906 -26.883  1.00  0.00    -0.035 A 
HETATM   39  C   UNL     1      -1.847   6.317 -25.969  1.00  0.00     0.050 C 
HETATM   40  C   UNL     1       0.421   7.303 -26.320  1.00  0.00     0.009 A 
HETATM   41  C   UNL     1       1.417   7.876 -27.105  1.00  0.00     0.001 A 
HETATM   42  C   UNL     1       1.198   8.064 -28.463  1.00  0.00     0.002 A 
HETATM   43  C   UNL     1      -0.017   7.680 -29.037  1.00  0.00     0.030 A 
ENDBRANCH  34  37
ENDBRANCH   1  33
TORSDOF 8
ENDMDL
MODEL 2
REMARK VINA RESULT:     -10.2      2.812      9.333
REMARK  8 active torsions:
REMARK  status: ('A' for Active; 'I' for Inactive)
REMARK    1  A    between atoms: C_3  and  N_4 
REMARK       I    between atoms: N_4  and  C_5 
REMARK    2  A    between atoms: C_5  and  C_6 
REMARK    3  A    between atoms: C_7  and  C_8 
REMARK    4  A    between atoms: C_17  and  C_18 
REMARK    5  A    between atoms: C_20  and  O_21 
REMARK    6  A    between atoms: C_23  and  O_24 
REMARK    7  A    between atoms: O_24  and  C_25 
REMARK    8  A    between atoms: C_25  and  C_26 
REMARK       I    between atoms: C_26  and  N_27 
ROOT
HETATM    1  C   UNL     1      -7.344   1.706 -34.047  1.00  0.00     0.062 C 
HETATM    2  C   UNL     1      -6.187   2.481 -33.466  1.00  0.00     0.176 C 
HETATM    3  N   UNL     1      -6.626   3.833 -33.154  1.00  0.00    -0.277 N 
HETATM    4  C   UNL     1      -7.947   4.135 -33.056  1.00  0.00     0.177 C 
HETATM    5  S   UNL     1      -8.183   5.755 -32.467  1.00  0.00    -0.046 SA
HETATM    6  C   UNL     1      -6.481   6.006 -32.285  1.00  0.00     0.077 C 
HETATM    7  C   UNL     1      -5.964   7.059 -31.636  1.00  0.00     0.036 C 
HETATM    8  C   UNL     1      -5.738   4.838 -32.852  1.00  0.00     0.267 C 
HETATM    9  O   UNL     1      -4.533   4.805 -33.045  1.00  0.00    -0.266 OA
HETATM   10  N   UNL     1      -8.927   3.361 -33.372  1.00  0.00    -0.228 NA
HETATM   11  C   UNL     1      -8.619   2.134 -33.923  1.00  0.00     0.047 C 
HETATM   12  C   UNL     1      -9.830   1.334 -34.329  1.00  0.00     0.071 C 
ENDROOT
BRANCH   7  13
HETATM   13  C   UNL     1      -4.548   7.204 -31.293  1.00  0.00    -0.032 A 
HETATM   14  C   UNL     1      -4.130   6.927 -29.981  1.00  0.00     0.051 A 
HETATM   15  C   UNL     1      -2.780   7.017 -29.632  1.00  0.00     0.102 A 
HETATM   16  C   UNL     1      -1.849   7.394 -30.612  1.00  0.00     0.102 A 
HETATM   17  C   UNL     1      -2.260   7.666 -31.921  1.00  0.00     0.040 A 
HETATM   18  C   UNL     1      -3.611   7.579 -32.258  1.00  0.00     0.014 A 
BRANCH  15  19
HETATM   19  O   UNL     1      -2.271   6.773 -28.381  1.00  0.00    -0.353 OA
HETATM   20  C   UNL     1      -2.612   7.690 -27.350  1.00  0.00     0.210 C 
ENDBRANCH  15  19
BRANCH  16  21
HETATM   21  O   UNL     1      -0.525   7.403 -30.257  1.00  0.00    -0.339 OA
BRANCH  21  22
HETATM   22  C   UNL     1       0.304   6.612 -31.109  1.00  0.00     0.278 C 
BRANCH  22  23
HETATM   23  C   UNL     1       0.644   5.305 -30.400  1.00  0.00     0.239 C 
HETATM   24  N   UNL     1       0.187   5.198 -29.116  1.00  0.00    -0.368 N 
HETATM   25  H   UNL     1      -0.514   5.856 -28.787  1.00  0.00     0.159 HD
HETATM   26  H   UNL     1       0.313   4.322 -28.631  1.00  0.00     0.159 HD
HETATM   27  O   UNL     1       1.327   4.420 -30.907  1.00  0.00    -0.271 OA
ENDBRANCH  22  23
ENDBRANCH  21  22
ENDBRANCH  16  21
ENDBRANCH   7  13
BRANCH   2  28
HETATM   28  C   UNL     1      -5.622   1.891 -32.180  1.00  0.00     0.011 A 
HETATM   29  S   UNL     1      -6.671   1.555 -30.861  1.00  0.00    -0.104 SA
HETATM   30  C   UNL     1      -5.389   0.946 -29.911  1.00  0.00     0.050 A 
HETATM   31  C   UNL     1      -4.183   1.002 -30.570  1.00  0.00     0.008 A 
HETATM   32  C   UNL     1      -4.315   1.550 -31.879  1.00  0.00     0.017 A 
ENDBRANCH   2  28
BRANCH   1  33
HETATM   33  C   UNL     1      -6.964   0.436 -34.723  1.00  0.00     0.256 C 
HETATM   34  N   UNL     1      -6.610  -0.565 -33.841  1.00  0.00    -0.323 N 
HETATM   35  H   UNL     1      -6.590  -0.321 -32.860  1.00  0.00     0.169 HD
HETATM   36  O   UNL     1      -7.033   0.360 -35.942  1.00  0.00    -0.267 OA
BRANCH  34  37
HETATM   37  C   UNL     1      -6.240  -1.897 -34.150  1.00  0.00     0.041 A 
HETATM   38  C   UNL     1      -4.888  -2.281 -34.013  1.00  0.00    -0.035 A 
HETATM   39  C   UNL     1      -3.812  -1.316 -33.590  1.00  0.00     0.050 C 
HETATM   40  C   UNL     1      -4.511  -3.604 -34.309  1.00  0.00     0.009 A 
HETATM   41  C   UNL     1      -5.453  -4.540 -34.728  1.00  0.00     0.001 A 
HETATM   42  C   UNL     1      -6.783  -4.163 -34.860  1.00  0.00     0.002 A 
HETATM   43  C   UNL     1      -7.173  -2.852 -34.576  1.00  0.00     0.030 A 
ENDBRANCH  34  37
ENDBRANCH   1  33
TORSDOF 8
ENDMDL
MODEL 3
REMARK VINA RESULT:      -9.6      1.907      2.630
REMARK  8 active torsions:
REMARK  status: ('A' for Active; 'I' for Inactive)
REMARK    1  A    between atoms: C_3  and  N_4 
REMARK       I    between atoms: N_4  and  C_5 
REMARK    2  A    between atoms: C_5  and  C_6 
REMARK    3  A    between atoms: C_7  and  C_8 
REMARK    4  A    between atoms: C_17  and  C_18 
REMARK    5  A    between atoms: C_20  and  O_21 
REMARK    6  A    between atoms: C_23  and  O_24 
REMARK    7  A    between atoms: O_24  and  C_25 
REMARK    8  A    between atoms: C_25  and  C_26 
REMARK       I    between atoms: C_26  and  N_27 
ROOT
HETATM    1  C   UNL     1      -3.570   7.398 -29.909  1.00  0.00     0.062 C 
HETATM    2  C   UNL     1      -3.706   5.980 -30.406  1.00  0.00     0.176 C 
HETATM    3  N   UNL     1      -5.097   5.567 -30.297  1.00  0.00    -0.277 N 
HETATM    4  C   UNL     1      -6.089   6.482 -30.147  1.00  0.00     0.177 C 
HETATM    5  S   UNL     1      -7.658   5.738 -30.257  1.00  0.00    -0.046 SA
HETATM    6  C   UNL     1      -6.969   4.184 -30.579  1.00  0.00     0.077 C 
HETATM    7  C   UNL     1      -7.697   3.134 -30.989  1.00  0.00     0.036 C 
HETATM    8  C   UNL     1      -5.483   4.254 -30.433  1.00  0.00     0.267 C 
HETATM    9  O   UNL     1      -4.738   3.288 -30.408  1.00  0.00    -0.266 OA
HETATM   10  N   UNL     1      -5.932   7.741 -29.925  1.00  0.00    -0.228 NA
HETATM   11  C   UNL     1      -4.643   8.203 -29.757  1.00  0.00     0.047 C 
HETATM   12  C   UNL     1      -4.567   9.672 -29.426  1.00  0.00     0.071 C 
ENDROOT
BRANCH   7  13
HETATM   13  C   UNL     1      -7.128   1.869 -31.455  1.00  0.00    -0.032 A 
HETATM   14  C   UNL     1      -6.971   1.657 -32.835  1.00  0.00     0.051 A 
HETATM   15  C   UNL     1      -6.394   0.476 -33.311  1.00  0.00     0.102 A 
HETATM   16  C   UNL     1      -5.981  -0.498 -32.388  1.00  0.00     0.102 A 
HETATM   17  C   UNL     1      -6.131  -0.289 -31.013  1.00  0.00     0.040 A 
HETATM   18  C   UNL     1      -6.713   0.891 -30.548  1.00  0.00     0.014 A 
BRANCH  15  19
HETATM   19  O   UNL     1      -6.201   0.170 -34.635  1.00  0.00    -0.353 OA
HETATM   20  C   UNL     1      -7.360   0.016 -35.443  1.00  0.00     0.210 C 
ENDBRANCH  15  19
BRANCH  16  21
HETATM   21  O   UNL     1      -5.355  -1.613 -32.882  1.00  0.00    -0.339 OA
BRANCH  21  22
HETATM   22  C   UNL     1      -3.977  -1.406 -33.197  1.00  0.00     0.278 C 
BRANCH  22  23
HETATM   23  C   UNL     1      -3.116  -2.016 -32.096  1.00  0.00     0.239 C 
HETATM   24  N   UNL     1      -2.241  -1.157 -31.492  1.00  0.00    -0.368 N 
HETATM   25  H   UNL     1      -2.356  -0.158 -31.635  1.00  0.00     0.159 HD
HETATM   26  H   UNL     1      -1.707  -1.489 -30.701  1.00  0.00     0.159 HD
HETATM   27  O   UNL     1      -3.149  -3.205 -31.793  1.00  0.00    -0.271 OA
ENDBRANCH  22  23
ENDBRANCH  21  22
ENDBRANCH  16  21
ENDBRANCH   7  13
BRANCH   2  28
HETATM   28  C   UNL     1      -3.300   5.786 -31.862  1.00  0.00     0.011 A 
HETATM   29  S   UNL     1      -1.951   4.793 -32.247  1.00  0.00    -0.104 SA
HETATM   30  C   UNL     1      -2.157   5.048 -33.923  1.00  0.00     0.050 A 
HETATM   31  C   UNL     1      -3.221   5.877 -34.194  1.00  0.00     0.008 A 
HETATM   32  C   UNL     1      -3.880   6.306 -33.006  1.00  0.00     0.017 A 
ENDBRANCH   2  28
BRANCH   1  33
HETATM   33  C   UNL     1      -2.171   7.831 -29.642  1.00  0.00     0.256 C 
HETATM   34  N   UNL     1      -1.832   7.776 -28.305  1.00  0.00    -0.323 N 
HETATM   35  H   UNL     1      -2.564   7.512 -27.660  1.00  0.00     0.169 HD
HETATM   36  O   UNL     1      -1.449   8.143 -30.579  1.00  0.00    -0.267 OA
BRANCH  34  37
HETATM   37  C   UNL     1      -0.576   8.076 -27.721  1.00  0.00     0.041 A 
HETATM   38  C   UNL     1      -0.270   9.420 -27.411  1.00  0.00    -0.035 A 
HETATM   39  C   UNL     1      -1.210  10.555 -27.716  1.00  0.00     0.050 C 
HETATM   40  C   UNL     1       0.970   9.728 -26.822  1.00  0.00     0.009 A 
HETATM   41  C   UNL     1       1.895   8.728 -26.535  1.00  0.00     0.001 A 
HETATM   42  C   UNL     1       1.593   7.406 -26.837  1.00  0.00     0.002 A 
HETATM   43  C   UNL     1       0.368   7.084 -27.427  1.00  0.00     0.030 A 
ENDBRANCH  34  37
ENDBRANCH   1  33
TORSDOF 8
ENDMDL
MODEL 4
REMARK VINA RESULT:      -9.0      1.977      2.447
REMARK  8 active torsions:
REMARK  status: ('A' for Active; 'I' for Inactive)
REMARK    1  A    between atoms: C_3  and  N_4 
REMARK       I    between atoms: N_4  and  C_5 
REMARK    2  A    between atoms: C_5  and  C_6 
REMARK    3  A    between atoms: C_7  and  C_8 
REMARK    4  A    between atoms: C_17  and  C_18 
REMARK    5  A    between atoms: C_20  and  O_21 
REMARK    6  A    between atoms: C_23  and  O_24 
REMARK    7  A    between atoms: O_24  and  C_25 
REMARK    8  A    between atoms: C_25  and  C_26 
REMARK       I    between atoms: C_26  and  N_27 
ROOT
HETATM    1  C   UNL     1      -3.858   8.147 -30.585  1.00  0.00     0.062 C 
HETATM    2  C   UNL     1      -3.928   6.686 -30.953  1.00  0.00     0.176 C 
HETATM    3  N   UNL     1      -5.294   6.351 -31.324  1.00  0.00    -0.277 N 
HETATM    4  C   UNL     1      -6.190   7.321 -31.644  1.00  0.00     0.177 C 
HETATM    5  S   UNL     1      -7.671   6.638 -32.251  1.00  0.00    -0.046 SA
HETATM    6  C   UNL     1      -7.050   5.028 -32.138  1.00  0.00     0.077 C 
HETATM    7  C   UNL     1      -7.668   3.969 -32.681  1.00  0.00     0.036 C 
HETATM    8  C   UNL     1      -5.717   5.050 -31.462  1.00  0.00     0.267 C 
HETATM    9  O   UNL     1      -5.118   4.063 -31.066  1.00  0.00    -0.266 OA
HETATM   10  N   UNL     1      -6.015   8.590 -31.506  1.00  0.00    -0.228 NA
HETATM   11  C   UNL     1      -4.839   9.011 -30.920  1.00  0.00     0.047 C 
HETATM   12  C   UNL     1      -4.760  10.505 -30.734  1.00  0.00     0.071 C 
ENDROOT
BRANCH   7  13
HETATM   13  C   UNL     1      -7.082   2.631 -32.775  1.00  0.00    -0.032 A 
HETATM   14  C   UNL     1      -7.008   1.832 -31.622  1.00  0.00     0.051 A 
HETATM   15  C   UNL     1      -6.491   0.536 -31.687  1.00  0.00     0.102 A 
HETATM   16  C   UNL     1      -6.040   0.046 -32.923  1.00  0.00     0.102 A 
HETATM   17  C   UNL     1      -6.115   0.835 -34.075  1.00  0.00     0.040 A 
HETATM   18  C   UNL     1      -6.628   2.131 -33.999  1.00  0.00     0.014 A 
BRANCH  15  19
HETATM   19  O   UNL     1      -6.372  -0.321 -30.621  1.00  0.00    -0.353 OA
HETATM   20  C   UNL     1      -5.872   0.220 -29.405  1.00  0.00     0.210 C 
ENDBRANCH  15  19
BRANCH  16  21
HETATM   21  O   UNL     1      -5.605  -1.253 -32.968  1.00  0.00    -0.339 OA
BRANCH  21  22
HETATM   22  C   UNL     1      -4.224  -1.385 -33.306  1.00  0.00     0.278 C 
BRANCH  22  23
HETATM   23  C   UNL     1      -3.442  -1.791 -32.061  1.00  0.00     0.239 C 
HETATM   24  N   UNL     1      -3.100  -0.766 -31.223  1.00  0.00    -0.368 N 
HETATM   25  H   UNL     1      -3.553   0.136 -31.340  1.00  0.00     0.159 HD
HETATM   26  H   UNL     1      -2.655  -0.989 -30.345  1.00  0.00     0.159 HD
HETATM   27  O   UNL     1      -3.084  -2.943 -31.834  1.00  0.00    -0.271 OA
ENDBRANCH  22  23
ENDBRANCH  21  22
ENDBRANCH  16  21
ENDBRANCH   7  13
BRANCH   2  28
HETATM   28  C   UNL     1      -3.041   6.294 -32.128  1.00  0.00     0.011 A 
HETATM   29  S   UNL     1      -1.810   5.113 -31.913  1.00  0.00    -0.104 SA
HETATM   30  C   UNL     1      -1.335   5.214 -33.550  1.00  0.00     0.050 A 
HETATM   31  C   UNL     1      -2.083   6.131 -34.251  1.00  0.00     0.008 A 
HETATM   32  C   UNL     1      -3.066   6.757 -33.432  1.00  0.00     0.017 A 
ENDBRANCH   2  28
BRANCH   1  33
HETATM   33  C   UNL     1      -2.619   8.548 -29.863  1.00  0.00     0.256 C 
HETATM   34  N   UNL     1      -2.149   7.572 -29.007  1.00  0.00    -0.323 N 
HETATM   35  H   UNL     1      -2.710   6.736 -28.918  1.00  0.00     0.169 HD
HETATM   36  O   UNL     1      -2.110   9.634 -30.102  1.00  0.00    -0.267 OA
BRANCH  34  37
HETATM   37  C   UNL     1      -0.978   7.615 -28.211  1.00  0.00     0.041 A 
HETATM   38  C   UNL     1      -1.060   7.230 -26.854  1.00  0.00    -0.035 A 
HETATM   39  C   UNL     1      -2.355   6.816 -26.208  1.00  0.00     0.050 C 
HETATM   40  C   UNL     1       0.098   7.260 -26.056  1.00  0.00     0.009 A 
HETATM   41  C   UNL     1       1.323   7.657 -26.586  1.00  0.00     0.001 A 
HETATM   42  C   UNL     1       1.405   8.032 -27.920  1.00  0.00     0.002 A 
HETATM   43  C   UNL     1       0.263   8.014 -28.725  1.00  0.00     0.030 A 
ENDBRANCH  34  37
ENDBRANCH   1  33
TORSDOF 8
ENDMDL
MODEL 5
REMARK VINA RESULT:      -9.0      4.615      7.809
REMARK  8 active torsions:
REMARK  status: ('A' for Active; 'I' for Inactive)
REMARK    1  A    between atoms: C_3  and  N_4 
REMARK       I    between atoms: N_4  and  C_5 
REMARK    2  A    between atoms: C_5  and  C_6 
REMARK    3  A    between atoms: C_7  and  C_8 
REMARK    4  A    between atoms: C_17  and  C_18 
REMARK    5  A    between atoms: C_20  and  O_21 
REMARK    6  A    between atoms: C_23  and  O_24 
REMARK    7  A    between atoms: O_24  and  C_25 
REMARK    8  A    between atoms: C_25  and  C_26 
REMARK       I    between atoms: C_26  and  N_27 
ROOT
HETATM    1  C   UNL     1      -5.050   1.778 -32.154  1.00  0.00     0.062 C 
HETATM    2  C   UNL     1      -6.267   2.597 -32.508  1.00  0.00     0.176 C 
HETATM    3  N   UNL     1      -7.337   1.705 -32.928  1.00  0.00    -0.277 N 
HETATM    4  C   UNL     1      -7.296   0.378 -32.638  1.00  0.00     0.177 C 
HETATM    5  S   UNL     1      -8.789  -0.408 -33.066  1.00  0.00    -0.046 SA
HETATM    6  C   UNL     1      -9.502   1.083 -33.577  1.00  0.00     0.077 C 
HETATM    7  C   UNL     1     -10.809   1.210 -33.851  1.00  0.00     0.036 C 
HETATM    8  C   UNL     1      -8.473   2.168 -33.548  1.00  0.00     0.267 C 
HETATM    9  O   UNL     1      -8.617   3.279 -34.031  1.00  0.00    -0.266 OA
HETATM   10  N   UNL     1      -6.295  -0.258 -32.137  1.00  0.00    -0.228 NA
HETATM   11  C   UNL     1      -5.128   0.449 -31.932  1.00  0.00     0.047 C 
HETATM   12  C   UNL     1      -3.993  -0.398 -31.416  1.00  0.00     0.071 C 
ENDROOT
BRANCH   7  13
HETATM   13  C   UNL     1     -11.480   2.488 -34.095  1.00  0.00    -0.032 A 
HETATM   14  C   UNL     1     -11.782   3.321 -33.006  1.00  0.00     0.051 A 
HETATM   15  C   UNL     1     -12.386   4.565 -33.208  1.00  0.00     0.102 A 
HETATM   16  C   UNL     1     -12.692   4.966 -34.519  1.00  0.00     0.102 A 
HETATM   17  C   UNL     1     -12.389   4.141 -35.607  1.00  0.00     0.040 A 
HETATM   18  C   UNL     1     -11.791   2.898 -35.394  1.00  0.00     0.014 A 
BRANCH  15  19
HETATM   19  O   UNL     1     -12.726   5.448 -32.214  1.00  0.00    -0.353 OA
HETATM   20  C   UNL     1     -12.646   4.981 -30.874  1.00  0.00     0.210 C 
ENDBRANCH  15  19
BRANCH  16  21
HETATM   21  O   UNL     1     -13.218   6.219 -34.690  1.00  0.00    -0.339 OA
BRANCH  21  22
HETATM   22  C   UNL     1     -12.564   6.984 -35.704  1.00  0.00     0.278 C 
BRANCH  22  23
HETATM   23  C   UNL     1     -11.269   7.557 -35.139  1.00  0.00     0.239 C 
HETATM   24  N   UNL     1     -10.143   7.294 -35.870  1.00  0.00    -0.368 N 
HETATM   25  H   UNL     1     -10.244   6.948 -36.820  1.00  0.00     0.159 HD
HETATM   26  H   UNL     1      -9.273   7.720 -35.586  1.00  0.00     0.159 HD
HETATM   27  O   UNL     1     -11.207   8.166 -34.075  1.00  0.00    -0.271 OA
ENDBRANCH  22  23
ENDBRANCH  21  22
ENDBRANCH  16  21
ENDBRANCH   7  13
BRANCH   2  28
HETATM   28  C   UNL     1      -6.813   3.433 -31.358  1.00  0.00     0.011 A 
HETATM   29  S   UNL     1      -6.922   5.141 -31.520  1.00  0.00    -0.104 SA
HETATM   30  C   UNL     1      -7.595   5.313 -29.960  1.00  0.00     0.050 A 
HETATM   31  C   UNL     1      -7.728   4.105 -29.317  1.00  0.00     0.008 A 
HETATM   32  C   UNL     1      -7.275   3.019 -30.121  1.00  0.00     0.017 A 
ENDBRANCH   2  28
BRANCH   1  33
HETATM   33  C   UNL     1      -3.787   2.559 -32.040  1.00  0.00     0.256 C 
HETATM   34  N   UNL     1      -3.757   3.666 -32.863  1.00  0.00    -0.323 N 
HETATM   35  H   UNL     1      -4.546   3.795 -33.481  1.00  0.00     0.169 HD
HETATM   36  O   UNL     1      -2.935   2.208 -31.236  1.00  0.00    -0.267 OA
BRANCH  34  37
HETATM   37  C   UNL     1      -2.730   4.637 -32.966  1.00  0.00     0.041 A 
HETATM   38  C   UNL     1      -2.677   5.457 -34.114  1.00  0.00    -0.035 A 
HETATM   39  C   UNL     1      -3.646   5.312 -35.258  1.00  0.00     0.050 C 
HETATM   40  C   UNL     1      -1.667   6.431 -34.222  1.00  0.00     0.009 A 
HETATM   41  C   UNL     1      -0.725   6.601 -33.212  1.00  0.00     0.001 A 
HETATM   42  C   UNL     1      -0.779   5.797 -32.081  1.00  0.00     0.002 A 
HETATM   43  C   UNL     1      -1.772   4.821 -31.960  1.00  0.00     0.030 A 
ENDBRANCH  34  37
ENDBRANCH   1  33
TORSDOF 8
ENDMDL
MODEL 6
REMARK VINA RESULT:      -9.0      5.650      7.965
REMARK  8 active torsions:
REMARK  status: ('A' for Active; 'I' for Inactive)
REMARK    1  A    between atoms: C_3  and  N_4 
REMARK       I    between atoms: N_4  and  C_5 
REMARK    2  A    between atoms: C_5  and  C_6 
REMARK    3  A    between atoms: C_7  and  C_8 
REMARK    4  A    between atoms: C_17  and  C_18 
REMARK    5  A    between atoms: C_20  and  O_21 
REMARK    6  A    between atoms: C_23  and  O_24 
REMARK    7  A    between atoms: O_24  and  C_25 
REMARK    8  A    between atoms: C_25  and  C_26 
REMARK       I    between atoms: C_26  and  N_27 
ROOT
HETATM    1  C   UNL     1     -10.909   6.470 -33.442  1.00  0.00     0.062 C 
HETATM    2  C   UNL     1     -10.270   5.171 -33.866  1.00  0.00     0.176 C 
HETATM    3  N   UNL     1      -9.579   4.585 -32.728  1.00  0.00    -0.277 N 
HETATM    4  C   UNL     1      -9.850   4.990 -31.460  1.00  0.00     0.177 C 
HETATM    5  S   UNL     1      -9.046   3.985 -30.289  1.00  0.00    -0.046 SA
HETATM    6  C   UNL     1      -8.393   2.961 -31.521  1.00  0.00     0.077 C 
HETATM    7  C   UNL     1      -7.798   1.789 -31.256  1.00  0.00     0.036 C 
HETATM    8  C   UNL     1      -8.699   3.538 -32.867  1.00  0.00     0.267 C 
HETATM    9  O   UNL     1      -8.211   3.154 -33.918  1.00  0.00    -0.266 OA
HETATM   10  N   UNL     1     -10.579   5.999 -31.126  1.00  0.00    -0.228 NA
HETATM   11  C   UNL     1     -11.084   6.784 -32.141  1.00  0.00     0.047 C 
HETATM   12  C   UNL     1     -11.859   7.980 -31.650  1.00  0.00     0.071 C 
ENDROOT
BRANCH   7  13
HETATM   13  C   UNL     1      -7.411   0.812 -32.274  1.00  0.00    -0.032 A 
HETATM   14  C   UNL     1      -6.047   0.592 -32.529  1.00  0.00     0.051 A 
HETATM   15  C   UNL     1      -5.644  -0.363 -33.465  1.00  0.00     0.102 A 
HETATM   16  C   UNL     1      -6.624  -1.096 -34.153  1.00  0.00     0.102 A 
HETATM   17  C   UNL     1      -7.983  -0.884 -33.900  1.00  0.00     0.040 A 
HETATM   18  C   UNL     1      -8.376   0.076 -32.966  1.00  0.00     0.014 A 
BRANCH  15  19
HETATM   19  O   UNL     1      -4.341  -0.650 -33.790  1.00  0.00    -0.353 OA
HETATM   20  C   UNL     1      -3.344  -0.313 -32.834  1.00  0.00     0.210 C 
ENDBRANCH  15  19
BRANCH  16  21
HETATM   21  O   UNL     1      -6.197  -2.074 -35.013  1.00  0.00    -0.339 OA
BRANCH  21  22
HETATM   22  C   UNL     1      -6.611  -3.389 -34.639  1.00  0.00     0.278 C 
BRANCH  22  23
HETATM   23  C   UNL     1      -5.399  -4.316 -34.651  1.00  0.00     0.239 C 
HETATM   24  N   UNL     1      -4.217  -3.740 -34.277  1.00  0.00    -0.368 N 
HETATM   25  H   UNL     1      -4.235  -2.836 -33.814  1.00  0.00     0.159 HD
HETATM   26  H   UNL     1      -3.401  -4.329 -34.187  1.00  0.00     0.159 HD
HETATM   27  O   UNL     1      -5.448  -5.485 -35.021  1.00  0.00    -0.271 OA
ENDBRANCH  22  23
ENDBRANCH  21  22
ENDBRANCH  16  21
ENDBRANCH   7  13
BRANCH   2  28
HETATM   28  C   UNL     1     -11.256   4.125 -34.372  1.00  0.00     0.011 A 
HETATM   29  S   UNL     1     -12.469   3.514 -33.318  1.00  0.00    -0.104 SA
HETATM   30  C   UNL     1     -13.115   2.508 -34.537  1.00  0.00     0.050 A 
HETATM   31  C   UNL     1     -12.425   2.620 -35.722  1.00  0.00     0.008 A 
HETATM   32  C   UNL     1     -11.350   3.551 -35.628  1.00  0.00     0.017 A 
ENDBRANCH   2  28
BRANCH   1  33
HETATM   33  C   UNL     1     -11.352   7.341 -34.566  1.00  0.00     0.256 C 
HETATM   34  N   UNL     1     -10.353   8.169 -35.038  1.00  0.00    -0.323 N 
HETATM   35  H   UNL     1      -9.469   8.140 -34.548  1.00  0.00     0.169 HD
HETATM   36  O   UNL     1     -12.491   7.233 -34.996  1.00  0.00    -0.267 OA
BRANCH  34  37
HETATM   37  C   UNL     1     -10.428   9.081 -36.119  1.00  0.00     0.041 A 
HETATM   38  C   UNL     1     -10.786  10.423 -35.857  1.00  0.00    -0.035 A 
HETATM   39  C   UNL     1     -11.133  10.913 -34.477  1.00  0.00     0.050 C 
HETATM   40  C   UNL     1     -10.855  11.340 -36.922  1.00  0.00     0.009 A 
HETATM   41  C   UNL     1     -10.569  10.946 -38.226  1.00  0.00     0.001 A 
HETATM   42  C   UNL     1     -10.215   9.628 -38.484  1.00  0.00     0.002 A 
HETATM   43  C   UNL     1     -10.148   8.703 -37.438  1.00  0.00     0.030 A 
ENDBRANCH  34  37
ENDBRANCH   1  33
TORSDOF 8
ENDMDL
MODEL 7
REMARK VINA RESULT:      -8.9      2.118      3.057
REMARK  8 active torsions:
REMARK  status: ('A' for Active; 'I' for Inactive)
REMARK    1  A    between atoms: C_3  and  N_4 
REMARK       I    between atoms: N_4  and  C_5 
REMARK    2  A    between atoms: C_5  and  C_6 
REMARK    3  A    between atoms: C_7  and  C_8 
REMARK    4  A    between atoms: C_17  and  C_18 
REMARK    5  A    between atoms: C_20  and  O_21 
REMARK    6  A    between atoms: C_23  and  O_24 
REMARK    7  A    between atoms: O_24  and  C_25 
REMARK    8  A    between atoms: C_25  and  C_26 
REMARK       I    between atoms: C_26  and  N_27 
ROOT
HETATM    1  C   UNL     1      -4.206   7.694 -29.683  1.00  0.00     0.062 C 
HETATM    2  C   UNL     1      -4.486   6.324 -30.250  1.00  0.00     0.176 C 
HETATM    3  N   UNL     1      -5.767   6.345 -30.939  1.00  0.00    -0.277 N 
HETATM    4  C   UNL     1      -6.345   7.518 -31.306  1.00  0.00     0.177 C 
HETATM    5  S   UNL     1      -7.752   7.248 -32.293  1.00  0.00    -0.046 SA
HETATM    6  C   UNL     1      -7.518   5.534 -32.271  1.00  0.00     0.077 C 
HETATM    7  C   UNL     1      -8.196   4.695 -33.067  1.00  0.00     0.036 C 
HETATM    8  C   UNL     1      -6.403   5.192 -31.334  1.00  0.00     0.267 C 
HETATM    9  O   UNL     1      -6.128   4.064 -30.959  1.00  0.00    -0.266 OA
HETATM   10  N   UNL     1      -5.951   8.697 -30.966  1.00  0.00    -0.228 NA
HETATM   11  C   UNL     1      -4.883   8.786 -30.097  1.00  0.00     0.047 C 
HETATM   12  C   UNL     1      -4.546  10.200 -29.699  1.00  0.00     0.071 C 
ENDROOT
BRANCH   7  13
HETATM   13  C   UNL     1      -7.890   3.271 -33.216  1.00  0.00    -0.032 A 
HETATM   14  C   UNL     1      -8.722   2.324 -32.596  1.00  0.00     0.051 A 
HETATM   15  C   UNL     1      -8.481   0.956 -32.752  1.00  0.00     0.102 A 
HETATM   16  C   UNL     1      -7.390   0.544 -33.533  1.00  0.00     0.102 A 
HETATM   17  C   UNL     1      -6.561   1.483 -34.156  1.00  0.00     0.040 A 
HETATM   18  C   UNL     1      -6.807   2.847 -33.989  1.00  0.00     0.014 A 
BRANCH  15  19
HETATM   19  O   UNL     1      -9.229  -0.047 -32.187  1.00  0.00    -0.353 OA
HETATM   20  C   UNL     1     -10.492  -0.326 -32.776  1.00  0.00     0.210 C 
ENDBRANCH  15  19
BRANCH  16  21
HETATM   21  O   UNL     1      -7.222  -0.803 -33.725  1.00  0.00    -0.339 OA
BRANCH  21  22
HETATM   22  C   UNL     1      -6.474  -1.128 -34.897  1.00  0.00     0.278 C 
BRANCH  22  23
HETATM   23  C   UNL     1      -5.494  -2.250 -34.569  1.00  0.00     0.239 C 
HETATM   24  N   UNL     1      -5.836  -3.485 -35.045  1.00  0.00    -0.368 N 
HETATM   25  H   UNL     1      -6.565  -3.556 -35.750  1.00  0.00     0.159 HD
HETATM   26  H   UNL     1      -5.182  -4.245 -34.928  1.00  0.00     0.159 HD
HETATM   27  O   UNL     1      -4.491  -2.090 -33.880  1.00  0.00    -0.271 OA
ENDBRANCH  22  23
ENDBRANCH  21  22
ENDBRANCH  16  21
ENDBRANCH   7  13
BRANCH   2  28
HETATM   28  C   UNL     1      -3.449   5.840 -31.256  1.00  0.00     0.011 A 
HETATM   29  S   UNL     1      -2.894   6.902 -32.489  1.00  0.00    -0.104 SA
HETATM   30  C   UNL     1      -1.830   5.724 -33.118  1.00  0.00     0.050 A 
HETATM   31  C   UNL     1      -1.896   4.541 -32.419  1.00  0.00     0.008 A 
HETATM   32  C   UNL     1      -2.831   4.605 -31.346  1.00  0.00     0.017 A 
ENDBRANCH   2  28
BRANCH   1  33
HETATM   33  C   UNL     1      -3.113   7.737 -28.673  1.00  0.00     0.256 C 
HETATM   34  N   UNL     1      -2.009   8.450 -29.096  1.00  0.00    -0.323 N 
HETATM   35  H   UNL     1      -2.034   8.809 -30.041  1.00  0.00     0.169 HD
HETATM   36  O   UNL     1      -3.281   7.206 -27.584  1.00  0.00    -0.267 OA
BRANCH  34  37
HETATM   37  C   UNL     1      -0.824   8.718 -28.367  1.00  0.00     0.041 A 
HETATM   38  C   UNL     1       0.348   7.995 -28.679  1.00  0.00    -0.035 A 
HETATM   39  C   UNL     1       0.378   6.917 -29.730  1.00  0.00     0.050 C 
HETATM   40  C   UNL     1       1.533   8.259 -27.968  1.00  0.00     0.009 A 
HETATM   41  C   UNL     1       1.567   9.227 -26.968  1.00  0.00     0.001 A 
HETATM   42  C   UNL     1       0.416   9.940 -26.663  1.00  0.00     0.002 A 
HETATM   43  C   UNL     1      -0.771   9.686 -27.355  1.00  0.00     0.030 A 
ENDBRANCH  34  37
ENDBRANCH   1  33
TORSDOF 8
ENDMDL
MODEL 8
REMARK VINA RESULT:      -8.9      5.177      7.417
REMARK  8 active torsions:
REMARK  status: ('A' for Active; 'I' for Inactive)
REMARK    1  A    between atoms: C_3  and  N_4 
REMARK       I    between atoms: N_4  and  C_5 
REMARK    2  A    between atoms: C_5  and  C_6 
REMARK    3  A    between atoms: C_7  and  C_8 
REMARK    4  A    between atoms: C_17  and  C_18 
REMARK    5  A    between atoms: C_20  and  O_21 
REMARK    6  A    between atoms: C_23  and  O_24 
REMARK    7  A    between atoms: O_24  and  C_25 
REMARK    8  A    between atoms: C_25  and  C_26 
REMARK       I    between atoms: C_26  and  N_27 
ROOT
HETATM    1  C   UNL     1      -4.715   3.128 -32.307  1.00  0.00     0.062 C 
HETATM    2  C   UNL     1      -6.056   3.714 -32.675  1.00  0.00     0.176 C 
HETATM    3  N   UNL     1      -7.016   2.635 -32.851  1.00  0.00    -0.277 N 
HETATM    4  C   UNL     1      -6.771   1.392 -32.360  1.00  0.00     0.177 C 
HETATM    5  S   UNL     1      -8.164   0.362 -32.522  1.00  0.00    -0.046 SA
HETATM    6  C   UNL     1      -9.113   1.643 -33.196  1.00  0.00     0.077 C 
HETATM    7  C   UNL     1     -10.440   1.554 -33.368  1.00  0.00     0.036 C 
HETATM    8  C   UNL     1      -8.246   2.839 -33.431  1.00  0.00     0.267 C 
HETATM    9  O   UNL     1      -8.577   3.826 -34.068  1.00  0.00    -0.266 OA
HETATM   10  N   UNL     1      -5.658   0.982 -31.857  1.00  0.00    -0.228 NA
HETATM   11  C   UNL     1      -4.591   1.856 -31.872  1.00  0.00     0.047 C 
HETATM   12  C   UNL     1      -3.316   1.259 -31.333  1.00  0.00     0.071 C 
ENDROOT
BRANCH   7  13
HETATM   13  C   UNL     1     -11.299   2.677 -33.749  1.00  0.00    -0.032 A 
HETATM   14  C   UNL     1     -11.760   3.554 -32.753  1.00  0.00     0.051 A 
HETATM   15  C   UNL     1     -12.548   4.658 -33.089  1.00  0.00     0.102 A 
HETATM   16  C   UNL     1     -12.877   4.873 -34.437  1.00  0.00     0.102 A 
HETATM   17  C   UNL     1     -12.415   4.006 -35.432  1.00  0.00     0.040 A 
HETATM   18  C   UNL     1     -11.634   2.902 -35.086  1.00  0.00     0.014 A 
BRANCH  15  19
HETATM   19  O   UNL     1     -13.052   5.569 -32.195  1.00  0.00    -0.353 OA
HETATM   20  C   UNL     1     -13.021   5.214 -30.819  1.00  0.00     0.210 C 
ENDBRANCH  15  19
BRANCH  16  21
HETATM   21  O   UNL     1     -13.590   6.003 -34.742  1.00  0.00    -0.339 OA
BRANCH  21  22
HETATM   22  C   UNL     1     -13.213   6.605 -35.981  1.00  0.00     0.278 C 
BRANCH  22  23
HETATM   23  C   UNL     1     -14.471   6.955 -36.769  1.00  0.00     0.239 C 
HETATM   24  N   UNL     1     -14.302   7.075 -38.120  1.00  0.00    -0.368 N 
HETATM   25  H   UNL     1     -13.448   6.721 -38.542  1.00  0.00     0.159 HD
HETATM   26  H   UNL     1     -15.117   7.224 -38.697  1.00  0.00     0.159 HD
HETATM   27  O   UNL     1     -15.558   7.174 -36.243  1.00  0.00    -0.271 OA
ENDBRANCH  22  23
ENDBRANCH  21  22
ENDBRANCH  16  21
ENDBRANCH   7  13
BRANCH   2  28
HETATM   28  C   UNL     1      -6.635   4.656 -31.626  1.00  0.00     0.011 A 
HETATM   29  S   UNL     1      -6.925   6.302 -32.025  1.00  0.00    -0.104 SA
HETATM   30  C   UNL     1      -7.544   6.639 -30.469  1.00  0.00     0.050 A 
HETATM   31  C   UNL     1      -7.525   5.532 -29.653  1.00  0.00     0.008 A 
HETATM   32  C   UNL     1      -6.998   4.387 -30.318  1.00  0.00     0.017 A 
ENDBRANCH   2  28
BRANCH   1  33
HETATM   33  C   UNL     1      -3.570   4.071 -32.431  1.00  0.00     0.256 C 
HETATM   34  N   UNL     1      -3.102   4.521 -31.213  1.00  0.00    -0.323 N 
HETATM   35  H   UNL     1      -3.606   4.217 -30.391  1.00  0.00     0.169 HD
HETATM   36  O   UNL     1      -3.123   4.330 -33.540  1.00  0.00    -0.267 OA
BRANCH  34  37
HETATM   37  C   UNL     1      -2.005   5.386 -30.977  1.00  0.00     0.041 A 
HETATM   38  C   UNL     1      -2.251   6.670 -30.440  1.00  0.00    -0.035 A 
HETATM   39  C   UNL     1      -3.640   7.172 -30.149  1.00  0.00     0.050 C 
HETATM   40  C   UNL     1      -1.168   7.534 -30.193  1.00  0.00     0.009 A 
HETATM   41  C   UNL     1       0.139   7.140 -30.463  1.00  0.00     0.001 A 
HETATM   42  C   UNL     1       0.381   5.877 -30.988  1.00  0.00     0.002 A 
HETATM   43  C   UNL     1      -0.683   5.008 -31.245  1.00  0.00     0.030 A 
ENDBRANCH  34  37
ENDBRANCH   1  33
TORSDOF 8
ENDMDL
MODEL 9
REMARK VINA RESULT:      -8.7      6.023      9.145
REMARK  8 active torsions:
REMARK  status: ('A' for Active; 'I' for Inactive)
REMARK    1  A    between atoms: C_3  and  N_4 
REMARK       I    between atoms: N_4  and  C_5 
REMARK    2  A    between atoms: C_5  and  C_6 
REMARK    3  A    between atoms: C_7  and  C_8 
REMARK    4  A    between atoms: C_17  and  C_18 
REMARK    5  A    between atoms: C_20  and  O_21 
REMARK    6  A    between atoms: C_23  and  O_24 
REMARK    7  A    between atoms: O_24  and  C_25 
REMARK    8  A    between atoms: C_25  and  C_26 
REMARK       I    between atoms: C_26  and  N_27 
ROOT
HETATM    1  C   UNL     1     -12.087   6.100 -34.133  1.00  0.00     0.062 C 
HETATM    2  C   UNL     1     -11.208   4.876 -34.213  1.00  0.00     0.176 C 
HETATM    3  N   UNL     1     -10.420   4.774 -32.994  1.00  0.00    -0.277 N 
HETATM    4  C   UNL     1     -10.768   5.462 -31.876  1.00  0.00     0.177 C 
HETATM    5  S   UNL     1      -9.788   4.994 -30.516  1.00  0.00    -0.046 SA
HETATM    6  C   UNL     1      -8.946   3.806 -31.449  1.00  0.00     0.077 C 
HETATM    7  C   UNL     1      -8.136   2.888 -30.901  1.00  0.00     0.036 C 
HETATM    8  C   UNL     1      -9.353   3.913 -32.884  1.00  0.00     0.267 C 
HETATM    9  O   UNL     1      -8.798   3.346 -33.812  1.00  0.00    -0.266 OA
HETATM   10  N   UNL     1     -11.679   6.369 -31.797  1.00  0.00    -0.228 NA
HETATM   11  C   UNL     1     -12.323   6.729 -32.962  1.00  0.00     0.047 C 
HETATM   12  C   UNL     1     -13.316   7.849 -32.781  1.00  0.00     0.071 C 
ENDROOT
BRANCH   7  13
HETATM   13  C   UNL     1      -7.564   1.753 -31.628  1.00  0.00    -0.032 A 
HETATM   14  C   UNL     1      -6.186   1.739 -31.901  1.00  0.00     0.051 A 
HETATM   15  C   UNL     1      -5.603   0.652 -32.557  1.00  0.00     0.102 A 
HETATM   16  C   UNL     1      -6.418  -0.424 -32.945  1.00  0.00     0.102 A 
HETATM   17  C   UNL     1      -7.789  -0.416 -32.672  1.00  0.00     0.040 A 
HETATM   18  C   UNL     1      -8.363   0.677 -32.021  1.00  0.00     0.014 A 
BRANCH  15  19
HETATM   19  O   UNL     1      -4.272   0.543 -32.874  1.00  0.00    -0.353 OA
HETATM   20  C   UNL     1      -3.354   0.431 -31.794  1.00  0.00     0.210 C 
ENDBRANCH  15  19
BRANCH  16  21
HETATM   21  O   UNL     1      -5.805  -1.506 -33.523  1.00  0.00    -0.339 OA
BRANCH  21  22
HETATM   22  C   UNL     1      -6.623  -2.191 -34.471  1.00  0.00     0.278 C 
BRANCH  22  23
HETATM   23  C   UNL     1      -6.019  -3.563 -34.752  1.00  0.00     0.239 C 
HETATM   24  N   UNL     1      -6.920  -4.572 -34.950  1.00  0.00    -0.368 N 
HETATM   25  H   UNL     1      -7.894  -4.335 -35.120  1.00  0.00     0.159 HD
HETATM   26  H   UNL     1      -6.575  -5.481 -35.221  1.00  0.00     0.159 HD
HETATM   27  O   UNL     1      -4.811  -3.783 -34.749  1.00  0.00    -0.271 OA
ENDBRANCH  22  23
ENDBRANCH  21  22
ENDBRANCH  16  21
ENDBRANCH   7  13
BRANCH   2  28
HETATM   28  C   UNL     1     -11.972   3.566 -34.358  1.00  0.00     0.011 A 
HETATM   29  S   UNL     1     -13.150   3.129 -33.185  1.00  0.00    -0.104 SA
HETATM   30  C   UNL     1     -13.531   1.683 -34.009  1.00  0.00     0.050 A 
HETATM   31  C   UNL     1     -12.776   1.521 -35.147  1.00  0.00     0.008 A 
HETATM   32  C   UNL     1     -11.874   2.605 -35.350  1.00  0.00     0.017 A 
ENDBRANCH   2  28
BRANCH   1  33
HETATM   33  C   UNL     1     -12.686   6.520 -35.429  1.00  0.00     0.256 C 
HETATM   34  N   UNL     1     -12.197   7.726 -35.889  1.00  0.00    -0.323 N 
HETATM   35  H   UNL     1     -11.545   8.212 -35.287  1.00  0.00     0.169 HD
HETATM   36  O   UNL     1     -13.491   5.786 -35.985  1.00  0.00    -0.267 OA
BRANCH  34  37
HETATM   37  C   UNL     1     -12.523   8.384 -37.100  1.00  0.00     0.041 A 
HETATM   38  C   UNL     1     -11.477   8.814 -37.947  1.00  0.00    -0.035 A 
HETATM   39  C   UNL     1     -10.024   8.639 -37.592  1.00  0.00     0.050 C 
HETATM   40  C   UNL     1     -11.789   9.460 -39.158  1.00  0.00     0.009 A 
HETATM   41  C   UNL     1     -13.112   9.674 -39.535  1.00  0.00     0.001 A 
HETATM   42  C   UNL     1     -14.140   9.249 -38.704  1.00  0.00     0.002 A 
HETATM   43  C   UNL     1     -13.847   8.611 -37.495  1.00  0.00     0.030 A 
ENDBRANCH  34  37
ENDBRANCH   1  33
TORSDOF 8
ENDMDL
MODEL 10
REMARK VINA RESULT:      -8.3      4.661      6.170
REMARK  8 active torsions:
REMARK  status: ('A' for Active; 'I' for Inactive)
REMARK    1  A    between atoms: C_3  and  N_4 
REMARK       I    between atoms: N_4  and  C_5 
REMARK    2  A    between atoms: C_5  and  C_6 
REMARK    3  A    between atoms: C_7  and  C_8 
REMARK    4  A    between atoms: C_17  and  C_18 
REMARK    5  A    between atoms: C_20  and  O_21 
REMARK    6  A    between atoms: C_23  and  O_24 
REMARK    7  A    between atoms: O_24  and  C_25 
REMARK    8  A    between atoms: C_25  and  C_26 
REMARK       I    between atoms: C_26  and  N_27 
ROOT
HETATM    1  C   UNL     1      -5.243   7.522 -30.496  1.00  0.00     0.062 C 
HETATM    2  C   UNL     1      -6.336   6.548 -30.865  1.00  0.00     0.176 C 
HETATM    3  N   UNL     1      -7.519   7.291 -31.273  1.00  0.00    -0.277 N 
HETATM    4  C   UNL     1      -7.438   8.602 -31.618  1.00  0.00     0.177 C 
HETATM    5  S   UNL     1      -8.947   9.179 -32.264  1.00  0.00    -0.046 SA
HETATM    6  C   UNL     1      -9.676   7.616 -32.133  1.00  0.00     0.077 C 
HETATM    7  C   UNL     1     -10.857   7.313 -32.691  1.00  0.00     0.036 C 
HETATM    8  C   UNL     1      -8.746   6.687 -31.421  1.00  0.00     0.267 C 
HETATM    9  O   UNL     1      -9.047   5.578 -31.008  1.00  0.00    -0.266 OA
HETATM   10  N   UNL     1      -6.407   9.361 -31.477  1.00  0.00    -0.228 NA
HETATM   11  C   UNL     1      -5.298   8.821 -30.859  1.00  0.00     0.047 C 
HETATM   12  C   UNL     1      -4.173   9.806 -30.672  1.00  0.00     0.071 C 
ENDROOT
BRANCH   7  13
HETATM   13  C   UNL     1     -11.410   5.960 -32.769  1.00  0.00    -0.032 A 
HETATM   14  C   UNL     1     -11.109   5.161 -33.885  1.00  0.00     0.051 A 
HETATM   15  C   UNL     1     -11.588   3.851 -33.970  1.00  0.00     0.102 A 
HETATM   16  C   UNL     1     -12.379   3.348 -32.925  1.00  0.00     0.102 A 
HETATM   17  C   UNL     1     -12.677   4.138 -31.810  1.00  0.00     0.040 A 
HETATM   18  C   UNL     1     -12.199   5.447 -31.737  1.00  0.00     0.014 A 
BRANCH  15  19
HETATM   19  O   UNL     1     -11.356   2.992 -35.015  1.00  0.00    -0.353 OA
HETATM   20  C   UNL     1     -12.261   3.042 -36.110  1.00  0.00     0.210 C 
ENDBRANCH  15  19
BRANCH  16  21
HETATM   21  O   UNL     1     -12.774   2.037 -33.004  1.00  0.00    -0.339 OA
BRANCH  21  22
HETATM   22  C   UNL     1     -14.191   1.864 -33.025  1.00  0.00     0.278 C 
BRANCH  22  23
HETATM   23  C   UNL     1     -14.528   0.607 -33.822  1.00  0.00     0.239 C 
HETATM   24  N   UNL     1     -13.875  -0.529 -33.429  1.00  0.00    -0.368 N 
HETATM   25  H   UNL     1     -13.398  -0.536 -32.533  1.00  0.00     0.159 HD
HETATM   26  H   UNL     1     -14.124  -1.403 -33.868  1.00  0.00     0.159 HD
HETATM   27  O   UNL     1     -15.286   0.603 -34.787  1.00  0.00    -0.271 OA
ENDBRANCH  22  23
ENDBRANCH  21  22
ENDBRANCH  16  21
ENDBRANCH   7  13
BRANCH   2  28
HETATM   28  C   UNL     1      -5.980   5.615 -32.015  1.00  0.00     0.011 A 
HETATM   29  S   UNL     1      -6.074   3.913 -31.795  1.00  0.00    -0.104 SA
HETATM   30  C   UNL     1      -5.590   3.611 -33.404  1.00  0.00     0.050 A 
HETATM   31  C   UNL     1      -5.350   4.773 -34.100  1.00  0.00     0.008 A 
HETATM   32  C   UNL     1      -5.571   5.931 -33.300  1.00  0.00     0.017 A 
ENDBRANCH   2  28
BRANCH   1  33
HETATM   33  C   UNL     1      -4.107   6.924 -29.742  1.00  0.00     0.256 C 
HETATM   34  N   UNL     1      -2.952   6.821 -30.491  1.00  0.00    -0.323 N 
HETATM   35  H   UNL     1      -3.012   7.100 -31.461  1.00  0.00     0.169 HD
HETATM   36  O   UNL     1      -4.259   6.625 -28.566  1.00  0.00    -0.267 OA
BRANCH  34  37
HETATM   37  C   UNL     1      -1.689   6.341 -30.066  1.00  0.00     0.041 A 
HETATM   38  C   UNL     1      -1.045   5.343 -30.831  1.00  0.00    -0.035 A 
HETATM   39  C   UNL     1      -1.668   4.737 -32.060  1.00  0.00     0.050 C 
HETATM   40  C   UNL     1       0.215   4.866 -30.423  1.00  0.00     0.009 A 
HETATM   41  C   UNL     1       0.836   5.367 -29.283  1.00  0.00     0.001 A 
HETATM   42  C   UNL     1       0.204   6.350 -28.533  1.00  0.00     0.002 A 
HETATM   43  C   UNL     1      -1.050   6.831 -28.920  1.00  0.00     0.030 A 
ENDBRANCH  34  37
ENDBRANCH   1  33
TORSDOF 8
ENDMDL
