MODEL 1
REMARK VINA RESULT:      -9.3      0.000      0.000
REMARK  9 active torsions:
REMARK  status: ('A' for Active; 'I' for Inactive)
REMARK    1  A    between atoms: C_2  and  C_3 
REMARK    2  A    between atoms: C_4  and  O_5 
REMARK    3  A    between atoms: C_6  and  C_7 
REMARK    4  A    between atoms: C_12  and  C_13 
REMARK    5  A    between atoms: C_13  and  C_14 
REMARK    6  A    between atoms: C_14  and  N_15 
REMARK    7  A    between atoms: N_20  and  C_21 
REMARK    8  A    between atoms: C_21  and  C_22 
REMARK    9  A    between atoms: C_22  and  N_23 
ROOT
HETATM    1  N   UNL     1      -6.067   0.035 -31.453  1.00  0.00    -0.174 N 
HETATM    2  C   UNL     1      -7.347   0.505 -31.687  1.00  0.00     0.681 A 
HETATM    3  N   UNL     1      -7.969   1.399 -30.914  1.00  0.00    -0.234 N 
HETATM    4  H   UNL     1      -8.832   1.866 -31.139  1.00  0.00     0.174 HD
HETATM    5  H   UNL     1      -7.611   1.541 -29.963  1.00  0.00     0.174 HD
HETATM    6  N   UNL     1      -7.929  -0.034 -32.847  1.00  0.00    -0.180 N 
HETATM    7  C   UNL     1      -6.898  -0.869 -33.396  1.00  0.00     0.079 A 
HETATM    8  C   UNL     1      -5.793  -0.856 -32.531  1.00  0.00     0.079 A 
HETATM    9  C   UNL     1      -6.866  -1.572 -34.583  1.00  0.00     0.032 A 
HETATM   10  C   UNL     1      -5.714  -2.316 -34.863  1.00  0.00     0.002 A 
HETATM   11  C   UNL     1      -4.621  -2.324 -33.978  1.00  0.00     0.002 A 
HETATM   12  C   UNL     1      -4.648  -1.576 -32.799  1.00  0.00     0.032 A 
ENDROOT
BRANCH   1  13
HETATM   13  C   UNL     1      -5.062   0.509 -30.486  1.00  0.00     0.231 C 
BRANCH  13  14
HETATM   14  C   UNL     1      -3.936   1.330 -31.065  1.00  0.00     0.178 C 
HETATM   15  O   UNL     1      -2.812   0.846 -31.212  1.00  0.00    -0.290 OA
BRANCH  14  16
HETATM   16  C   UNL     1      -4.214   2.760 -31.407  1.00  0.00     0.013 A 
HETATM   17  C   UNL     1      -3.498   3.419 -32.413  1.00  0.00     0.026 A 
HETATM   18  C   UNL     1      -3.756   4.761 -32.759  1.00  0.00    -0.016 A 
HETATM   19  C   UNL     1      -4.811   5.394 -32.065  1.00  0.00     0.079 A 
HETATM   20  C   UNL     1      -5.542   4.780 -31.016  1.00  0.00    -0.016 A 
HETATM   21  C   UNL     1      -5.223   3.439 -30.721  1.00  0.00     0.026 A 
BRANCH  18  22
HETATM   22  C   UNL     1      -2.929   5.400 -33.909  1.00  0.00    -0.021 C 
HETATM   23  C   UNL     1      -2.530   6.880 -33.714  1.00  0.00     0.019 C 
HETATM   24  C   UNL     1      -1.586   4.645 -34.112  1.00  0.00     0.019 C 
HETATM   25  C   UNL     1      -3.753   5.300 -35.209  1.00  0.00     0.019 C 
ENDBRANCH  18  22
BRANCH  19  26
HETATM   26  O   UNL     1      -5.216   6.627 -32.484  1.00  0.00    -0.360 OA
HETATM   27  H   UNL     1      -4.453   7.223 -32.384  1.00  0.00     0.217 HD
ENDBRANCH  19  26
BRANCH  20  28
HETATM   28  C   UNL     1      -6.700   5.486 -30.257  1.00  0.00    -0.021 C 
HETATM   29  C   UNL     1      -7.151   4.570 -29.102  1.00  0.00     0.019 C 
HETATM   30  C   UNL     1      -7.923   5.811 -31.151  1.00  0.00     0.019 C 
HETATM   31  C   UNL     1      -6.273   6.847 -29.646  1.00  0.00     0.019 C 
ENDBRANCH  20  28
ENDBRANCH  14  16
ENDBRANCH  13  14
ENDBRANCH   1  13
BRANCH   6  32
HETATM   32  C   UNL     1      -9.164   0.394 -33.519  1.00  0.00     0.175 C 
BRANCH  32  33
HETATM   33  C   UNL     1     -10.502  -0.060 -32.886  1.00  0.00     0.256 C 
BRANCH  33  34
HETATM   34  N   UNL     1     -11.710   0.761 -33.296  1.00  0.00    -0.066 N 
HETATM   35  H   UNL     1     -11.965   1.408 -32.536  1.00  0.00     0.280 HD
HETATM   36  C   UNL     1     -11.338   1.661 -34.501  1.00  0.00     0.261 C 
HETATM   37  C   UNL     1     -12.550   2.484 -34.940  1.00  0.00     0.195 C 
HETATM   38  O   UNL     1     -13.645   1.624 -35.266  1.00  0.00    -0.388 OA
HETATM   39  C   UNL     1     -14.069   0.855 -34.141  1.00  0.00     0.195 C 
HETATM   40  C   UNL     1     -12.943  -0.066 -33.654  1.00  0.00     0.261 C 
ENDBRANCH  33  34
ENDBRANCH  32  33
ENDBRANCH   6  32
TORSDOF 9
ENDMDL
MODEL 2
REMARK VINA RESULT:      -9.2      0.553      3.099
REMARK  9 active torsions:
REMARK  status: ('A' for Active; 'I' for Inactive)
REMARK    1  A    between atoms: C_2  and  C_3 
REMARK    2  A    between atoms: C_4  and  O_5 
REMARK    3  A    between atoms: C_6  and  C_7 
REMARK    4  A    between atoms: C_12  and  C_13 
REMARK    5  A    between atoms: C_13  and  C_14 
REMARK    6  A    between atoms: C_14  and  N_15 
REMARK    7  A    between atoms: N_20  and  C_21 
REMARK    8  A    between atoms: C_21  and  C_22 
REMARK    9  A    between atoms: C_22  and  N_23 
ROOT
HETATM    1  N   UNL     1      -5.982  -0.025 -31.462  1.00  0.00    -0.174 N 
HETATM    2  C   UNL     1      -7.256   0.467 -31.684  1.00  0.00     0.681 A 
HETATM    3  N   UNL     1      -7.855   1.371 -30.905  1.00  0.00    -0.234 N 
HETATM    4  H   UNL     1      -8.712   1.853 -31.121  1.00  0.00     0.174 HD
HETATM    5  H   UNL     1      -7.486   1.506 -29.957  1.00  0.00     0.174 HD
HETATM    6  N   UNL     1      -7.857  -0.061 -32.838  1.00  0.00    -0.180 N 
HETATM    7  C   UNL     1      -6.846  -0.913 -33.398  1.00  0.00     0.079 A 
HETATM    8  C   UNL     1      -5.733  -0.919 -32.543  1.00  0.00     0.079 A 
HETATM    9  C   UNL     1      -6.837  -1.615 -34.585  1.00  0.00     0.032 A 
HETATM   10  C   UNL     1      -5.700  -2.379 -34.876  1.00  0.00     0.002 A 
HETATM   11  C   UNL     1      -4.599  -2.406 -34.002  1.00  0.00     0.002 A 
HETATM   12  C   UNL     1      -4.603  -1.658 -32.822  1.00  0.00     0.032 A 
ENDROOT
BRANCH   1  13
HETATM   13  C   UNL     1      -4.960   0.431 -30.504  1.00  0.00     0.231 C 
BRANCH  13  14
HETATM   14  C   UNL     1      -3.804   1.199 -31.098  1.00  0.00     0.178 C 
HETATM   15  O   UNL     1      -2.747   0.632 -31.379  1.00  0.00    -0.290 OA
BRANCH  14  16
HETATM   16  C   UNL     1      -3.966   2.674 -31.290  1.00  0.00     0.013 A 
HETATM   17  C   UNL     1      -4.996   3.379 -30.658  1.00  0.00     0.026 A 
HETATM   18  C   UNL     1      -5.156   4.771 -30.815  1.00  0.00    -0.016 A 
HETATM   19  C   UNL     1      -4.189   5.427 -31.611  1.00  0.00     0.079 A 
HETATM   20  C   UNL     1      -3.148   4.751 -32.297  1.00  0.00    -0.016 A 
HETATM   21  C   UNL     1      -3.056   3.358 -32.098  1.00  0.00     0.026 A 
BRANCH  18  22
HETATM   22  C   UNL     1      -6.313   5.473 -30.051  1.00  0.00    -0.021 C 
HETATM   23  C   UNL     1      -5.892   6.566 -29.042  1.00  0.00     0.019 C 
HETATM   24  C   UNL     1      -7.276   6.188 -31.039  1.00  0.00     0.019 C 
HETATM   25  C   UNL     1      -7.105   4.398 -29.280  1.00  0.00     0.019 C 
ENDBRANCH  18  22
BRANCH  19  26
HETATM   26  O   UNL     1      -4.195   6.789 -31.648  1.00  0.00    -0.360 OA
HETATM   27  H   UNL     1      -4.983   7.054 -32.154  1.00  0.00     0.217 HD
ENDBRANCH  19  26
BRANCH  20  28
HETATM   28  C   UNL     1      -2.091   5.481 -33.171  1.00  0.00    -0.021 C 
HETATM   29  C   UNL     1      -0.727   5.389 -32.458  1.00  0.00     0.019 C 
HETATM   30  C   UNL     1      -2.422   6.970 -33.437  1.00  0.00     0.019 C 
HETATM   31  C   UNL     1      -1.935   4.844 -34.578  1.00  0.00     0.019 C 
ENDBRANCH  20  28
ENDBRANCH  14  16
ENDBRANCH  13  14
ENDBRANCH   1  13
BRANCH   6  32
HETATM   32  C   UNL     1      -9.091   0.389 -33.499  1.00  0.00     0.175 C 
BRANCH  32  33
HETATM   33  C   UNL     1     -10.430  -0.040 -32.853  1.00  0.00     0.256 C 
BRANCH  33  34
HETATM   34  N   UNL     1     -11.635   0.775 -33.283  1.00  0.00    -0.066 N 
HETATM   35  H   UNL     1     -11.905   1.422 -32.530  1.00  0.00     0.280 HD
HETATM   36  C   UNL     1     -11.246   1.676 -34.483  1.00  0.00     0.261 C 
HETATM   37  C   UNL     1     -12.454   2.493 -34.944  1.00  0.00     0.195 C 
HETATM   38  O   UNL     1     -13.540   1.628 -35.288  1.00  0.00    -0.388 OA
HETATM   39  C   UNL     1     -13.980   0.858 -34.169  1.00  0.00     0.195 C 
HETATM   40  C   UNL     1     -12.858  -0.057 -33.662  1.00  0.00     0.261 C 
ENDBRANCH  33  34
ENDBRANCH  32  33
ENDBRANCH   6  32
TORSDOF 9
ENDMDL
MODEL 3
REMARK VINA RESULT:      -8.5      2.012      2.483
REMARK  9 active torsions:
REMARK  status: ('A' for Active; 'I' for Inactive)
REMARK    1  A    between atoms: C_2  and  C_3 
REMARK    2  A    between atoms: C_4  and  O_5 
REMARK    3  A    between atoms: C_6  and  C_7 
REMARK    4  A    between atoms: C_12  and  C_13 
REMARK    5  A    between atoms: C_13  and  C_14 
REMARK    6  A    between atoms: C_14  and  N_15 
REMARK    7  A    between atoms: N_20  and  C_21 
REMARK    8  A    between atoms: C_21  and  C_22 
REMARK    9  A    between atoms: C_22  and  N_23 
ROOT
HETATM    1  N   UNL     1      -5.932   0.279 -31.530  1.00  0.00    -0.174 N 
HETATM    2  C   UNL     1      -7.265   0.646 -31.582  1.00  0.00     0.681 A 
HETATM    3  N   UNL     1      -7.815   1.581 -30.803  1.00  0.00    -0.234 N 
HETATM    4  H   UNL     1      -8.737   1.969 -30.919  1.00  0.00     0.174 HD
HETATM    5  H   UNL     1      -7.315   1.845 -29.947  1.00  0.00     0.174 HD
HETATM    6  N   UNL     1      -7.989  -0.048 -32.566  1.00  0.00    -0.180 N 
HETATM    7  C   UNL     1      -7.004  -0.876 -33.203  1.00  0.00     0.079 A 
HETATM    8  C   UNL     1      -5.775  -0.705 -32.548  1.00  0.00     0.079 A 
HETATM    9  C   UNL     1      -7.118  -1.700 -34.304  1.00  0.00     0.032 A 
HETATM   10  C   UNL     1      -5.976  -2.402 -34.706  1.00  0.00     0.002 A 
HETATM   11  C   UNL     1      -4.753  -2.251 -34.028  1.00  0.00     0.002 A 
HETATM   12  C   UNL     1      -4.639  -1.383 -32.941  1.00  0.00     0.032 A 
ENDROOT
BRANCH   1  13
HETATM   13  C   UNL     1      -4.818   0.912 -30.802  1.00  0.00     0.231 C 
BRANCH  13  14
HETATM   14  C   UNL     1      -3.970   1.865 -31.609  1.00  0.00     0.178 C 
HETATM   15  O   UNL     1      -3.267   1.455 -32.535  1.00  0.00    -0.290 OA
BRANCH  14  16
HETATM   16  C   UNL     1      -3.971   3.308 -31.218  1.00  0.00     0.013 A 
HETATM   17  C   UNL     1      -2.917   4.158 -31.572  1.00  0.00     0.026 A 
HETATM   18  C   UNL     1      -2.907   5.524 -31.225  1.00  0.00    -0.016 A 
HETATM   19  C   UNL     1      -4.045   6.003 -30.537  1.00  0.00     0.079 A 
HETATM   20  C   UNL     1      -5.121   5.176 -30.128  1.00  0.00    -0.016 A 
HETATM   21  C   UNL     1      -5.057   3.818 -30.504  1.00  0.00     0.026 A 
BRANCH  18  22
HETATM   22  C   UNL     1      -1.706   6.396 -31.686  1.00  0.00    -0.021 C 
HETATM   23  C   UNL     1      -2.043   7.554 -32.654  1.00  0.00     0.019 C 
HETATM   24  C   UNL     1      -1.014   7.075 -30.472  1.00  0.00     0.019 C 
HETATM   25  C   UNL     1      -0.684   5.478 -32.387  1.00  0.00     0.019 C 
ENDBRANCH  18  22
BRANCH  19  26
HETATM   26  O   UNL     1      -4.165   7.346 -30.337  1.00  0.00    -0.360 OA
HETATM   27  H   UNL     1      -3.271   7.724 -30.414  1.00  0.00     0.217 HD
ENDBRANCH  19  26
BRANCH  20  28
HETATM   28  C   UNL     1      -6.368   5.712 -29.370  1.00  0.00    -0.021 C 
HETATM   29  C   UNL     1      -7.345   4.539 -29.156  1.00  0.00     0.019 C 
HETATM   30  C   UNL     1      -7.105   6.854 -30.113  1.00  0.00     0.019 C 
HETATM   31  C   UNL     1      -6.015   6.297 -27.977  1.00  0.00     0.019 C 
ENDBRANCH  20  28
ENDBRANCH  14  16
ENDBRANCH  13  14
ENDBRANCH   1  13
BRANCH   6  32
HETATM   32  C   UNL     1      -9.349   0.232 -33.051  1.00  0.00     0.175 C 
BRANCH  32  33
HETATM   33  C   UNL     1      -9.479   1.189 -34.261  1.00  0.00     0.256 C 
BRANCH  33  34
HETATM   34  N   UNL     1      -9.424   2.665 -33.914  1.00  0.00    -0.066 N 
HETATM   35  H   UNL     1      -9.674   2.800 -32.925  1.00  0.00     0.280 HD
HETATM   36  C   UNL     1      -7.965   3.171 -34.046  1.00  0.00     0.261 C 
HETATM   37  C   UNL     1      -7.892   4.663 -33.718  1.00  0.00     0.195 C 
HETATM   38  O   UNL     1      -8.768   5.405 -34.571  1.00  0.00    -0.388 OA
HETATM   39  C   UNL     1     -10.132   5.022 -34.394  1.00  0.00     0.195 C 
HETATM   40  C   UNL     1     -10.336   3.548 -34.763  1.00  0.00     0.261 C 
ENDBRANCH  33  34
ENDBRANCH  32  33
ENDBRANCH   6  32
TORSDOF 9
ENDMDL
MODEL 4
REMARK VINA RESULT:      -8.4      4.132      8.942
REMARK  9 active torsions:
REMARK  status: ('A' for Active; 'I' for Inactive)
REMARK    1  A    between atoms: C_2  and  C_3 
REMARK    2  A    between atoms: C_4  and  O_5 
REMARK    3  A    between atoms: C_6  and  C_7 
REMARK    4  A    between atoms: C_12  and  C_13 
REMARK    5  A    between atoms: C_13  and  C_14 
REMARK    6  A    between atoms: C_14  and  N_15 
REMARK    7  A    between atoms: N_20  and  C_21 
REMARK    8  A    between atoms: C_21  and  C_22 
REMARK    9  A    between atoms: C_22  and  N_23 
ROOT
HETATM    1  N   UNL     1      -4.268   5.945 -31.514  1.00  0.00    -0.174 N 
HETATM    2  C   UNL     1      -3.199   6.032 -30.639  1.00  0.00     0.681 A 
HETATM    3  N   UNL     1      -3.322   6.223 -29.323  1.00  0.00    -0.234 N 
HETATM    4  H   UNL     1      -2.579   6.143 -28.649  1.00  0.00     0.174 HD
HETATM    5  H   UNL     1      -4.213   6.596 -28.975  1.00  0.00     0.174 HD
HETATM    6  N   UNL     1      -1.955   5.871 -31.272  1.00  0.00    -0.180 N 
HETATM    7  C   UNL     1      -2.294   5.614 -32.643  1.00  0.00     0.079 A 
HETATM    8  C   UNL     1      -3.687   5.701 -32.792  1.00  0.00     0.079 A 
HETATM    9  C   UNL     1      -1.483   5.282 -33.708  1.00  0.00     0.032 A 
HETATM   10  C   UNL     1      -2.095   5.092 -34.953  1.00  0.00     0.002 A 
HETATM   11  C   UNL     1      -3.488   5.209 -35.103  1.00  0.00     0.002 A 
HETATM   12  C   UNL     1      -4.304   5.505 -34.009  1.00  0.00     0.032 A 
ENDROOT
BRANCH   1  13
HETATM   13  C   UNL     1      -5.708   5.846 -31.219  1.00  0.00     0.231 C 
BRANCH  13  14
HETATM   14  C   UNL     1      -6.221   4.455 -30.932  1.00  0.00     0.178 C 
HETATM   15  O   UNL     1      -5.926   3.877 -29.884  1.00  0.00    -0.290 OA
BRANCH  14  16
HETATM   16  C   UNL     1      -7.054   3.785 -31.978  1.00  0.00     0.013 A 
HETATM   17  C   UNL     1      -6.706   2.531 -32.491  1.00  0.00     0.026 A 
HETATM   18  C   UNL     1      -7.487   1.878 -33.467  1.00  0.00    -0.016 A 
HETATM   19  C   UNL     1      -8.669   2.540 -33.868  1.00  0.00     0.079 A 
HETATM   20  C   UNL     1      -9.047   3.825 -33.402  1.00  0.00    -0.016 A 
HETATM   21  C   UNL     1      -8.212   4.419 -32.433  1.00  0.00     0.026 A 
BRANCH  18  22
HETATM   22  C   UNL     1      -7.036   0.474 -33.956  1.00  0.00    -0.021 C 
HETATM   23  C   UNL     1      -7.902  -0.717 -33.484  1.00  0.00     0.019 C 
HETATM   24  C   UNL     1      -7.055   0.394 -35.508  1.00  0.00     0.019 C 
HETATM   25  C   UNL     1      -5.593   0.231 -33.467  1.00  0.00     0.019 C 
ENDBRANCH  18  22
BRANCH  19  26
HETATM   26  O   UNL     1      -9.546   1.873 -34.671  1.00  0.00    -0.360 OA
HETATM   27  H   UNL     1      -9.078   1.089 -35.009  1.00  0.00     0.217 HD
ENDBRANCH  19  26
BRANCH  20  28
HETATM   28  C   UNL     1     -10.349   4.545 -33.851  1.00  0.00    -0.021 C 
HETATM   29  C   UNL     1     -10.375   5.945 -33.204  1.00  0.00     0.019 C 
HETATM   30  C   UNL     1     -11.644   3.787 -33.467  1.00  0.00     0.019 C 
HETATM   31  C   UNL     1     -10.430   4.731 -35.389  1.00  0.00     0.019 C 
ENDBRANCH  20  28
ENDBRANCH  14  16
ENDBRANCH  13  14
ENDBRANCH   1  13
BRANCH   6  32
HETATM   32  C   UNL     1      -0.640   5.682 -30.641  1.00  0.00     0.175 C 
BRANCH  32  33
HETATM   33  C   UNL     1       0.211   6.952 -30.398  1.00  0.00     0.256 C 
BRANCH  33  34
HETATM   34  N   UNL     1       0.331   7.369 -28.945  1.00  0.00    -0.066 N 
HETATM   35  H   UNL     1       1.263   7.772 -28.774  1.00  0.00     0.280 HD
HETATM   36  C   UNL     1      -0.676   8.509 -28.650  1.00  0.00     0.261 C 
HETATM   37  C   UNL     1      -0.582   8.931 -27.183  1.00  0.00     0.195 C 
HETATM   38  O   UNL     1      -0.816   7.811 -26.325  1.00  0.00    -0.388 OA
HETATM   39  C   UNL     1       0.160   6.786 -26.511  1.00  0.00     0.195 C 
HETATM   40  C   UNL     1       0.109   6.237 -27.943  1.00  0.00     0.261 C 
ENDBRANCH  33  34
ENDBRANCH  32  33
ENDBRANCH   6  32
TORSDOF 9
ENDMDL
MODEL 5
REMARK VINA RESULT:      -8.3      1.905      2.260
REMARK  9 active torsions:
REMARK  status: ('A' for Active; 'I' for Inactive)
REMARK    1  A    between atoms: C_2  and  C_3 
REMARK    2  A    between atoms: C_4  and  O_5 
REMARK    3  A    between atoms: C_6  and  C_7 
REMARK    4  A    between atoms: C_12  and  C_13 
REMARK    5  A    between atoms: C_13  and  C_14 
REMARK    6  A    between atoms: C_14  and  N_15 
REMARK    7  A    between atoms: N_20  and  C_21 
REMARK    8  A    between atoms: C_21  and  C_22 
REMARK    9  A    between atoms: C_22  and  N_23 
ROOT
HETATM    1  N   UNL     1      -6.242   0.930 -31.654  1.00  0.00    -0.174 N 
HETATM    2  C   UNL     1      -7.623   0.950 -31.573  1.00  0.00     0.681 A 
HETATM    3  N   UNL     1      -8.318   1.809 -30.824  1.00  0.00    -0.234 N 
HETATM    4  H   UNL     1      -9.315   1.942 -30.860  1.00  0.00     0.174 HD
HETATM    5  H   UNL     1      -7.822   2.292 -30.066  1.00  0.00     0.174 HD
HETATM    6  N   UNL     1      -8.236  -0.018 -32.388  1.00  0.00    -0.180 N 
HETATM    7  C   UNL     1      -7.137  -0.650 -33.062  1.00  0.00     0.079 A 
HETATM    8  C   UNL     1      -5.936  -0.103 -32.585  1.00  0.00     0.079 A 
HETATM    9  C   UNL     1      -7.140  -1.606 -34.057  1.00  0.00     0.032 A 
HETATM   10  C   UNL     1      -5.900  -2.050 -34.530  1.00  0.00     0.002 A 
HETATM   11  C   UNL     1      -4.698  -1.521 -34.028  1.00  0.00     0.002 A 
HETATM   12  C   UNL     1      -4.708  -0.524 -33.051  1.00  0.00     0.032 A 
ENDROOT
BRANCH   1  13
HETATM   13  C   UNL     1      -5.265   1.903 -31.135  1.00  0.00     0.231 C 
BRANCH  13  14
HETATM   14  C   UNL     1      -5.142   3.186 -31.920  1.00  0.00     0.178 C 
HETATM   15  O   UNL     1      -5.485   3.239 -33.102  1.00  0.00    -0.290 OA
BRANCH  14  16
HETATM   16  C   UNL     1      -4.545   4.374 -31.233  1.00  0.00     0.013 A 
HETATM   17  C   UNL     1      -3.328   4.921 -31.653  1.00  0.00     0.026 A 
HETATM   18  C   UNL     1      -2.757   6.048 -31.028  1.00  0.00    -0.016 A 
HETATM   19  C   UNL     1      -3.505   6.627 -29.978  1.00  0.00     0.079 A 
HETATM   20  C   UNL     1      -4.726   6.090 -29.494  1.00  0.00    -0.016 A 
HETATM   21  C   UNL     1      -5.231   4.957 -30.165  1.00  0.00     0.026 A 
BRANCH  18  22
HETATM   22  C   UNL     1      -1.416   6.602 -31.583  1.00  0.00    -0.021 C 
HETATM   23  C   UNL     1      -0.288   6.810 -30.546  1.00  0.00     0.019 C 
HETATM   24  C   UNL     1      -0.814   5.638 -32.643  1.00  0.00     0.019 C 
HETATM   25  C   UNL     1      -1.696   7.962 -32.255  1.00  0.00     0.019 C 
ENDBRANCH  18  22
BRANCH  19  26
HETATM   26  O   UNL     1      -3.087   7.817 -29.462  1.00  0.00    -0.360 OA
HETATM   27  H   UNL     1      -2.289   8.074 -29.957  1.00  0.00     0.217 HD
ENDBRANCH  19  26
BRANCH  20  28
HETATM   28  C   UNL     1      -5.541   6.733 -28.338  1.00  0.00    -0.021 C 
HETATM   29  C   UNL     1      -6.806   5.884 -28.107  1.00  0.00     0.019 C 
HETATM   30  C   UNL     1      -5.960   8.199 -28.611  1.00  0.00     0.019 C 
HETATM   31  C   UNL     1      -4.750   6.781 -27.004  1.00  0.00     0.019 C 
ENDBRANCH  20  28
ENDBRANCH  14  16
ENDBRANCH  13  14
ENDBRANCH   1  13
BRANCH   6  32
HETATM   32  C   UNL     1      -9.662  -0.142 -32.724  1.00  0.00     0.175 C 
BRANCH  32  33
HETATM   33  C   UNL     1     -10.272   0.965 -33.617  1.00  0.00     0.256 C 
BRANCH  33  34
HETATM   34  N   UNL     1     -11.514   1.627 -33.050  1.00  0.00    -0.066 N 
HETATM   35  H   UNL     1     -11.700   1.267 -32.104  1.00  0.00     0.280 HD
HETATM   36  C   UNL     1     -11.254   3.145 -32.872  1.00  0.00     0.261 C 
HETATM   37  C   UNL     1     -12.502   3.834 -32.318  1.00  0.00     0.195 C 
HETATM   38  O   UNL     1     -13.621   3.606 -33.179  1.00  0.00    -0.388 OA
HETATM   39  C   UNL     1     -13.940   2.219 -33.280  1.00  0.00     0.195 C 
HETATM   40  C   UNL     1     -12.773   1.433 -33.892  1.00  0.00     0.261 C 
ENDBRANCH  33  34
ENDBRANCH  32  33
ENDBRANCH   6  32
TORSDOF 9
ENDMDL
MODEL 6
REMARK VINA RESULT:      -8.2      1.587      3.461
REMARK  9 active torsions:
REMARK  status: ('A' for Active; 'I' for Inactive)
REMARK    1  A    between atoms: C_2  and  C_3 
REMARK    2  A    between atoms: C_4  and  O_5 
REMARK    3  A    between atoms: C_6  and  C_7 
REMARK    4  A    between atoms: C_12  and  C_13 
REMARK    5  A    between atoms: C_13  and  C_14 
REMARK    6  A    between atoms: C_14  and  N_15 
REMARK    7  A    between atoms: N_20  and  C_21 
REMARK    8  A    between atoms: C_21  and  C_22 
REMARK    9  A    between atoms: C_22  and  N_23 
ROOT
HETATM    1  N   UNL     1      -5.894   0.693 -31.811  1.00  0.00    -0.174 N 
HETATM    2  C   UNL     1      -7.169   1.156 -32.084  1.00  0.00     0.681 A 
HETATM    3  N   UNL     1      -7.721   2.221 -31.498  1.00  0.00    -0.234 N 
HETATM    4  H   UNL     1      -8.579   2.664 -31.780  1.00  0.00     0.174 HD
HETATM    5  H   UNL     1      -7.308   2.550 -30.618  1.00  0.00     0.174 HD
HETATM    6  N   UNL     1      -7.827   0.403 -33.071  1.00  0.00    -0.180 N 
HETATM    7  C   UNL     1      -6.854  -0.573 -33.471  1.00  0.00     0.079 A 
HETATM    8  C   UNL     1      -5.705  -0.420 -32.680  1.00  0.00     0.079 A 
HETATM    9  C   UNL     1      -6.907  -1.517 -34.476  1.00  0.00     0.032 A 
HETATM   10  C   UNL     1      -5.796  -2.352 -34.638  1.00  0.00     0.002 A 
HETATM   11  C   UNL     1      -4.658  -2.215 -33.822  1.00  0.00     0.002 A 
HETATM   12  C   UNL     1      -4.599  -1.229 -32.835  1.00  0.00     0.032 A 
ENDROOT
BRANCH   1  13
HETATM   13  C   UNL     1      -4.824   1.323 -31.016  1.00  0.00     0.231 C 
BRANCH  13  14
HETATM   14  C   UNL     1      -3.976   2.334 -31.748  1.00  0.00     0.178 C 
HETATM   15  O   UNL     1      -3.276   1.996 -32.705  1.00  0.00    -0.290 OA
BRANCH  14  16
HETATM   16  C   UNL     1      -3.975   3.743 -31.247  1.00  0.00     0.013 A 
HETATM   17  C   UNL     1      -5.033   4.242 -30.479  1.00  0.00     0.026 A 
HETATM   18  C   UNL     1      -5.042   5.562 -29.986  1.00  0.00    -0.016 A 
HETATM   19  C   UNL     1      -3.900   6.345 -30.270  1.00  0.00     0.079 A 
HETATM   20  C   UNL     1      -2.819   5.896 -31.070  1.00  0.00    -0.016 A 
HETATM   21  C   UNL     1      -2.884   4.566 -31.535  1.00  0.00     0.026 A 
BRANCH  18  22
HETATM   22  C   UNL     1      -6.247   6.018 -29.117  1.00  0.00    -0.021 C 
HETATM   23  C   UNL     1      -5.913   6.461 -27.674  1.00  0.00     0.019 C 
HETATM   24  C   UNL     1      -6.960   7.242 -29.758  1.00  0.00     0.019 C 
HETATM   25  C   UNL     1      -7.252   4.851 -29.032  1.00  0.00     0.019 C 
ENDBRANCH  18  22
BRANCH  19  26
HETATM   26  O   UNL     1      -3.781   7.562 -29.668  1.00  0.00    -0.360 OA
HETATM   27  H   UNL     1      -3.740   7.399 -28.709  1.00  0.00     0.217 HD
ENDBRANCH  19  26
BRANCH  20  28
HETATM   28  C   UNL     1      -1.568   6.764 -31.379  1.00  0.00    -0.021 C 
HETATM   29  C   UNL     1      -2.028   8.020 -32.145  1.00  0.00     0.019 C 
HETATM   30  C   UNL     1      -0.490   6.030 -32.213  1.00  0.00     0.019 C 
HETATM   31  C   UNL     1      -0.835   7.233 -30.094  1.00  0.00     0.019 C 
ENDBRANCH  20  28
ENDBRANCH  14  16
ENDBRANCH  13  14
ENDBRANCH   1  13
BRANCH   6  32
HETATM   32  C   UNL     1      -9.083   0.728 -33.765  1.00  0.00     0.175 C 
BRANCH  32  33
HETATM   33  C   UNL     1     -10.398   0.292 -33.077  1.00  0.00     0.256 C 
BRANCH  33  34
HETATM   34  N   UNL     1     -11.550   1.268 -33.228  1.00  0.00    -0.066 N 
HETATM   35  H   UNL     1     -12.278   1.059 -32.532  1.00  0.00     0.280 HD
HETATM   36  C   UNL     1     -11.058   2.700 -32.898  1.00  0.00     0.261 C 
HETATM   37  C   UNL     1     -12.201   3.703 -33.063  1.00  0.00     0.195 C 
HETATM   38  O   UNL     1     -12.733   3.640 -34.389  1.00  0.00    -0.388 OA
HETATM   39  C   UNL     1     -13.281   2.355 -34.682  1.00  0.00     0.195 C 
HETATM   40  C   UNL     1     -12.198   1.271 -34.612  1.00  0.00     0.261 C 
ENDBRANCH  33  34
ENDBRANCH  32  33
ENDBRANCH   6  32
TORSDOF 9
ENDMDL
MODEL 7
REMARK VINA RESULT:      -8.2      2.631      6.025
REMARK  9 active torsions:
REMARK  status: ('A' for Active; 'I' for Inactive)
REMARK    1  A    between atoms: C_2  and  C_3 
REMARK    2  A    between atoms: C_4  and  O_5 
REMARK    3  A    between atoms: C_6  and  C_7 
REMARK    4  A    between atoms: C_12  and  C_13 
REMARK    5  A    between atoms: C_13  and  C_14 
REMARK    6  A    between atoms: C_14  and  N_15 
REMARK    7  A    between atoms: N_20  and  C_21 
REMARK    8  A    between atoms: C_21  and  C_22 
REMARK    9  A    between atoms: C_22  and  N_23 
ROOT
HETATM    1  N   UNL     1      -6.683   2.417 -31.358  1.00  0.00    -0.174 N 
HETATM    2  C   UNL     1      -5.697   1.459 -31.518  1.00  0.00     0.681 A 
HETATM    3  N   UNL     1      -4.465   1.561 -31.013  1.00  0.00    -0.234 N 
HETATM    4  H   UNL     1      -3.781   0.822 -30.988  1.00  0.00     0.174 HD
HETATM    5  H   UNL     1      -4.138   2.492 -30.734  1.00  0.00     0.174 HD
HETATM    6  N   UNL     1      -6.130   0.341 -32.250  1.00  0.00    -0.180 N 
HETATM    7  C   UNL     1      -7.513   0.615 -32.519  1.00  0.00     0.079 A 
HETATM    8  C   UNL     1      -7.831   1.886 -32.014  1.00  0.00     0.079 A 
HETATM    9  C   UNL     1      -8.473  -0.174 -33.117  1.00  0.00     0.032 A 
HETATM   10  C   UNL     1      -9.759   0.363 -33.253  1.00  0.00     0.002 A 
HETATM   11  C   UNL     1     -10.065   1.649 -32.773  1.00  0.00     0.002 A 
HETATM   12  C   UNL     1      -9.095   2.423 -32.132  1.00  0.00     0.032 A 
ENDROOT
BRANCH   1  13
HETATM   13  C   UNL     1      -6.693   3.607 -30.489  1.00  0.00     0.231 C 
BRANCH  13  14
HETATM   14  C   UNL     1      -6.348   4.912 -31.164  1.00  0.00     0.178 C 
HETATM   15  O   UNL     1      -7.092   5.397 -32.018  1.00  0.00    -0.290 OA
BRANCH  14  16
HETATM   16  C   UNL     1      -5.054   5.568 -30.801  1.00  0.00     0.013 A 
HETATM   17  C   UNL     1      -4.917   6.298 -29.615  1.00  0.00     0.026 A 
HETATM   18  C   UNL     1      -3.702   6.912 -29.249  1.00  0.00    -0.016 A 
HETATM   19  C   UNL     1      -2.611   6.711 -30.125  1.00  0.00     0.079 A 
HETATM   20  C   UNL     1      -2.709   6.009 -31.354  1.00  0.00    -0.016 A 
HETATM   21  C   UNL     1      -3.958   5.430 -31.656  1.00  0.00     0.026 A 
BRANCH  18  22
HETATM   22  C   UNL     1      -3.637   7.677 -27.899  1.00  0.00    -0.021 C 
HETATM   23  C   UNL     1      -2.627   7.136 -26.861  1.00  0.00     0.019 C 
HETATM   24  C   UNL     1      -3.230   9.160 -28.121  1.00  0.00     0.019 C 
HETATM   25  C   UNL     1      -5.039   7.641 -27.255  1.00  0.00     0.019 C 
ENDBRANCH  18  22
BRANCH  19  26
HETATM   26  O   UNL     1      -1.376   7.131 -29.730  1.00  0.00    -0.360 OA
HETATM   27  H   UNL     1      -0.785   6.359 -29.786  1.00  0.00     0.217 HD
ENDBRANCH  19  26
BRANCH  20  28
HETATM   28  C   UNL     1      -1.504   5.796 -32.311  1.00  0.00    -0.021 C 
HETATM   29  C   UNL     1      -1.937   4.822 -33.425  1.00  0.00     0.019 C 
HETATM   30  C   UNL     1      -0.243   5.232 -31.610  1.00  0.00     0.019 C 
HETATM   31  C   UNL     1      -1.036   7.112 -32.986  1.00  0.00     0.019 C 
ENDBRANCH  20  28
ENDBRANCH  14  16
ENDBRANCH  13  14
ENDBRANCH   1  13
BRANCH   6  32
HETATM   32  C   UNL     1      -5.440  -0.946 -32.423  1.00  0.00     0.175 C 
BRANCH  32  33
HETATM   33  C   UNL     1      -4.542  -1.100 -33.674  1.00  0.00     0.256 C 
BRANCH  33  34
HETATM   34  N   UNL     1      -4.625  -2.453 -34.355  1.00  0.00    -0.066 N 
HETATM   35  H   UNL     1      -4.092  -2.433 -35.235  1.00  0.00     0.280 HD
HETATM   36  C   UNL     1      -3.928  -3.518 -33.471  1.00  0.00     0.261 C 
HETATM   37  C   UNL     1      -4.017  -4.894 -34.133  1.00  0.00     0.195 C 
HETATM   38  O   UNL     1      -5.382  -5.245 -34.373  1.00  0.00    -0.388 OA
HETATM   39  C   UNL     1      -6.018  -4.329 -35.265  1.00  0.00     0.195 C 
HETATM   40  C   UNL     1      -6.046  -2.917 -34.667  1.00  0.00     0.261 C 
ENDBRANCH  33  34
ENDBRANCH  32  33
ENDBRANCH   6  32
TORSDOF 9
ENDMDL
MODEL 8
REMARK VINA RESULT:      -8.2      2.635      5.290
REMARK  9 active torsions:
REMARK  status: ('A' for Active; 'I' for Inactive)
REMARK    1  A    between atoms: C_2  and  C_3 
REMARK    2  A    between atoms: C_4  and  O_5 
REMARK    3  A    between atoms: C_6  and  C_7 
REMARK    4  A    between atoms: C_12  and  C_13 
REMARK    5  A    between atoms: C_13  and  C_14 
REMARK    6  A    between atoms: C_14  and  N_15 
REMARK    7  A    between atoms: N_20  and  C_21 
REMARK    8  A    between atoms: C_21  and  C_22 
REMARK    9  A    between atoms: C_22  and  N_23 
ROOT
HETATM    1  N   UNL     1      -6.731   2.465 -31.371  1.00  0.00    -0.174 N 
HETATM    2  C   UNL     1      -5.726   1.523 -31.502  1.00  0.00     0.681 A 
HETATM    3  N   UNL     1      -4.507   1.651 -30.972  1.00  0.00    -0.234 N 
HETATM    4  H   UNL     1      -3.811   0.926 -30.926  1.00  0.00     0.174 HD
HETATM    5  H   UNL     1      -4.202   2.591 -30.696  1.00  0.00     0.174 HD
HETATM    6  N   UNL     1      -6.124   0.391 -32.232  1.00  0.00    -0.180 N 
HETATM    7  C   UNL     1      -7.506   0.639 -32.532  1.00  0.00     0.079 A 
HETATM    8  C   UNL     1      -7.856   1.908 -32.046  1.00  0.00     0.079 A 
HETATM    9  C   UNL     1      -8.439  -0.173 -33.142  1.00  0.00     0.032 A 
HETATM   10  C   UNL     1      -9.731   0.340 -33.311  1.00  0.00     0.002 A 
HETATM   11  C   UNL     1     -10.069   1.624 -32.849  1.00  0.00     0.002 A 
HETATM   12  C   UNL     1      -9.127   2.421 -32.195  1.00  0.00     0.032 A 
ENDROOT
BRANCH   1  13
HETATM   13  C   UNL     1      -6.781   3.662 -30.514  1.00  0.00     0.231 C 
BRANCH  13  14
HETATM   14  C   UNL     1      -6.378   4.957 -31.177  1.00  0.00     0.178 C 
HETATM   15  O   UNL     1      -7.096   5.479 -32.033  1.00  0.00    -0.290 OA
BRANCH  14  16
HETATM   16  C   UNL     1      -5.062   5.558 -30.799  1.00  0.00     0.013 A 
HETATM   17  C   UNL     1      -3.937   5.419 -31.619  1.00  0.00     0.026 A 
HETATM   18  C   UNL     1      -2.692   5.990 -31.287  1.00  0.00    -0.016 A 
HETATM   19  C   UNL     1      -2.651   6.753 -30.098  1.00  0.00     0.079 A 
HETATM   20  C   UNL     1      -3.753   6.896 -29.218  1.00  0.00    -0.016 A 
HETATM   21  C   UNL     1      -4.964   6.290 -29.613  1.00  0.00     0.026 A 
BRANCH  18  22
HETATM   22  C   UNL     1      -1.506   5.806 -32.275  1.00  0.00    -0.021 C 
HETATM   23  C   UNL     1      -1.050   7.077 -33.028  1.00  0.00     0.019 C 
HETATM   24  C   UNL     1      -0.238   5.303 -31.531  1.00  0.00     0.019 C 
HETATM   25  C   UNL     1      -1.912   4.754 -33.327  1.00  0.00     0.019 C 
ENDBRANCH  18  22
BRANCH  19  26
HETATM   26  O   UNL     1      -1.524   7.471 -29.826  1.00  0.00    -0.360 OA
HETATM   27  H   UNL     1      -0.970   6.917 -29.248  1.00  0.00     0.217 HD
ENDBRANCH  19  26
BRANCH  20  28
HETATM   28  C   UNL     1      -3.698   7.736 -27.912  1.00  0.00    -0.021 C 
HETATM   29  C   UNL     1      -5.080   7.666 -27.232  1.00  0.00     0.019 C 
HETATM   30  C   UNL     1      -3.324   9.222 -28.142  1.00  0.00     0.019 C 
HETATM   31  C   UNL     1      -2.644   7.206 -26.904  1.00  0.00     0.019 C 
ENDBRANCH  20  28
ENDBRANCH  14  16
ENDBRANCH  13  14
ENDBRANCH   1  13
BRANCH   6  32
HETATM   32  C   UNL     1      -5.408  -0.885 -32.378  1.00  0.00     0.175 C 
BRANCH  32  33
HETATM   33  C   UNL     1      -4.515  -1.050 -33.631  1.00  0.00     0.256 C 
BRANCH  33  34
HETATM   34  N   UNL     1      -4.644  -2.389 -34.333  1.00  0.00    -0.066 N 
HETATM   35  H   UNL     1      -4.144  -2.359 -35.233  1.00  0.00     0.280 HD
HETATM   36  C   UNL     1      -3.929  -3.481 -33.497  1.00  0.00     0.261 C 
HETATM   37  C   UNL     1      -4.064  -4.842 -34.180  1.00  0.00     0.195 C 
HETATM   38  O   UNL     1      -5.443  -5.169 -34.373  1.00  0.00    -0.388 OA
HETATM   39  C   UNL     1      -6.098  -4.227 -35.223  1.00  0.00     0.195 C 
HETATM   40  C   UNL     1      -6.083  -2.827 -34.598  1.00  0.00     0.261 C 
ENDBRANCH  33  34
ENDBRANCH  32  33
ENDBRANCH   6  32
TORSDOF 9
ENDMDL
MODEL 9
REMARK VINA RESULT:      -8.2      2.370      7.822
REMARK  9 active torsions:
REMARK  status: ('A' for Active; 'I' for Inactive)
REMARK    1  A    between atoms: C_2  and  C_3 
REMARK    2  A    between atoms: C_4  and  O_5 
REMARK    3  A    between atoms: C_6  and  C_7 
REMARK    4  A    between atoms: C_12  and  C_13 
REMARK    5  A    between atoms: C_13  and  C_14 
REMARK    6  A    between atoms: C_14  and  N_15 
REMARK    7  A    between atoms: N_20  and  C_21 
REMARK    8  A    between atoms: C_21  and  C_22 
REMARK    9  A    between atoms: C_22  and  N_23 
ROOT
HETATM    1  N   UNL     1      -6.409   1.275 -31.019  1.00  0.00    -0.174 N 
HETATM    2  C   UNL     1      -5.109   1.276 -31.493  1.00  0.00     0.681 A 
HETATM    3  N   UNL     1      -4.563   0.273 -32.185  1.00  0.00    -0.234 N 
HETATM    4  H   UNL     1      -3.679   0.307 -32.664  1.00  0.00     0.174 HD
HETATM    5  H   UNL     1      -5.016  -0.647 -32.132  1.00  0.00     0.174 HD
HETATM    6  N   UNL     1      -4.416   2.461 -31.195  1.00  0.00    -0.180 N 
HETATM    7  C   UNL     1      -5.391   3.275 -30.526  1.00  0.00     0.079 A 
HETATM    8  C   UNL     1      -6.578   2.540 -30.386  1.00  0.00     0.079 A 
HETATM    9  C   UNL     1      -5.306   4.582 -30.092  1.00  0.00     0.032 A 
HETATM   10  C   UNL     1      -6.428   5.126 -29.456  1.00  0.00     0.002 A 
HETATM   11  C   UNL     1      -7.606   4.375 -29.291  1.00  0.00     0.002 A 
HETATM   12  C   UNL     1      -7.694   3.067 -29.771  1.00  0.00     0.032 A 
ENDROOT
BRANCH   1  13
HETATM   13  C   UNL     1      -7.505   0.332 -31.306  1.00  0.00     0.231 C 
BRANCH  13  14
HETATM   14  C   UNL     1      -8.067   0.391 -32.706  1.00  0.00     0.178 C 
HETATM   15  O   UNL     1      -7.611  -0.325 -33.600  1.00  0.00    -0.290 OA
BRANCH  14  16
HETATM   16  C   UNL     1      -9.157   1.376 -32.982  1.00  0.00     0.013 A 
HETATM   17  C   UNL     1      -8.898   2.750 -33.036  1.00  0.00     0.026 A 
HETATM   18  C   UNL     1      -9.910   3.693 -33.309  1.00  0.00    -0.016 A 
HETATM   19  C   UNL     1     -11.197   3.172 -33.573  1.00  0.00     0.079 A 
HETATM   20  C   UNL     1     -11.516   1.792 -33.498  1.00  0.00    -0.016 A 
HETATM   21  C   UNL     1     -10.453   0.910 -33.212  1.00  0.00     0.026 A 
BRANCH  18  22
HETATM   22  C   UNL     1      -9.521   5.196 -33.377  1.00  0.00    -0.021 C 
HETATM   23  C   UNL     1     -10.308   6.142 -32.440  1.00  0.00     0.019 C 
HETATM   24  C   UNL     1      -8.029   5.401 -32.994  1.00  0.00     0.019 C 
HETATM   25  C   UNL     1      -9.731   5.685 -34.825  1.00  0.00     0.019 C 
ENDBRANCH  18  22
BRANCH  19  26
HETATM   26  O   UNL     1     -12.164   4.023 -34.017  1.00  0.00    -0.360 OA
HETATM   27  H   UNL     1     -12.748   3.508 -34.601  1.00  0.00     0.217 HD
ENDBRANCH  19  26
BRANCH  20  28
HETATM   28  C   UNL     1     -12.934   1.228 -33.789  1.00  0.00    -0.021 C 
HETATM   29  C   UNL     1     -13.282   1.527 -35.261  1.00  0.00     0.019 C 
HETATM   30  C   UNL     1     -14.038   1.822 -32.879  1.00  0.00     0.019 C 
HETATM   31  C   UNL     1     -13.022  -0.307 -33.582  1.00  0.00     0.019 C 
ENDBRANCH  20  28
ENDBRANCH  14  16
ENDBRANCH  13  14
ENDBRANCH   1  13
BRANCH   6  32
HETATM   32  C   UNL     1      -3.115   2.902 -31.722  1.00  0.00     0.175 C 
BRANCH  32  33
HETATM   33  C   UNL     1      -3.136   3.819 -32.968  1.00  0.00     0.256 C 
BRANCH  33  34
HETATM   34  N   UNL     1      -2.405   5.138 -32.800  1.00  0.00    -0.066 N 
HETATM   35  H   UNL     1      -1.802   5.098 -31.967  1.00  0.00     0.280 HD
HETATM   36  C   UNL     1      -1.444   5.351 -33.998  1.00  0.00     0.261 C 
HETATM   37  C   UNL     1      -0.711   6.685 -33.856  1.00  0.00     0.195 C 
HETATM   38  O   UNL     1      -1.647   7.762 -33.756  1.00  0.00    -0.388 OA
HETATM   39  C   UNL     1      -2.479   7.636 -32.602  1.00  0.00     0.195 C 
HETATM   40  C   UNL     1      -3.319   6.355 -32.672  1.00  0.00     0.261 C 
ENDBRANCH  33  34
ENDBRANCH  32  33
ENDBRANCH   6  32
TORSDOF 9
ENDMDL
MODEL 10
REMARK VINA RESULT:      -8.1      2.931      7.966
REMARK  9 active torsions:
REMARK  status: ('A' for Active; 'I' for Inactive)
REMARK    1  A    between atoms: C_2  and  C_3 
REMARK    2  A    between atoms: C_4  and  O_5 
REMARK    3  A    between atoms: C_6  and  C_7 
REMARK    4  A    between atoms: C_12  and  C_13 
REMARK    5  A    between atoms: C_13  and  C_14 
REMARK    6  A    between atoms: C_14  and  N_15 
REMARK    7  A    between atoms: N_20  and  C_21 
REMARK    8  A    between atoms: C_21  and  C_22 
REMARK    9  A    between atoms: C_22  and  N_23 
ROOT
HETATM    1  N   UNL     1      -7.535   2.149 -31.121  1.00  0.00    -0.174 N 
HETATM    2  C   UNL     1      -6.285   2.592 -30.725  1.00  0.00     0.681 A 
HETATM    3  N   UNL     1      -6.078   3.455 -29.728  1.00  0.00    -0.234 N 
HETATM    4  H   UNL     1      -5.183   3.680 -29.325  1.00  0.00     0.174 HD
HETATM    5  H   UNL     1      -6.871   4.030 -29.420  1.00  0.00     0.174 HD
HETATM    6  N   UNL     1      -5.238   2.018 -31.465  1.00  0.00    -0.180 N 
HETATM    7  C   UNL     1      -5.901   1.109 -32.357  1.00  0.00     0.079 A 
HETATM    8  C   UNL     1      -7.287   1.222 -32.174  1.00  0.00     0.079 A 
HETATM    9  C   UNL     1      -5.371   0.200 -33.249  1.00  0.00     0.032 A 
HETATM   10  C   UNL     1      -6.269  -0.564 -34.004  1.00  0.00     0.002 A 
HETATM   11  C   UNL     1      -7.659  -0.426 -33.838  1.00  0.00     0.002 A 
HETATM   12  C   UNL     1      -8.183   0.468 -32.903  1.00  0.00     0.032 A 
ENDROOT
BRANCH   1  13
HETATM   13  C   UNL     1      -8.842   2.341 -30.467  1.00  0.00     0.231 C 
BRANCH  13  14
HETATM   14  C   UNL     1      -9.466   3.703 -30.644  1.00  0.00     0.178 C 
HETATM   15  O   UNL     1      -8.929   4.710 -30.178  1.00  0.00    -0.290 OA
BRANCH  14  16
HETATM   16  C   UNL     1     -10.778   3.786 -31.358  1.00  0.00     0.013 A 
HETATM   17  C   UNL     1     -11.804   4.619 -30.899  1.00  0.00     0.026 A 
HETATM   18  C   UNL     1     -13.042   4.721 -31.566  1.00  0.00    -0.016 A 
HETATM   19  C   UNL     1     -13.176   3.968 -32.755  1.00  0.00     0.079 A 
HETATM   20  C   UNL     1     -12.179   3.084 -33.242  1.00  0.00    -0.016 A 
HETATM   21  C   UNL     1     -10.970   3.030 -32.517  1.00  0.00     0.026 A 
BRANCH  18  22
HETATM   22  C   UNL     1     -14.111   5.695 -30.998  1.00  0.00    -0.021 C 
HETATM   23  C   UNL     1     -15.585   5.287 -31.221  1.00  0.00     0.019 C 
HETATM   24  C   UNL     1     -13.963   5.843 -29.458  1.00  0.00     0.019 C 
HETATM   25  C   UNL     1     -13.900   7.077 -31.649  1.00  0.00     0.019 C 
ENDBRANCH  18  22
BRANCH  19  26
HETATM   26  O   UNL     1     -14.280   4.167 -33.529  1.00  0.00    -0.360 OA
HETATM   27  H   UNL     1     -14.336   5.125 -33.698  1.00  0.00     0.217 HD
ENDBRANCH  19  26
BRANCH  20  28
HETATM   28  C   UNL     1     -12.336   2.259 -34.549  1.00  0.00    -0.021 C 
HETATM   29  C   UNL     1     -11.112   1.333 -34.687  1.00  0.00     0.019 C 
HETATM   30  C   UNL     1     -12.457   3.130 -35.824  1.00  0.00     0.019 C 
HETATM   31  C   UNL     1     -13.607   1.369 -34.545  1.00  0.00     0.019 C 
ENDBRANCH  20  28
ENDBRANCH  14  16
ENDBRANCH  13  14
ENDBRANCH   1  13
BRANCH   6  32
HETATM   32  C   UNL     1      -3.796   2.080 -31.185  1.00  0.00     0.175 C 
BRANCH  32  33
HETATM   33  C   UNL     1      -3.075   3.411 -31.501  1.00  0.00     0.256 C 
BRANCH  33  34
HETATM   34  N   UNL     1      -3.104   3.820 -32.962  1.00  0.00    -0.066 N 
HETATM   35  H   UNL     1      -3.133   2.980 -33.557  1.00  0.00     0.280 HD
HETATM   36  C   UNL     1      -4.419   4.585 -33.258  1.00  0.00     0.261 C 
HETATM   37  C   UNL     1      -4.458   5.021 -34.723  1.00  0.00     0.195 C 
HETATM   38  O   UNL     1      -3.319   5.827 -35.035  1.00  0.00    -0.388 OA
HETATM   39  C   UNL     1      -2.097   5.109 -34.863  1.00  0.00     0.195 C 
HETATM   40  C   UNL     1      -1.919   4.677 -33.402  1.00  0.00     0.261 C 
ENDBRANCH  33  34
ENDBRANCH  32  33
ENDBRANCH   6  32
TORSDOF 9
ENDMDL
