MODEL 1
REMARK VINA RESULT:      -7.9      0.000      0.000
REMARK  6 active torsions:
REMARK  status: ('A' for Active; 'I' for Inactive)
REMARK    1  A    between atoms: C_3  and  N_4 
REMARK       I    between atoms: N_4  and  C_5 
REMARK       I    between atoms: C_5  and  N_6 
REMARK    2  A    between atoms: N_6  and  C_7 
REMARK    3  A    between atoms: C_7  and  C_8 
REMARK    4  A    between atoms: C_8  and  N_9 
REMARK    5  A    between atoms: C_8  and  C_13 
REMARK    6  A    between atoms: C_20  and  C_21 
ROOT
HETATM    1  N   UNL     1      -7.754   1.503 -34.472  1.00  0.00    -0.309 N 
HETATM    2  C   UNL     1      -8.852   1.906 -33.755  1.00  0.00     0.320 C 
HETATM    3  N   UNL     1      -9.762   2.557 -34.558  1.00  0.00    -0.340 N 
HETATM    4  O   UNL     1      -9.078   1.736 -32.565  1.00  0.00    -0.247 OA
HETATM    5  H   UNL     1      -7.547   2.108 -35.255  1.00  0.00     0.170 HD
HETATM    6  H   UNL     1      -9.599   2.595 -35.558  1.00  0.00     0.164 HD
ENDROOT
BRANCH   1   7
HETATM    7  C   UNL     1      -6.646   0.752 -34.007  1.00  0.00     0.043 A 
HETATM    8  C   UNL     1      -5.585   1.230 -33.220  1.00  0.00    -0.035 A 
HETATM    9  C   UNL     1      -5.486   2.618 -32.656  1.00  0.00     0.050 C 
HETATM   10  C   UNL     1      -4.535   0.347 -32.895  1.00  0.00     0.010 A 
HETATM   11  C   UNL     1      -4.558  -0.994 -33.282  1.00  0.00     0.016 A 
HETATM   12  C   UNL     1      -5.639  -1.497 -34.004  1.00  0.00     0.019 A 
HETATM   13  C   UNL     1      -6.673  -0.613 -34.353  1.00  0.00     0.046 A 
BRANCH  12  14
HETATM   14  C   UNL     1      -5.725  -2.896 -34.410  1.00  0.00     0.179 A 
HETATM   15  O   UNL     1      -4.636  -3.688 -34.153  1.00  0.00    -0.302 OA
HETATM   16  C   UNL     1      -4.995  -4.914 -34.625  1.00  0.00     0.163 A 
HETATM   17  C   UNL     1      -6.263  -4.815 -35.137  1.00  0.00     0.144 A 
HETATM   18  N   UNL     1      -6.725  -3.530 -34.997  1.00  0.00    -0.234 NA
ENDBRANCH  12  14
ENDBRANCH   1   7
BRANCH   3  19
HETATM   19  C   UNL     1     -10.910   3.267 -34.012  1.00  0.00     0.164 C 
BRANCH  19  20
HETATM   20  C   UNL     1     -12.277   3.041 -34.717  1.00  0.00     0.261 C 
BRANCH  20  21
HETATM   21  N   UNL     1     -13.250   4.223 -34.673  1.00  0.00    -0.067 N 
HETATM   22  H   UNL     1     -14.142   3.819 -34.978  1.00  0.00     0.280 HD
HETATM   23  C   UNL     1     -13.546   4.804 -33.321  1.00  0.00     0.270 C 
HETATM   24  C   UNL     1     -12.924   5.298 -35.671  1.00  0.00     0.270 C 
ENDBRANCH  20  21
BRANCH  20  25
HETATM   25  C   UNL     1     -12.912   1.742 -34.316  1.00  0.00     0.085 A 
HETATM   26  O   UNL     1     -12.094   0.778 -33.799  1.00  0.00    -0.325 OA
HETATM   27  C   UNL     1     -12.872  -0.298 -33.514  1.00  0.00     0.142 A 
HETATM   28  C   UNL     1     -14.181  -0.041 -33.841  1.00  0.00     0.027 A 
HETATM   29  C   UNL     1     -14.211   1.276 -34.359  1.00  0.00     0.037 A 
ENDBRANCH  20  25
ENDBRANCH  19  20
ENDBRANCH   3  19
TORSDOF 6
ENDMDL
MODEL 2
REMARK VINA RESULT:      -7.8      5.228      8.551
REMARK  6 active torsions:
REMARK  status: ('A' for Active; 'I' for Inactive)
REMARK    1  A    between atoms: C_3  and  N_4 
REMARK       I    between atoms: N_4  and  C_5 
REMARK       I    between atoms: C_5  and  N_6 
REMARK    2  A    between atoms: N_6  and  C_7 
REMARK    3  A    between atoms: C_7  and  C_8 
REMARK    4  A    between atoms: C_8  and  N_9 
REMARK    5  A    between atoms: C_8  and  C_13 
REMARK    6  A    between atoms: C_20  and  C_21 
ROOT
HETATM    1  N   UNL     1      -2.864   3.269 -32.649  1.00  0.00    -0.309 N 
HETATM    2  C   UNL     1      -4.131   3.007 -32.192  1.00  0.00     0.320 C 
HETATM    3  N   UNL     1      -4.422   1.663 -32.268  1.00  0.00    -0.340 N 
HETATM    4  O   UNL     1      -4.948   3.799 -31.746  1.00  0.00    -0.247 OA
HETATM    5  H   UNL     1      -2.557   2.622 -33.363  1.00  0.00     0.170 HD
HETATM    6  H   UNL     1      -3.692   1.016 -32.545  1.00  0.00     0.164 HD
ENDROOT
BRANCH   1   7
HETATM    7  C   UNL     1      -2.191   4.516 -32.665  1.00  0.00     0.043 A 
HETATM    8  C   UNL     1      -2.132   5.418 -33.739  1.00  0.00    -0.035 A 
HETATM    9  C   UNL     1      -2.853   5.254 -35.047  1.00  0.00     0.050 C 
HETATM   10  C   UNL     1      -1.365   6.593 -33.594  1.00  0.00     0.010 A 
HETATM   11  C   UNL     1      -0.724   6.905 -32.394  1.00  0.00     0.016 A 
HETATM   12  C   UNL     1      -0.833   6.051 -31.297  1.00  0.00     0.019 A 
HETATM   13  C   UNL     1      -1.571   4.867 -31.449  1.00  0.00     0.046 A 
BRANCH  12  14
HETATM   14  C   UNL     1      -0.204   6.344 -30.013  1.00  0.00     0.179 A 
HETATM   15  O   UNL     1      -0.096   7.663 -29.657  1.00  0.00    -0.302 OA
HETATM   16  C   UNL     1       0.512   7.632 -28.439  1.00  0.00     0.163 A 
HETATM   17  C   UNL     1       0.741   6.320 -28.114  1.00  0.00     0.144 A 
HETATM   18  N   UNL     1       0.283   5.503 -29.117  1.00  0.00    -0.234 NA
ENDBRANCH  12  14
ENDBRANCH   1   7
BRANCH   3  19
HETATM   19  C   UNL     1      -5.764   1.147 -32.046  1.00  0.00     0.164 C 
BRANCH  19  20
HETATM   20  C   UNL     1      -6.575   0.730 -33.305  1.00  0.00     0.261 C 
BRANCH  20  21
HETATM   21  N   UNL     1      -8.096   0.867 -33.190  1.00  0.00    -0.067 N 
HETATM   22  H   UNL     1      -8.446  -0.068 -33.428  1.00  0.00     0.280 HD
HETATM   23  C   UNL     1      -8.649   1.134 -31.820  1.00  0.00     0.270 C 
HETATM   24  C   UNL     1      -8.688   1.798 -34.210  1.00  0.00     0.270 C 
ENDBRANCH  20  21
BRANCH  20  25
HETATM   25  C   UNL     1      -6.143  -0.605 -33.839  1.00  0.00     0.085 A 
HETATM   26  O   UNL     1      -4.850  -0.981 -33.612  1.00  0.00    -0.325 OA
HETATM   27  C   UNL     1      -4.683  -2.204 -34.180  1.00  0.00     0.142 A 
HETATM   28  C   UNL     1      -5.852  -2.621 -34.769  1.00  0.00     0.027 A 
HETATM   29  C   UNL     1      -6.798  -1.590 -34.551  1.00  0.00     0.037 A 
ENDBRANCH  20  25
ENDBRANCH  19  20
ENDBRANCH   3  19
TORSDOF 6
ENDMDL
MODEL 3
REMARK VINA RESULT:      -7.6      1.455      2.693
REMARK  6 active torsions:
REMARK  status: ('A' for Active; 'I' for Inactive)
REMARK    1  A    between atoms: C_3  and  N_4 
REMARK       I    between atoms: N_4  and  C_5 
REMARK       I    between atoms: C_5  and  N_6 
REMARK    2  A    between atoms: N_6  and  C_7 
REMARK    3  A    between atoms: C_7  and  C_8 
REMARK    4  A    between atoms: C_8  and  N_9 
REMARK    5  A    between atoms: C_8  and  C_13 
REMARK    6  A    between atoms: C_20  and  C_21 
ROOT
HETATM    1  N   UNL     1      -8.986   1.225 -34.807  1.00  0.00    -0.309 N 
HETATM    2  C   UNL     1     -10.208   1.046 -34.209  1.00  0.00     0.320 C 
HETATM    3  N   UNL     1     -11.225   1.539 -34.996  1.00  0.00    -0.340 N 
HETATM    4  O   UNL     1     -10.449   0.515 -33.135  1.00  0.00    -0.247 OA
HETATM    5  H   UNL     1      -8.950   2.042 -35.402  1.00  0.00     0.170 HD
HETATM    6  H   UNL     1     -11.008   1.881 -35.925  1.00  0.00     0.164 HD
ENDROOT
BRANCH   1   7
HETATM    7  C   UNL     1      -7.721   0.792 -34.335  1.00  0.00     0.043 A 
HETATM    8  C   UNL     1      -6.771   1.574 -33.659  1.00  0.00    -0.035 A 
HETATM    9  C   UNL     1      -6.969   3.001 -33.237  1.00  0.00     0.050 C 
HETATM   10  C   UNL     1      -5.537   0.986 -33.311  1.00  0.00     0.010 A 
HETATM   11  C   UNL     1      -5.269  -0.360 -33.566  1.00  0.00     0.016 A 
HETATM   12  C   UNL     1      -6.232  -1.164 -34.174  1.00  0.00     0.019 A 
HETATM   13  C   UNL     1      -7.450  -0.574 -34.547  1.00  0.00     0.046 A 
BRANCH  12  14
HETATM   14  C   UNL     1      -6.012  -2.583 -34.439  1.00  0.00     0.179 A 
HETATM   15  O   UNL     1      -4.758  -3.077 -34.189  1.00  0.00    -0.302 OA
HETATM   16  C   UNL     1      -4.848  -4.396 -34.515  1.00  0.00     0.163 A 
HETATM   17  C   UNL     1      -6.128  -4.641 -34.940  1.00  0.00     0.144 A 
HETATM   18  N   UNL     1      -6.867  -3.485 -34.889  1.00  0.00    -0.234 NA
ENDBRANCH  12  14
ENDBRANCH   1   7
BRANCH   3  19
HETATM   19  C   UNL     1     -12.591   1.666 -34.507  1.00  0.00     0.164 C 
BRANCH  19  20
HETATM   20  C   UNL     1     -12.919   2.922 -33.652  1.00  0.00     0.261 C 
BRANCH  20  21
HETATM   21  N   UNL     1     -14.367   3.035 -33.168  1.00  0.00    -0.067 N 
HETATM   22  H   UNL     1     -14.844   3.529 -33.931  1.00  0.00     0.280 HD
HETATM   23  C   UNL     1     -15.132   1.752 -33.020  1.00  0.00     0.270 C 
HETATM   24  C   UNL     1     -14.522   3.908 -31.955  1.00  0.00     0.270 C 
ENDBRANCH  20  21
BRANCH  20  25
HETATM   25  C   UNL     1     -12.410   4.184 -34.285  1.00  0.00     0.085 A 
HETATM   26  O   UNL     1     -11.116   4.537 -34.026  1.00  0.00    -0.325 OA
HETATM   27  C   UNL     1     -10.877   5.698 -34.690  1.00  0.00     0.142 A 
HETATM   28  C   UNL     1     -12.000   6.099 -35.372  1.00  0.00     0.027 A 
HETATM   29  C   UNL     1     -12.993   5.123 -35.113  1.00  0.00     0.037 A 
ENDBRANCH  20  25
ENDBRANCH  19  20
ENDBRANCH   3  19
TORSDOF 6
ENDMDL
MODEL 4
REMARK VINA RESULT:      -7.6      5.153      8.807
REMARK  6 active torsions:
REMARK  status: ('A' for Active; 'I' for Inactive)
REMARK    1  A    between atoms: C_3  and  N_4 
REMARK       I    between atoms: N_4  and  C_5 
REMARK       I    between atoms: C_5  and  N_6 
REMARK    2  A    between atoms: N_6  and  C_7 
REMARK    3  A    between atoms: C_7  and  C_8 
REMARK    4  A    between atoms: C_8  and  N_9 
REMARK    5  A    between atoms: C_8  and  C_13 
REMARK    6  A    between atoms: C_20  and  C_21 
ROOT
HETATM    1  N   UNL     1      -4.024   2.307 -31.826  1.00  0.00    -0.309 N 
HETATM    2  C   UNL     1      -3.072   3.220 -32.203  1.00  0.00     0.320 C 
HETATM    3  N   UNL     1      -2.494   3.821 -31.107  1.00  0.00    -0.340 N 
HETATM    4  O   UNL     1      -2.714   3.509 -33.336  1.00  0.00    -0.247 OA
HETATM    5  H   UNL     1      -4.479   2.544 -30.954  1.00  0.00     0.170 HD
HETATM    6  H   UNL     1      -2.735   3.491 -30.179  1.00  0.00     0.164 HD
ENDROOT
BRANCH   1   7
HETATM    7  C   UNL     1      -4.781   1.450 -32.663  1.00  0.00     0.043 A 
HETATM    8  C   UNL     1      -5.903   1.809 -33.427  1.00  0.00    -0.035 A 
HETATM    9  C   UNL     1      -6.451   3.202 -33.557  1.00  0.00     0.050 C 
HETATM   10  C   UNL     1      -6.568   0.807 -34.164  1.00  0.00     0.010 A 
HETATM   11  C   UNL     1      -6.100  -0.508 -34.199  1.00  0.00     0.016 A 
HETATM   12  C   UNL     1      -4.946  -0.861 -33.500  1.00  0.00     0.019 A 
HETATM   13  C   UNL     1      -4.300   0.129 -32.744  1.00  0.00     0.046 A 
BRANCH  12  14
HETATM   14  C   UNL     1      -4.401  -2.215 -33.525  1.00  0.00     0.179 A 
HETATM   15  O   UNL     1      -3.683  -2.618 -32.429  1.00  0.00    -0.302 OA
HETATM   16  C   UNL     1      -3.312  -3.895 -32.725  1.00  0.00     0.163 A 
HETATM   17  C   UNL     1      -3.812  -4.205 -33.964  1.00  0.00     0.144 A 
HETATM   18  N   UNL     1      -4.506  -3.134 -34.469  1.00  0.00    -0.234 NA
ENDBRANCH  12  14
ENDBRANCH   1   7
BRANCH   3  19
HETATM   19  C   UNL     1      -1.610   4.971 -31.230  1.00  0.00     0.164 C 
BRANCH  19  20
HETATM   20  C   UNL     1      -2.128   6.321 -30.657  1.00  0.00     0.261 C 
BRANCH  20  21
HETATM   21  N   UNL     1      -2.783   7.264 -31.670  1.00  0.00    -0.067 N 
HETATM   22  H   UNL     1      -2.850   8.156 -31.167  1.00  0.00     0.280 HD
HETATM   23  C   UNL     1      -1.989   7.589 -32.902  1.00  0.00     0.270 C 
HETATM   24  C   UNL     1      -4.194   6.879 -32.015  1.00  0.00     0.270 C 
ENDBRANCH  20  21
BRANCH  20  25
HETATM   25  C   UNL     1      -1.101   7.000 -29.798  1.00  0.00     0.085 A 
HETATM   26  O   UNL     1      -1.558   7.778 -28.773  1.00  0.00    -0.325 OA
HETATM   27  C   UNL     1      -0.469   8.289 -28.142  1.00  0.00     0.142 A 
HETATM   28  C   UNL     1       0.684   7.852 -28.748  1.00  0.00     0.027 A 
HETATM   29  C   UNL     1       0.279   7.018 -29.819  1.00  0.00     0.037 A 
ENDBRANCH  20  25
ENDBRANCH  19  20
ENDBRANCH   3  19
TORSDOF 6
ENDMDL
MODEL 5
REMARK VINA RESULT:      -7.5      5.192      8.917
REMARK  6 active torsions:
REMARK  status: ('A' for Active; 'I' for Inactive)
REMARK    1  A    between atoms: C_3  and  N_4 
REMARK       I    between atoms: N_4  and  C_5 
REMARK       I    between atoms: C_5  and  N_6 
REMARK    2  A    between atoms: N_6  and  C_7 
REMARK    3  A    between atoms: C_7  and  C_8 
REMARK    4  A    between atoms: C_8  and  N_9 
REMARK    5  A    between atoms: C_8  and  C_13 
REMARK    6  A    between atoms: C_20  and  C_21 
ROOT
HETATM    1  N   UNL     1      -4.007   3.778 -32.308  1.00  0.00    -0.309 N 
HETATM    2  C   UNL     1      -3.872   2.464 -31.938  1.00  0.00     0.320 C 
HETATM    3  N   UNL     1      -5.093   1.828 -31.897  1.00  0.00    -0.340 N 
HETATM    4  O   UNL     1      -2.842   1.858 -31.678  1.00  0.00    -0.247 OA
HETATM    5  H   UNL     1      -4.891   4.181 -32.028  1.00  0.00     0.170 HD
HETATM    6  H   UNL     1      -5.917   2.324 -32.216  1.00  0.00     0.164 HD
ENDROOT
BRANCH   1   7
HETATM    7  C   UNL     1      -2.976   4.727 -32.521  1.00  0.00     0.043 A 
HETATM    8  C   UNL     1      -2.675   5.374 -33.731  1.00  0.00    -0.035 A 
HETATM    9  C   UNL     1      -3.458   5.233 -35.004  1.00  0.00     0.050 C 
HETATM   10  C   UNL     1      -1.572   6.252 -33.770  1.00  0.00     0.010 A 
HETATM   11  C   UNL     1      -0.822   6.538 -32.628  1.00  0.00     0.016 A 
HETATM   12  C   UNL     1      -1.155   5.955 -31.406  1.00  0.00     0.019 A 
HETATM   13  C   UNL     1      -2.234   5.058 -31.371  1.00  0.00     0.046 A 
BRANCH  12  14
HETATM   14  C   UNL     1      -0.419   6.241 -30.178  1.00  0.00     0.179 A 
HETATM   15  O   UNL     1      -0.309   7.556 -29.809  1.00  0.00    -0.302 OA
HETATM   16  C   UNL     1       0.407   7.519 -28.651  1.00  0.00     0.163 A 
HETATM   17  C   UNL     1       0.693   6.207 -28.373  1.00  0.00     0.144 A 
HETATM   18  N   UNL     1       0.165   5.397 -29.345  1.00  0.00    -0.234 NA
ENDBRANCH  12  14
ENDBRANCH   1   7
BRANCH   3  19
HETATM   19  C   UNL     1      -5.254   0.495 -31.335  1.00  0.00     0.164 C 
BRANCH  19  20
HETATM   20  C   UNL     1      -5.448  -0.675 -32.341  1.00  0.00     0.261 C 
BRANCH  20  21
HETATM   21  N   UNL     1      -4.162  -1.317 -32.868  1.00  0.00    -0.067 N 
HETATM   22  H   UNL     1      -3.735  -0.578 -33.439  1.00  0.00     0.280 HD
HETATM   23  C   UNL     1      -3.111  -1.657 -31.852  1.00  0.00     0.270 C 
HETATM   24  C   UNL     1      -4.411  -2.466 -33.803  1.00  0.00     0.270 C 
ENDBRANCH  20  21
BRANCH  20  25
HETATM   25  C   UNL     1      -6.422  -0.328 -33.429  1.00  0.00     0.085 A 
HETATM   26  O   UNL     1      -6.024   0.595 -34.354  1.00  0.00    -0.325 OA
HETATM   27  C   UNL     1      -7.051   0.754 -35.229  1.00  0.00     0.142 A 
HETATM   28  C   UNL     1      -8.107  -0.054 -34.879  1.00  0.00     0.027 A 
HETATM   29  C   UNL     1      -7.703  -0.755 -33.716  1.00  0.00     0.037 A 
ENDBRANCH  20  25
ENDBRANCH  19  20
ENDBRANCH   3  19
TORSDOF 6
ENDMDL
MODEL 6
REMARK VINA RESULT:      -7.4      4.129      7.998
REMARK  6 active torsions:
REMARK  status: ('A' for Active; 'I' for Inactive)
REMARK    1  A    between atoms: C_3  and  N_4 
REMARK       I    between atoms: N_4  and  C_5 
REMARK       I    between atoms: C_5  and  N_6 
REMARK    2  A    between atoms: N_6  and  C_7 
REMARK    3  A    between atoms: C_7  and  C_8 
REMARK    4  A    between atoms: C_8  and  N_9 
REMARK    5  A    between atoms: C_8  and  C_13 
REMARK    6  A    between atoms: C_20  and  C_21 
ROOT
HETATM    1  N   UNL     1      -5.548   2.372 -31.901  1.00  0.00    -0.309 N 
HETATM    2  C   UNL     1      -5.352   3.633 -32.406  1.00  0.00     0.320 C 
HETATM    3  N   UNL     1      -4.254   4.236 -31.834  1.00  0.00    -0.340 N 
HETATM    4  O   UNL     1      -6.007   4.210 -33.262  1.00  0.00    -0.247 OA
HETATM    5  H   UNL     1      -5.232   2.274 -30.945  1.00  0.00     0.170 HD
HETATM    6  H   UNL     1      -3.670   3.699 -31.203  1.00  0.00     0.164 HD
ENDROOT
BRANCH   1   7
HETATM    7  C   UNL     1      -6.530   1.427 -32.290  1.00  0.00     0.043 A 
HETATM    8  C   UNL     1      -7.918   1.544 -32.108  1.00  0.00    -0.035 A 
HETATM    9  C   UNL     1      -8.617   2.745 -31.539  1.00  0.00     0.050 C 
HETATM   10  C   UNL     1      -8.743   0.474 -32.511  1.00  0.00     0.010 A 
HETATM   11  C   UNL     1      -8.221  -0.658 -33.138  1.00  0.00     0.016 A 
HETATM   12  C   UNL     1      -6.853  -0.755 -33.387  1.00  0.00     0.019 A 
HETATM   13  C   UNL     1      -6.026   0.296 -32.961  1.00  0.00     0.046 A 
BRANCH  12  14
HETATM   14  C   UNL     1      -6.261  -1.905 -34.062  1.00  0.00     0.179 A 
HETATM   15  O   UNL     1      -4.892  -1.964 -34.108  1.00  0.00    -0.302 OA
HETATM   16  C   UNL     1      -4.630  -3.120 -34.779  1.00  0.00     0.163 A 
HETATM   17  C   UNL     1      -5.828  -3.701 -35.104  1.00  0.00     0.144 A 
HETATM   18  N   UNL     1      -6.863  -2.926 -34.645  1.00  0.00    -0.234 NA
ENDBRANCH  12  14
ENDBRANCH   1   7
BRANCH   3  19
HETATM   19  C   UNL     1      -3.950   5.645 -32.036  1.00  0.00     0.164 C 
BRANCH  19  20
HETATM   20  C   UNL     1      -2.703   5.978 -32.904  1.00  0.00     0.261 C 
BRANCH  20  21
HETATM   21  N   UNL     1      -2.564   5.176 -34.201  1.00  0.00    -0.067 N 
HETATM   22  H   UNL     1      -2.627   4.199 -33.894  1.00  0.00     0.280 HD
HETATM   23  C   UNL     1      -3.668   5.322 -35.207  1.00  0.00     0.270 C 
HETATM   24  C   UNL     1      -1.214   5.318 -34.846  1.00  0.00     0.270 C 
ENDBRANCH  20  21
BRANCH  20  25
HETATM   25  C   UNL     1      -1.442   6.006 -32.091  1.00  0.00     0.085 A 
HETATM   26  O   UNL     1      -1.066   4.845 -31.477  1.00  0.00    -0.325 OA
HETATM   27  C   UNL     1       0.085   5.102 -30.804  1.00  0.00     0.142 A 
HETATM   28  C   UNL     1       0.457   6.414 -30.975  1.00  0.00     0.027 A 
HETATM   29  C   UNL     1      -0.528   7.001 -31.806  1.00  0.00     0.037 A 
ENDBRANCH  20  25
ENDBRANCH  19  20
ENDBRANCH   3  19
TORSDOF 6
ENDMDL
MODEL 7
REMARK VINA RESULT:      -7.2      2.352      4.685
REMARK  6 active torsions:
REMARK  status: ('A' for Active; 'I' for Inactive)
REMARK    1  A    between atoms: C_3  and  N_4 
REMARK       I    between atoms: N_4  and  C_5 
REMARK       I    between atoms: C_5  and  N_6 
REMARK    2  A    between atoms: N_6  and  C_7 
REMARK    3  A    between atoms: C_7  and  C_8 
REMARK    4  A    between atoms: C_8  and  N_9 
REMARK    5  A    between atoms: C_8  and  C_13 
REMARK    6  A    between atoms: C_20  and  C_21 
ROOT
HETATM    1  N   UNL     1      -8.484  -0.041 -32.706  1.00  0.00    -0.309 N 
HETATM    2  C   UNL     1      -9.445   0.471 -33.541  1.00  0.00     0.320 C 
HETATM    3  N   UNL     1     -10.682   0.478 -32.934  1.00  0.00    -0.340 N 
HETATM    4  O   UNL     1      -9.304   0.900 -34.677  1.00  0.00    -0.247 OA
HETATM    5  H   UNL     1      -8.846  -0.729 -32.058  1.00  0.00     0.170 HD
HETATM    6  H   UNL     1     -10.754   0.213 -31.958  1.00  0.00     0.164 HD
ENDROOT
BRANCH   1   7
HETATM    7  C   UNL     1      -7.093  -0.147 -32.952  1.00  0.00     0.043 A 
HETATM    8  C   UNL     1      -6.437  -1.216 -33.584  1.00  0.00    -0.035 A 
HETATM    9  C   UNL     1      -7.117  -2.408 -34.194  1.00  0.00     0.050 C 
HETATM   10  C   UNL     1      -5.032  -1.176 -33.695  1.00  0.00     0.010 A 
HETATM   11  C   UNL     1      -4.293  -0.077 -33.251  1.00  0.00     0.016 A 
HETATM   12  C   UNL     1      -4.940   1.020 -32.685  1.00  0.00     0.019 A 
HETATM   13  C   UNL     1      -6.336   0.970 -32.548  1.00  0.00     0.046 A 
BRANCH  12  14
HETATM   14  C   UNL     1      -4.217   2.203 -32.229  1.00  0.00     0.179 A 
HETATM   15  O   UNL     1      -4.804   3.421 -32.460  1.00  0.00    -0.302 OA
HETATM   16  C   UNL     1      -3.927   4.320 -31.935  1.00  0.00     0.163 A 
HETATM   17  C   UNL     1      -2.866   3.623 -31.417  1.00  0.00     0.144 A 
HETATM   18  N   UNL     1      -3.055   2.277 -31.604  1.00  0.00    -0.234 NA
ENDBRANCH  12  14
ENDBRANCH   1   7
BRANCH   3  19
HETATM   19  C   UNL     1     -11.904   0.772 -33.668  1.00  0.00     0.164 C 
BRANCH  19  20
HETATM   20  C   UNL     1     -12.629   2.104 -33.322  1.00  0.00     0.261 C 
BRANCH  20  21
HETATM   21  N   UNL     1     -14.134   2.132 -33.605  1.00  0.00    -0.067 N 
HETATM   22  H   UNL     1     -14.239   2.878 -34.301  1.00  0.00     0.280 HD
HETATM   23  C   UNL     1     -14.720   0.919 -34.267  1.00  0.00     0.270 C 
HETATM   24  C   UNL     1     -14.953   2.558 -32.420  1.00  0.00     0.270 C 
ENDBRANCH  20  21
BRANCH  20  25
HETATM   25  C   UNL     1     -11.905   3.299 -33.869  1.00  0.00     0.085 A 
HETATM   26  O   UNL     1     -11.524   3.256 -35.180  1.00  0.00    -0.325 OA
HETATM   27  C   UNL     1     -10.891   4.426 -35.452  1.00  0.00     0.142 A 
HETATM   28  C   UNL     1     -10.858   5.224 -34.334  1.00  0.00     0.027 A 
HETATM   29  C   UNL     1     -11.513   4.499 -33.308  1.00  0.00     0.037 A 
ENDBRANCH  20  25
ENDBRANCH  19  20
ENDBRANCH   3  19
TORSDOF 6
ENDMDL
MODEL 8
REMARK VINA RESULT:      -7.1      2.515      4.654
REMARK  6 active torsions:
REMARK  status: ('A' for Active; 'I' for Inactive)
REMARK    1  A    between atoms: C_3  and  N_4 
REMARK       I    between atoms: N_4  and  C_5 
REMARK       I    between atoms: C_5  and  N_6 
REMARK    2  A    between atoms: N_6  and  C_7 
REMARK    3  A    between atoms: C_7  and  C_8 
REMARK    4  A    between atoms: C_8  and  N_9 
REMARK    5  A    between atoms: C_8  and  C_13 
REMARK    6  A    between atoms: C_20  and  C_21 
ROOT
HETATM    1  N   UNL     1      -7.276   1.120 -33.867  1.00  0.00    -0.309 N 
HETATM    2  C   UNL     1      -8.453   0.812 -33.232  1.00  0.00     0.320 C 
HETATM    3  N   UNL     1      -9.534   1.012 -34.061  1.00  0.00    -0.340 N 
HETATM    4  O   UNL     1      -8.606   0.394 -32.094  1.00  0.00    -0.247 OA
HETATM    5  H   UNL     1      -7.378   1.845 -34.565  1.00  0.00     0.170 HD
HETATM    6  H   UNL     1      -9.373   1.261 -35.030  1.00  0.00     0.164 HD
ENDROOT
BRANCH   1   7
HETATM    7  C   UNL     1      -5.959   0.980 -33.362  1.00  0.00     0.043 A 
HETATM    8  C   UNL     1      -5.206  -0.205 -33.313  1.00  0.00    -0.035 A 
HETATM    9  C   UNL     1      -5.641  -1.529 -33.873  1.00  0.00     0.050 C 
HETATM   10  C   UNL     1      -3.926  -0.167 -32.723  1.00  0.00     0.010 A 
HETATM   11  C   UNL     1      -3.372   1.024 -32.250  1.00  0.00     0.016 A 
HETATM   12  C   UNL     1      -4.082   2.219 -32.357  1.00  0.00     0.019 A 
HETATM   13  C   UNL     1      -5.368   2.179 -32.917  1.00  0.00     0.046 A 
BRANCH  12  14
HETATM   14  C   UNL     1      -3.538   3.494 -31.902  1.00  0.00     0.179 A 
HETATM   15  O   UNL     1      -2.179   3.568 -31.732  1.00  0.00    -0.302 OA
HETATM   16  C   UNL     1      -1.963   4.847 -31.316  1.00  0.00     0.163 A 
HETATM   17  C   UNL     1      -3.177   5.482 -31.255  1.00  0.00     0.144 A 
HETATM   18  N   UNL     1      -4.176   4.619 -31.630  1.00  0.00    -0.234 NA
ENDBRANCH  12  14
ENDBRANCH   1   7
BRANCH   3  19
HETATM   19  C   UNL     1     -10.905   0.962 -33.572  1.00  0.00     0.164 C 
BRANCH  19  20
HETATM   20  C   UNL     1     -11.843   2.131 -33.987  1.00  0.00     0.261 C 
BRANCH  20  21
HETATM   21  N   UNL     1     -11.460   3.513 -33.450  1.00  0.00    -0.067 N 
HETATM   22  H   UNL     1     -12.362   3.979 -33.306  1.00  0.00     0.280 HD
HETATM   23  C   UNL     1     -10.800   3.554 -32.102  1.00  0.00     0.270 C 
HETATM   24  C   UNL     1     -10.717   4.354 -34.448  1.00  0.00     0.270 C 
ENDBRANCH  20  21
BRANCH  20  25
HETATM   25  C   UNL     1     -13.290   1.797 -33.773  1.00  0.00     0.085 A 
HETATM   26  O   UNL     1     -13.886   0.977 -34.689  1.00  0.00    -0.325 OA
HETATM   27  C   UNL     1     -15.178   0.817 -34.301  1.00  0.00     0.142 A 
HETATM   28  C   UNL     1     -15.423   1.522 -33.148  1.00  0.00     0.027 A 
HETATM   29  C   UNL     1     -14.205   2.156 -32.803  1.00  0.00     0.037 A 
ENDBRANCH  20  25
ENDBRANCH  19  20
ENDBRANCH   3  19
TORSDOF 6
ENDMDL
MODEL 9
REMARK VINA RESULT:      -7.1      5.362      8.578
REMARK  6 active torsions:
REMARK  status: ('A' for Active; 'I' for Inactive)
REMARK    1  A    between atoms: C_3  and  N_4 
REMARK       I    between atoms: N_4  and  C_5 
REMARK       I    between atoms: C_5  and  N_6 
REMARK    2  A    between atoms: N_6  and  C_7 
REMARK    3  A    between atoms: C_7  and  C_8 
REMARK    4  A    between atoms: C_8  and  N_9 
REMARK    5  A    between atoms: C_8  and  C_13 
REMARK    6  A    between atoms: C_20  and  C_21 
ROOT
HETATM    1  N   UNL     1      -4.102   3.096 -32.497  1.00  0.00    -0.309 N 
HETATM    2  C   UNL     1      -2.904   3.515 -31.975  1.00  0.00     0.320 C 
HETATM    3  N   UNL     1      -2.465   4.665 -32.592  1.00  0.00    -0.340 N 
HETATM    4  O   UNL     1      -2.257   3.003 -31.073  1.00  0.00    -0.247 OA
HETATM    5  H   UNL     1      -4.220   3.345 -33.471  1.00  0.00     0.170 HD
HETATM    6  H   UNL     1      -3.068   5.125 -33.265  1.00  0.00     0.164 HD
ENDROOT
BRANCH   1   7
HETATM    7  C   UNL     1      -4.891   1.996 -32.077  1.00  0.00     0.043 A 
HETATM    8  C   UNL     1      -5.801   1.983 -31.008  1.00  0.00    -0.035 A 
HETATM    9  C   UNL     1      -6.164   3.173 -30.166  1.00  0.00     0.050 C 
HETATM   10  C   UNL     1      -6.462   0.776 -30.699  1.00  0.00     0.010 A 
HETATM   11  C   UNL     1      -6.281  -0.376 -31.466  1.00  0.00     0.016 A 
HETATM   12  C   UNL     1      -5.433  -0.355 -32.572  1.00  0.00     0.019 A 
HETATM   13  C   UNL     1      -4.752   0.836 -32.865  1.00  0.00     0.046 A 
BRANCH  12  14
HETATM   14  C   UNL     1      -5.228  -1.524 -33.422  1.00  0.00     0.179 A 
HETATM   15  O   UNL     1      -6.237  -1.847 -34.293  1.00  0.00    -0.302 OA
HETATM   16  C   UNL     1      -5.777  -2.952 -34.943  1.00  0.00     0.163 A 
HETATM   17  C   UNL     1      -4.532  -3.245 -34.449  1.00  0.00     0.144 A 
HETATM   18  N   UNL     1      -4.186  -2.334 -33.483  1.00  0.00    -0.234 NA
ENDBRANCH  12  14
ENDBRANCH   1   7
BRANCH   3  19
HETATM   19  C   UNL     1      -1.129   5.199 -32.375  1.00  0.00     0.164 C 
BRANCH  19  20
HETATM   20  C   UNL     1      -0.992   6.356 -31.344  1.00  0.00     0.261 C 
BRANCH  20  21
HETATM   21  N   UNL     1      -0.329   5.984 -30.014  1.00  0.00    -0.067 N 
HETATM   22  H   UNL     1      -1.103   5.623 -29.446  1.00  0.00     0.280 HD
HETATM   23  C   UNL     1       0.666   4.861 -30.047  1.00  0.00     0.270 C 
HETATM   24  C   UNL     1       0.209   7.171 -29.267  1.00  0.00     0.270 C 
ENDBRANCH  20  21
BRANCH  20  25
HETATM   25  C   UNL     1      -2.277   7.111 -31.170  1.00  0.00     0.085 A 
HETATM   26  O   UNL     1      -3.213   6.571 -30.334  1.00  0.00    -0.325 OA
HETATM   27  C   UNL     1      -4.281   7.411 -30.333  1.00  0.00     0.142 A 
HETATM   28  C   UNL     1      -4.046   8.485 -31.157  1.00  0.00     0.027 A 
HETATM   29  C   UNL     1      -2.752   8.295 -31.700  1.00  0.00     0.037 A 
ENDBRANCH  20  25
ENDBRANCH  19  20
ENDBRANCH   3  19
TORSDOF 6
ENDMDL
MODEL 10
REMARK VINA RESULT:      -7.1      1.813      2.702
REMARK  6 active torsions:
REMARK  status: ('A' for Active; 'I' for Inactive)
REMARK    1  A    between atoms: C_3  and  N_4 
REMARK       I    between atoms: N_4  and  C_5 
REMARK       I    between atoms: C_5  and  N_6 
REMARK    2  A    between atoms: N_6  and  C_7 
REMARK    3  A    between atoms: C_7  and  C_8 
REMARK    4  A    between atoms: C_8  and  N_9 
REMARK    5  A    between atoms: C_8  and  C_13 
REMARK    6  A    between atoms: C_20  and  C_21 
ROOT
HETATM    1  N   UNL     1      -8.650   0.602 -32.557  1.00  0.00    -0.309 N 
HETATM    2  C   UNL     1      -9.581   1.114 -33.425  1.00  0.00     0.320 C 
HETATM    3  N   UNL     1     -10.763   1.399 -32.780  1.00  0.00    -0.340 N 
HETATM    4  O   UNL     1      -9.452   1.334 -34.621  1.00  0.00    -0.247 OA
HETATM    5  H   UNL     1      -9.063   0.085 -31.791  1.00  0.00     0.170 HD
HETATM    6  H   UNL     1     -10.810   1.304 -31.772  1.00  0.00     0.164 HD
ENDROOT
BRANCH   1   7
HETATM    7  C   UNL     1      -7.305   0.252 -32.837  1.00  0.00     0.043 A 
HETATM    8  C   UNL     1      -6.170   1.041 -32.590  1.00  0.00    -0.035 A 
HETATM    9  C   UNL     1      -6.178   2.374 -31.899  1.00  0.00     0.050 C 
HETATM   10  C   UNL     1      -4.909   0.551 -32.987  1.00  0.00     0.010 A 
HETATM   11  C   UNL     1      -4.760  -0.715 -33.555  1.00  0.00     0.016 A 
HETATM   12  C   UNL     1      -5.872  -1.536 -33.741  1.00  0.00     0.019 A 
HETATM   13  C   UNL     1      -7.132  -1.039 -33.373  1.00  0.00     0.046 A 
BRANCH  12  14
HETATM   14  C   UNL     1      -5.767  -2.877 -34.306  1.00  0.00     0.179 A 
HETATM   15  O   UNL     1      -6.869  -3.367 -34.958  1.00  0.00    -0.302 OA
HETATM   16  C   UNL     1      -6.488  -4.607 -35.374  1.00  0.00     0.163 A 
HETATM   17  C   UNL     1      -5.195  -4.810 -34.966  1.00  0.00     0.144 A 
HETATM   18  N   UNL     1      -4.739  -3.708 -34.288  1.00  0.00    -0.234 NA
ENDBRANCH  12  14
ENDBRANCH   1   7
BRANCH   3  19
HETATM   19  C   UNL     1     -11.975   1.753 -33.504  1.00  0.00     0.164 C 
BRANCH  19  20
HETATM   20  C   UNL     1     -12.639   3.113 -33.142  1.00  0.00     0.261 C 
BRANCH  20  21
HETATM   21  N   UNL     1     -13.218   3.902 -34.320  1.00  0.00    -0.067 N 
HETATM   22  H   UNL     1     -14.160   3.511 -34.438  1.00  0.00     0.280 HD
HETATM   23  C   UNL     1     -13.449   5.369 -34.102  1.00  0.00     0.270 C 
HETATM   24  C   UNL     1     -12.503   3.647 -35.616  1.00  0.00     0.270 C 
ENDBRANCH  20  21
BRANCH  20  25
HETATM   25  C   UNL     1     -11.768   3.945 -32.247  1.00  0.00     0.085 A 
HETATM   26  O   UNL     1     -10.574   4.372 -32.755  1.00  0.00    -0.325 OA
HETATM   27  C   UNL     1      -9.961   5.095 -31.783  1.00  0.00     0.142 A 
HETATM   28  C   UNL     1     -10.743   5.139 -30.654  1.00  0.00     0.027 A 
HETATM   29  C   UNL     1     -11.912   4.397 -30.950  1.00  0.00     0.037 A 
ENDBRANCH  20  25
ENDBRANCH  19  20
ENDBRANCH   3  19
TORSDOF 6
ENDMDL
