MODEL 1
REMARK VINA RESULT:      -8.6      0.000      0.000
REMARK  6 active torsions:
REMARK  status: ('A' for Active; 'I' for Inactive)
REMARK    1  A    between atoms: C_3  and  C_4 
REMARK    2  A    between atoms: C_5  and  C_6 
REMARK    3  A    between atoms: C_8  and  N_9 
REMARK       I    between atoms: N_9  and  C_10 
REMARK    4  A    between atoms: C_10  and  C_11 
REMARK    5  A    between atoms: C_11  and  C_12 
REMARK    6  A    between atoms: C_15  and  O_16 
ROOT
HETATM    1  C   UNL     1      -1.278   5.405 -31.775  1.00  0.00     0.020 A 
HETATM    2  C   UNL     1      -2.204   4.373 -31.579  1.00  0.00     0.050 A 
HETATM    3  C   UNL     1      -2.867   3.803 -32.666  1.00  0.00     0.036 A 
HETATM    4  C   UNL     1      -2.585   4.272 -33.956  1.00  0.00     0.029 A 
HETATM    5  C   UNL     1      -1.648   5.290 -34.156  1.00  0.00     0.004 A 
HETATM    6  C   UNL     1      -0.995   5.859 -33.063  1.00  0.00     0.021 A 
ENDROOT
BRANCH   3   7
HETATM    7  N   UNL     1      -3.854   2.803 -32.543  1.00  0.00    -0.327 N 
HETATM    8  C   UNL     1      -3.793   1.653 -31.772  1.00  0.00     0.226 C 
HETATM    9  O   UNL     1      -2.809   1.228 -31.173  1.00  0.00    -0.273 OA
HETATM   10  H   UNL     1      -4.711   2.963 -33.058  1.00  0.00     0.169 HD
BRANCH   8  11
HETATM   11  C   UNL     1      -5.125   0.922 -31.697  1.00  0.00     0.141 C 
BRANCH  11  12
HETATM   12  C   UNL     1      -5.208  -0.184 -32.721  1.00  0.00    -0.049 A 
HETATM   13  C   UNL     1      -6.236  -0.207 -33.674  1.00  0.00     0.010 A 
HETATM   14  C   UNL     1      -6.328  -1.263 -34.583  1.00  0.00     0.037 A 
HETATM   15  C   UNL     1      -5.398  -2.294 -34.541  1.00  0.00     0.065 A 
HETATM   16  C   UNL     1      -4.367  -2.287 -33.607  1.00  0.00     0.037 A 
HETATM   17  C   UNL     1      -4.275  -1.232 -32.699  1.00  0.00     0.010 A 
BRANCH  15  18
HETATM   18  O   UNL     1      -5.534  -3.310 -35.440  1.00  0.00    -0.361 OA
HETATM   19  H   UNL     1      -5.393  -2.951 -36.332  1.00  0.00     0.217 HD
ENDBRANCH  15  18
ENDBRANCH  11  12
ENDBRANCH   8  11
ENDBRANCH   3   7
BRANCH   1  20
HETATM   20  C   UNL     1      -0.656   6.018 -30.643  1.00  0.00    -0.060 C 
HETATM   21  C   UNL     1      -0.180   6.522 -29.662  1.00  0.00    -0.041 C 
BRANCH  21  22
HETATM   22  C   UNL     1       0.342   7.099 -28.466  1.00  0.00     0.110 A 
HETATM   23  C   UNL     1       1.215   8.177 -28.517  1.00  0.00     0.041 A 
HETATM   24  C   UNL     1       1.712   8.678 -27.317  1.00  0.00     0.004 A 
HETATM   25  C   UNL     1       1.322   8.084 -26.121  1.00  0.00     0.019 A 
HETATM   26  C   UNL     1       0.444   7.012 -26.174  1.00  0.00     0.118 A 
HETATM   27  N   UNL     1      -0.056   6.505 -27.322  1.00  0.00    -0.252 NA
ENDBRANCH  21  22
ENDBRANCH   1  20
TORSDOF 6
ENDMDL
MODEL 2
REMARK VINA RESULT:      -8.6      2.946     10.112
REMARK  6 active torsions:
REMARK  status: ('A' for Active; 'I' for Inactive)
REMARK    1  A    between atoms: C_3  and  C_4 
REMARK    2  A    between atoms: C_5  and  C_6 
REMARK    3  A    between atoms: C_8  and  N_9 
REMARK       I    between atoms: N_9  and  C_10 
REMARK    4  A    between atoms: C_10  and  C_11 
REMARK    5  A    between atoms: C_11  and  C_12 
REMARK    6  A    between atoms: C_15  and  O_16 
ROOT
HETATM    1  C   UNL     1      -4.668   1.509 -32.269  1.00  0.00     0.020 A 
HETATM    2  C   UNL     1      -3.554   2.281 -32.623  1.00  0.00     0.050 A 
HETATM    3  C   UNL     1      -3.356   3.538 -32.051  1.00  0.00     0.036 A 
HETATM    4  C   UNL     1      -4.281   4.010 -31.111  1.00  0.00     0.029 A 
HETATM    5  C   UNL     1      -5.383   3.233 -30.742  1.00  0.00     0.004 A 
HETATM    6  C   UNL     1      -5.578   1.981 -31.325  1.00  0.00     0.021 A 
ENDROOT
BRANCH   3   7
HETATM    7  N   UNL     1      -2.293   4.396 -32.400  1.00  0.00    -0.327 N 
HETATM    8  C   UNL     1      -2.319   5.436 -33.317  1.00  0.00     0.226 C 
HETATM    9  O   UNL     1      -3.232   5.700 -34.094  1.00  0.00    -0.273 OA
HETATM   10  H   UNL     1      -1.423   4.246 -31.903  1.00  0.00     0.169 HD
BRANCH   8  11
HETATM   11  C   UNL     1      -1.064   6.294 -33.270  1.00  0.00     0.141 C 
BRANCH  11  12
HETATM   12  C   UNL     1      -0.852   6.892 -31.900  1.00  0.00    -0.049 A 
HETATM   13  C   UNL     1       0.276   6.564 -31.137  1.00  0.00     0.010 A 
HETATM   14  C   UNL     1       0.432   7.087 -29.852  1.00  0.00     0.037 A 
HETATM   15  C   UNL     1      -0.537   7.934 -29.328  1.00  0.00     0.065 A 
HETATM   16  C   UNL     1      -1.661   8.277 -30.071  1.00  0.00     0.037 A 
HETATM   17  C   UNL     1      -1.817   7.755 -31.356  1.00  0.00     0.010 A 
BRANCH  15  18
HETATM   18  O   UNL     1      -0.348   8.412 -28.065  1.00  0.00    -0.361 OA
HETATM   19  H   UNL     1      -1.198   8.382 -27.595  1.00  0.00     0.217 HD
ENDBRANCH  15  18
ENDBRANCH  11  12
ENDBRANCH   8  11
ENDBRANCH   3   7
BRANCH   1  20
HETATM   20  C   UNL     1      -4.886   0.251 -32.914  1.00  0.00    -0.060 C 
HETATM   21  C   UNL     1      -5.077  -0.828 -33.405  1.00  0.00    -0.041 C 
BRANCH  21  22
HETATM   22  C   UNL     1      -5.318  -2.129 -33.938  1.00  0.00     0.110 A 
HETATM   23  C   UNL     1      -6.556  -2.466 -34.466  1.00  0.00     0.041 A 
HETATM   24  C   UNL     1      -6.737  -3.760 -34.945  1.00  0.00     0.004 A 
HETATM   25  C   UNL     1      -5.681  -4.663 -34.875  1.00  0.00     0.019 A 
HETATM   26  C   UNL     1      -4.481  -4.231 -34.330  1.00  0.00     0.118 A 
HETATM   27  N   UNL     1      -4.274  -2.982 -33.859  1.00  0.00    -0.252 NA
ENDBRANCH  21  22
ENDBRANCH   1  20
TORSDOF 6
ENDMDL
MODEL 3
REMARK VINA RESULT:      -8.5      2.504      4.085
REMARK  6 active torsions:
REMARK  status: ('A' for Active; 'I' for Inactive)
REMARK    1  A    between atoms: C_3  and  C_4 
REMARK    2  A    between atoms: C_5  and  C_6 
REMARK    3  A    between atoms: C_8  and  N_9 
REMARK       I    between atoms: N_9  and  C_10 
REMARK    4  A    between atoms: C_10  and  C_11 
REMARK    5  A    between atoms: C_11  and  C_12 
REMARK    6  A    between atoms: C_15  and  O_16 
ROOT
HETATM    1  C   UNL     1      -5.339   4.140 -32.306  1.00  0.00     0.020 A 
HETATM    2  C   UNL     1      -5.299   2.964 -33.065  1.00  0.00     0.050 A 
HETATM    3  C   UNL     1      -6.479   2.385 -33.533  1.00  0.00     0.036 A 
HETATM    4  C   UNL     1      -7.702   3.004 -33.240  1.00  0.00     0.029 A 
HETATM    5  C   UNL     1      -7.742   4.188 -32.499  1.00  0.00     0.004 A 
HETATM    6  C   UNL     1      -6.558   4.755 -32.028  1.00  0.00     0.021 A 
ENDROOT
BRANCH   3   7
HETATM    7  N   UNL     1      -6.524   1.173 -34.251  1.00  0.00    -0.327 N 
HETATM    8  C   UNL     1      -6.992  -0.053 -33.804  1.00  0.00     0.226 C 
HETATM    9  O   UNL     1      -7.317  -0.333 -32.653  1.00  0.00    -0.273 OA
HETATM   10  H   UNL     1      -6.198   1.215 -35.209  1.00  0.00     0.169 HD
BRANCH   8  11
HETATM   11  C   UNL     1      -7.105  -1.083 -34.917  1.00  0.00     0.141 C 
BRANCH  11  12
HETATM   12  C   UNL     1      -6.242  -2.291 -34.644  1.00  0.00    -0.049 A 
HETATM   13  C   UNL     1      -4.936  -2.147 -34.155  1.00  0.00     0.010 A 
HETATM   14  C   UNL     1      -4.133  -3.271 -33.955  1.00  0.00     0.037 A 
HETATM   15  C   UNL     1      -4.629  -4.536 -34.244  1.00  0.00     0.065 A 
HETATM   16  C   UNL     1      -5.923  -4.701 -34.724  1.00  0.00     0.037 A 
HETATM   17  C   UNL     1      -6.727  -3.578 -34.924  1.00  0.00     0.010 A 
BRANCH  15  18
HETATM   18  O   UNL     1      -3.805  -5.603 -34.044  1.00  0.00    -0.361 OA
HETATM   19  H   UNL     1      -3.913  -6.219 -34.788  1.00  0.00     0.217 HD
ENDBRANCH  15  18
ENDBRANCH  11  12
ENDBRANCH   8  11
ENDBRANCH   3   7
BRANCH   1  20
HETATM   20  C   UNL     1      -4.123   4.682 -31.783  1.00  0.00    -0.060 C 
HETATM   21  C   UNL     1      -3.092   5.160 -31.394  1.00  0.00    -0.041 C 
BRANCH  21  22
HETATM   22  C   UNL     1      -1.864   5.757 -30.979  1.00  0.00     0.110 A 
HETATM   23  C   UNL     1      -0.651   5.322 -31.493  1.00  0.00     0.041 A 
HETATM   24  C   UNL     1       0.514   5.926 -31.028  1.00  0.00     0.004 A 
HETATM   25  C   UNL     1       0.422   6.932 -30.071  1.00  0.00     0.019 A 
HETATM   26  C   UNL     1      -0.838   7.297 -29.620  1.00  0.00     0.118 A 
HETATM   27  N   UNL     1      -1.986   6.732 -30.053  1.00  0.00    -0.252 NA
ENDBRANCH  21  22
ENDBRANCH   1  20
TORSDOF 6
ENDMDL
MODEL 4
REMARK VINA RESULT:      -8.3      6.530     10.010
REMARK  6 active torsions:
REMARK  status: ('A' for Active; 'I' for Inactive)
REMARK    1  A    between atoms: C_3  and  C_4 
REMARK    2  A    between atoms: C_5  and  C_6 
REMARK    3  A    between atoms: C_8  and  N_9 
REMARK       I    between atoms: N_9  and  C_10 
REMARK    4  A    between atoms: C_10  and  C_11 
REMARK    5  A    between atoms: C_11  and  C_12 
REMARK    6  A    between atoms: C_15  and  O_16 
ROOT
HETATM    1  C   UNL     1      -6.718   1.608 -33.665  1.00  0.00     0.020 A 
HETATM    2  C   UNL     1      -8.039   2.065 -33.761  1.00  0.00     0.050 A 
HETATM    3  C   UNL     1      -8.353   3.387 -33.442  1.00  0.00     0.036 A 
HETATM    4  C   UNL     1      -7.327   4.250 -33.036  1.00  0.00     0.029 A 
HETATM    5  C   UNL     1      -6.006   3.800 -32.958  1.00  0.00     0.004 A 
HETATM    6  C   UNL     1      -5.702   2.476 -33.270  1.00  0.00     0.021 A 
ENDROOT
BRANCH   3   7
HETATM    7  N   UNL     1      -9.665   3.904 -33.458  1.00  0.00    -0.327 N 
HETATM    8  C   UNL     1     -10.238   4.712 -34.427  1.00  0.00     0.226 C 
HETATM    9  O   UNL     1      -9.659   5.242 -35.371  1.00  0.00    -0.273 OA
HETATM   10  H   UNL     1     -10.256   3.628 -32.683  1.00  0.00     0.169 HD
BRANCH   8  11
HETATM   11  C   UNL     1     -11.738   4.887 -34.236  1.00  0.00     0.141 C 
BRANCH  11  12
HETATM   12  C   UNL     1     -12.448   3.557 -34.180  1.00  0.00    -0.049 A 
HETATM   13  C   UNL     1     -12.127   2.531 -35.079  1.00  0.00     0.010 A 
HETATM   14  C   UNL     1     -12.828   1.323 -35.047  1.00  0.00     0.037 A 
HETATM   15  C   UNL     1     -13.848   1.140 -34.121  1.00  0.00     0.065 A 
HETATM   16  C   UNL     1     -14.178   2.144 -33.217  1.00  0.00     0.037 A 
HETATM   17  C   UNL     1     -13.477   3.350 -33.249  1.00  0.00     0.010 A 
BRANCH  15  18
HETATM   18  O   UNL     1     -14.512  -0.050 -34.133  1.00  0.00    -0.361 OA
HETATM   19  H   UNL     1     -14.280  -0.522 -34.951  1.00  0.00     0.217 HD
ENDBRANCH  15  18
ENDBRANCH  11  12
ENDBRANCH   8  11
ENDBRANCH   3   7
BRANCH   1  20
HETATM   20  C   UNL     1      -6.428   0.233 -33.934  1.00  0.00    -0.060 C 
HETATM   21  C   UNL     1      -6.146  -0.919 -34.121  1.00  0.00    -0.041 C 
BRANCH  21  22
HETATM   22  C   UNL     1      -5.779  -2.286 -34.296  1.00  0.00     0.110 A 
HETATM   23  C   UNL     1      -6.689  -3.213 -34.785  1.00  0.00     0.041 A 
HETATM   24  C   UNL     1      -6.278  -4.537 -34.906  1.00  0.00     0.004 A 
HETATM   25  C   UNL     1      -4.983  -4.882 -34.534  1.00  0.00     0.019 A 
HETATM   26  C   UNL     1      -4.147  -3.884 -34.057  1.00  0.00     0.118 A 
HETATM   27  N   UNL     1      -4.515  -2.591 -33.929  1.00  0.00    -0.252 NA
ENDBRANCH  21  22
ENDBRANCH   1  20
TORSDOF 6
ENDMDL
MODEL 5
REMARK VINA RESULT:      -8.1      3.305      9.667
REMARK  6 active torsions:
REMARK  status: ('A' for Active; 'I' for Inactive)
REMARK    1  A    between atoms: C_3  and  C_4 
REMARK    2  A    between atoms: C_5  and  C_6 
REMARK    3  A    between atoms: C_8  and  N_9 
REMARK       I    between atoms: N_9  and  C_10 
REMARK    4  A    between atoms: C_10  and  C_11 
REMARK    5  A    between atoms: C_11  and  C_12 
REMARK    6  A    between atoms: C_15  and  O_16 
ROOT
HETATM    1  C   UNL     1      -6.059   2.303 -33.330  1.00  0.00     0.020 A 
HETATM    2  C   UNL     1      -4.950   3.119 -33.068  1.00  0.00     0.050 A 
HETATM    3  C   UNL     1      -5.117   4.487 -32.850  1.00  0.00     0.036 A 
HETATM    4  C   UNL     1      -6.408   5.029 -32.887  1.00  0.00     0.029 A 
HETATM    5  C   UNL     1      -7.517   4.213 -33.130  1.00  0.00     0.004 A 
HETATM    6  C   UNL     1      -7.341   2.849 -33.355  1.00  0.00     0.021 A 
ENDROOT
BRANCH   3   7
HETATM    7  N   UNL     1      -4.046   5.380 -32.640  1.00  0.00    -0.327 N 
HETATM    8  C   UNL     1      -3.328   6.074 -33.602  1.00  0.00     0.226 C 
HETATM    9  O   UNL     1      -3.403   5.921 -34.818  1.00  0.00    -0.273 OA
HETATM   10  H   UNL     1      -3.796   5.548 -31.673  1.00  0.00     0.169 HD
BRANCH   8  11
HETATM   11  C   UNL     1      -2.401   7.121 -33.005  1.00  0.00     0.141 C 
BRANCH  11  12
HETATM   12  C   UNL     1      -1.592   6.558 -31.862  1.00  0.00    -0.049 A 
HETATM   13  C   UNL     1      -1.756   7.040 -30.556  1.00  0.00     0.010 A 
HETATM   14  C   UNL     1      -0.965   6.543 -29.518  1.00  0.00     0.037 A 
HETATM   15  C   UNL     1      -0.011   5.568 -29.782  1.00  0.00     0.065 A 
HETATM   16  C   UNL     1       0.163   5.072 -31.069  1.00  0.00     0.037 A 
HETATM   17  C   UNL     1      -0.627   5.568 -32.107  1.00  0.00     0.010 A 
BRANCH  15  18
HETATM   18  O   UNL     1       0.746   5.121 -28.740  1.00  0.00    -0.361 OA
HETATM   19  H   UNL     1       0.868   4.162 -28.839  1.00  0.00     0.217 HD
ENDBRANCH  15  18
ENDBRANCH  11  12
ENDBRANCH   8  11
ENDBRANCH   3   7
BRANCH   1  20
HETATM   20  C   UNL     1      -5.860   0.916 -33.614  1.00  0.00    -0.060 C 
HETATM   21  C   UNL     1      -5.748  -0.258 -33.844  1.00  0.00    -0.041 C 
BRANCH  21  22
HETATM   22  C   UNL     1      -5.671  -1.655 -34.119  1.00  0.00     0.110 A 
HETATM   23  C   UNL     1      -4.465  -2.335 -34.027  1.00  0.00     0.041 A 
HETATM   24  C   UNL     1      -4.450  -3.692 -34.335  1.00  0.00     0.004 A 
HETATM   25  C   UNL     1      -5.633  -4.313 -34.723  1.00  0.00     0.019 A 
HETATM   26  C   UNL     1      -6.788  -3.548 -34.784  1.00  0.00     0.118 A 
HETATM   27  N   UNL     1      -6.835  -2.231 -34.490  1.00  0.00    -0.252 NA
ENDBRANCH  21  22
ENDBRANCH   1  20
TORSDOF 6
ENDMDL
MODEL 6
REMARK VINA RESULT:      -8.0      4.342      6.701
REMARK  6 active torsions:
REMARK  status: ('A' for Active; 'I' for Inactive)
REMARK    1  A    between atoms: C_3  and  C_4 
REMARK    2  A    between atoms: C_5  and  C_6 
REMARK    3  A    between atoms: C_8  and  N_9 
REMARK       I    between atoms: N_9  and  C_10 
REMARK    4  A    between atoms: C_10  and  C_11 
REMARK    5  A    between atoms: C_11  and  C_12 
REMARK    6  A    between atoms: C_15  and  O_16 
ROOT
HETATM    1  C   UNL     1      -4.367   1.462 -32.465  1.00  0.00     0.020 A 
HETATM    2  C   UNL     1      -5.761   1.583 -32.404  1.00  0.00     0.050 A 
HETATM    3  C   UNL     1      -6.568   0.445 -32.362  1.00  0.00     0.036 A 
HETATM    4  C   UNL     1      -5.961  -0.818 -32.371  1.00  0.00     0.029 A 
HETATM    5  C   UNL     1      -4.569  -0.940 -32.412  1.00  0.00     0.004 A 
HETATM    6  C   UNL     1      -3.771   0.202 -32.462  1.00  0.00     0.021 A 
ENDROOT
BRANCH   3   7
HETATM    7  N   UNL     1      -7.977   0.485 -32.360  1.00  0.00    -0.327 N 
HETATM    8  C   UNL     1      -8.820   0.452 -33.460  1.00  0.00     0.226 C 
HETATM    9  O   UNL     1      -8.485   0.529 -34.638  1.00  0.00    -0.273 OA
HETATM   10  H   UNL     1      -8.416   0.517 -31.448  1.00  0.00     0.169 HD
BRANCH   8  11
HETATM   11  C   UNL     1     -10.283   0.279 -33.076  1.00  0.00     0.141 C 
BRANCH  11  12
HETATM   12  C   UNL     1     -11.126   1.427 -33.574  1.00  0.00    -0.049 A 
HETATM   13  C   UNL     1     -12.135   1.221 -34.524  1.00  0.00     0.010 A 
HETATM   14  C   UNL     1     -12.873   2.301 -35.012  1.00  0.00     0.037 A 
HETATM   15  C   UNL     1     -12.604   3.585 -34.555  1.00  0.00     0.065 A 
HETATM   16  C   UNL     1     -11.611   3.811 -33.608  1.00  0.00     0.037 A 
HETATM   17  C   UNL     1     -10.874   2.731 -33.120  1.00  0.00     0.010 A 
BRANCH  15  18
HETATM   18  O   UNL     1     -13.342   4.610 -35.067  1.00  0.00    -0.361 OA
HETATM   19  H   UNL     1     -14.283   4.374 -35.001  1.00  0.00     0.217 HD
ENDBRANCH  15  18
ENDBRANCH  11  12
ENDBRANCH   8  11
ENDBRANCH   3   7
BRANCH   1  20
HETATM   20  C   UNL     1      -3.563   2.640 -32.571  1.00  0.00    -0.060 C 
HETATM   21  C   UNL     1      -2.934   3.659 -32.663  1.00  0.00    -0.041 C 
BRANCH  21  22
HETATM   22  C   UNL     1      -2.235   4.898 -32.765  1.00  0.00     0.110 A 
HETATM   23  C   UNL     1      -1.187   5.199 -31.906  1.00  0.00     0.041 A 
HETATM   24  C   UNL     1      -0.564   6.437 -32.038  1.00  0.00     0.004 A 
HETATM   25  C   UNL     1      -1.010   7.321 -33.015  1.00  0.00     0.019 A 
HETATM   26  C   UNL     1      -2.064   6.927 -33.826  1.00  0.00     0.118 A 
HETATM   27  N   UNL     1      -2.688   5.734 -33.724  1.00  0.00    -0.252 NA
ENDBRANCH  21  22
ENDBRANCH   1  20
TORSDOF 6
ENDMDL
MODEL 7
REMARK VINA RESULT:      -7.9      4.157      9.629
REMARK  6 active torsions:
REMARK  status: ('A' for Active; 'I' for Inactive)
REMARK    1  A    between atoms: C_3  and  C_4 
REMARK    2  A    between atoms: C_5  and  C_6 
REMARK    3  A    between atoms: C_8  and  N_9 
REMARK       I    between atoms: N_9  and  C_10 
REMARK    4  A    between atoms: C_10  and  C_11 
REMARK    5  A    between atoms: C_11  and  C_12 
REMARK    6  A    between atoms: C_15  and  O_16 
ROOT
HETATM    1  C   UNL     1      -6.969   1.359 -33.156  1.00  0.00     0.020 A 
HETATM    2  C   UNL     1      -6.038   2.315 -32.728  1.00  0.00     0.050 A 
HETATM    3  C   UNL     1      -6.451   3.610 -32.413  1.00  0.00     0.036 A 
HETATM    4  C   UNL     1      -7.809   3.936 -32.522  1.00  0.00     0.029 A 
HETATM    5  C   UNL     1      -8.742   2.978 -32.931  1.00  0.00     0.004 A 
HETATM    6  C   UNL     1      -8.319   1.689 -33.252  1.00  0.00     0.021 A 
ENDROOT
BRANCH   3   7
HETATM    7  N   UNL     1      -5.567   4.641 -32.033  1.00  0.00    -0.327 N 
HETATM    8  C   UNL     1      -5.063   4.891 -30.766  1.00  0.00     0.226 C 
HETATM    9  O   UNL     1      -5.413   4.348 -29.721  1.00  0.00    -0.273 OA
HETATM   10  H   UNL     1      -5.249   5.247 -32.779  1.00  0.00     0.169 HD
BRANCH   8  11
HETATM   11  C   UNL     1      -3.959   5.938 -30.766  1.00  0.00     0.141 C 
BRANCH  11  12
HETATM   12  C   UNL     1      -3.121   5.858 -32.019  1.00  0.00    -0.049 A 
HETATM   13  C   UNL     1      -2.576   4.639 -32.445  1.00  0.00     0.010 A 
HETATM   14  C   UNL     1      -1.762   4.591 -33.579  1.00  0.00     0.037 A 
HETATM   15  C   UNL     1      -1.491   5.756 -34.285  1.00  0.00     0.065 A 
HETATM   16  C   UNL     1      -2.026   6.974 -33.882  1.00  0.00     0.037 A 
HETATM   17  C   UNL     1      -2.840   7.023 -32.750  1.00  0.00     0.010 A 
BRANCH  15  18
HETATM   18  O   UNL     1      -0.682   5.663 -35.379  1.00  0.00    -0.361 OA
HETATM   19  H   UNL     1      -1.177   5.978 -36.154  1.00  0.00     0.217 HD
ENDBRANCH  15  18
ENDBRANCH  11  12
ENDBRANCH   8  11
ENDBRANCH   3   7
BRANCH   1  20
HETATM   20  C   UNL     1      -6.516   0.056 -33.534  1.00  0.00    -0.060 C 
HETATM   21  C   UNL     1      -6.186  -1.058 -33.837  1.00  0.00    -0.041 C 
BRANCH  21  22
HETATM   22  C   UNL     1      -5.847  -2.398 -34.189  1.00  0.00     0.110 A 
HETATM   23  C   UNL     1      -6.802  -3.264 -34.703  1.00  0.00     0.041 A 
HETATM   24  C   UNL     1      -6.415  -4.567 -35.001  1.00  0.00     0.004 A 
HETATM   25  C   UNL     1      -5.098  -4.954 -34.772  1.00  0.00     0.019 A 
HETATM   26  C   UNL     1      -4.217  -4.015 -34.257  1.00  0.00     0.118 A 
HETATM   27  N   UNL     1      -4.562  -2.743 -33.959  1.00  0.00    -0.252 NA
ENDBRANCH  21  22
ENDBRANCH   1  20
TORSDOF 6
ENDMDL
MODEL 8
REMARK VINA RESULT:      -7.9      7.874     10.101
REMARK  6 active torsions:
REMARK  status: ('A' for Active; 'I' for Inactive)
REMARK    1  A    between atoms: C_3  and  C_4 
REMARK    2  A    between atoms: C_5  and  C_6 
REMARK    3  A    between atoms: C_8  and  N_9 
REMARK       I    between atoms: N_9  and  C_10 
REMARK    4  A    between atoms: C_10  and  C_11 
REMARK    5  A    between atoms: C_11  and  C_12 
REMARK    6  A    between atoms: C_15  and  O_16 
ROOT
HETATM    1  C   UNL     1     -11.287   2.819 -34.409  1.00  0.00     0.020 A 
HETATM    2  C   UNL     1     -10.001   2.288 -34.252  1.00  0.00     0.050 A 
HETATM    3  C   UNL     1      -9.825   1.004 -33.734  1.00  0.00     0.036 A 
HETATM    4  C   UNL     1     -10.955   0.253 -33.382  1.00  0.00     0.029 A 
HETATM    5  C   UNL     1     -12.240   0.775 -33.555  1.00  0.00     0.004 A 
HETATM    6  C   UNL     1     -12.406   2.061 -34.066  1.00  0.00     0.021 A 
ENDROOT
BRANCH   3   7
HETATM    7  N   UNL     1      -8.563   0.425 -33.493  1.00  0.00    -0.327 N 
HETATM    8  C   UNL     1      -7.624   0.032 -34.435  1.00  0.00     0.226 C 
HETATM    9  O   UNL     1      -7.787  -0.015 -35.651  1.00  0.00    -0.273 OA
HETATM   10  H   UNL     1      -8.309   0.309 -32.519  1.00  0.00     0.169 HD
BRANCH   8  11
HETATM   11  C   UNL     1      -6.285  -0.336 -33.815  1.00  0.00     0.141 C 
BRANCH  11  12
HETATM   12  C   UNL     1      -5.943  -1.786 -34.056  1.00  0.00    -0.049 A 
HETATM   13  C   UNL     1      -4.628  -2.250 -33.914  1.00  0.00     0.010 A 
HETATM   14  C   UNL     1      -4.319  -3.584 -34.189  1.00  0.00     0.037 A 
HETATM   15  C   UNL     1      -5.320  -4.453 -34.606  1.00  0.00     0.065 A 
HETATM   16  C   UNL     1      -6.631  -4.015 -34.747  1.00  0.00     0.037 A 
HETATM   17  C   UNL     1      -6.940  -2.682 -34.472  1.00  0.00     0.010 A 
BRANCH  15  18
HETATM   18  O   UNL     1      -4.969  -5.743 -34.874  1.00  0.00    -0.361 OA
HETATM   19  H   UNL     1      -4.004  -5.784 -34.978  1.00  0.00     0.217 HD
ENDBRANCH  15  18
ENDBRANCH  11  12
ENDBRANCH   8  11
ENDBRANCH   3   7
BRANCH   1  20
HETATM   20  C   UNL     1     -11.442   4.160 -34.882  1.00  0.00    -0.060 C 
HETATM   21  C   UNL     1     -11.617   5.291 -35.246  1.00  0.00    -0.041 C 
BRANCH  21  22
HETATM   22  C   UNL     1     -11.863   6.640 -35.638  1.00  0.00     0.110 A 
HETATM   23  C   UNL     1     -13.155   7.092 -35.867  1.00  0.00     0.041 A 
HETATM   24  C   UNL     1     -13.326   8.412 -36.275  1.00  0.00     0.004 A 
HETATM   25  C   UNL     1     -12.208   9.223 -36.439  1.00  0.00     0.019 A 
HETATM   26  C   UNL     1     -10.958   8.679 -36.184  1.00  0.00     0.118 A 
HETATM   27  N   UNL     1     -10.759   7.403 -35.786  1.00  0.00    -0.252 NA
ENDBRANCH  21  22
ENDBRANCH   1  20
TORSDOF 6
ENDMDL
MODEL 9
REMARK VINA RESULT:      -7.7      2.137      2.592
REMARK  6 active torsions:
REMARK  status: ('A' for Active; 'I' for Inactive)
REMARK    1  A    between atoms: C_3  and  C_4 
REMARK    2  A    between atoms: C_5  and  C_6 
REMARK    3  A    between atoms: C_8  and  N_9 
REMARK       I    between atoms: N_9  and  C_10 
REMARK    4  A    between atoms: C_10  and  C_11 
REMARK    5  A    between atoms: C_11  and  C_12 
REMARK    6  A    between atoms: C_15  and  O_16 
ROOT
HETATM    1  C   UNL     1      -1.301   5.892 -31.762  1.00  0.00     0.020 A 
HETATM    2  C   UNL     1      -1.965   4.699 -31.449  1.00  0.00     0.050 A 
HETATM    3  C   UNL     1      -2.492   3.898 -32.463  1.00  0.00     0.036 A 
HETATM    4  C   UNL     1      -2.339   4.301 -33.796  1.00  0.00     0.029 A 
HETATM    5  C   UNL     1      -1.660   5.482 -34.111  1.00  0.00     0.004 A 
HETATM    6  C   UNL     1      -1.143   6.281 -33.091  1.00  0.00     0.021 A 
ENDROOT
BRANCH   3   7
HETATM    7  N   UNL     1      -3.223   2.716 -32.225  1.00  0.00    -0.327 N 
HETATM    8  C   UNL     1      -4.517   2.432 -32.632  1.00  0.00     0.226 C 
HETATM    9  O   UNL     1      -5.309   3.216 -33.148  1.00  0.00    -0.273 OA
HETATM   10  H   UNL     1      -2.732   1.989 -31.720  1.00  0.00     0.169 HD
BRANCH   8  11
HETATM   11  C   UNL     1      -4.902   0.978 -32.401  1.00  0.00     0.141 C 
BRANCH  11  12
HETATM   12  C   UNL     1      -6.394   0.777 -32.498  1.00  0.00    -0.049 A 
HETATM   13  C   UNL     1      -7.236   1.099 -31.425  1.00  0.00     0.010 A 
HETATM   14  C   UNL     1      -8.609   0.862 -31.512  1.00  0.00     0.037 A 
HETATM   15  C   UNL     1      -9.142   0.302 -32.667  1.00  0.00     0.065 A 
HETATM   16  C   UNL     1      -8.325  -0.019 -33.746  1.00  0.00     0.037 A 
HETATM   17  C   UNL     1      -6.953   0.219 -33.659  1.00  0.00     0.010 A 
BRANCH  15  18
HETATM   18  O   UNL     1     -10.486   0.078 -32.703  1.00  0.00    -0.361 OA
HETATM   19  H   UNL     1     -10.923   0.737 -32.139  1.00  0.00     0.217 HD
ENDBRANCH  15  18
ENDBRANCH  11  12
ENDBRANCH   8  11
ENDBRANCH   3   7
BRANCH   1  20
HETATM   20  C   UNL     1      -0.824   6.730 -30.705  1.00  0.00    -0.060 C 
HETATM   21  C   UNL     1      -0.453   7.402 -29.782  1.00  0.00    -0.041 C 
BRANCH  21  22
HETATM   22  C   UNL     1      -0.036   8.164 -28.650  1.00  0.00     0.110 A 
HETATM   23  C   UNL     1       1.268   8.089 -28.181  1.00  0.00     0.041 A 
HETATM   24  C   UNL     1       1.605   8.836 -27.055  1.00  0.00     0.004 A 
HETATM   25  C   UNL     1       0.632   9.620 -26.445  1.00  0.00     0.019 A 
HETATM   26  C   UNL     1      -0.643   9.629 -26.990  1.00  0.00     0.118 A 
HETATM   27  N   UNL     1      -1.001   8.918 -28.081  1.00  0.00    -0.252 NA
ENDBRANCH  21  22
ENDBRANCH   1  20
TORSDOF 6
ENDMDL
MODEL 10
REMARK VINA RESULT:      -7.6     18.723     22.301
REMARK  6 active torsions:
REMARK  status: ('A' for Active; 'I' for Inactive)
REMARK    1  A    between atoms: C_3  and  C_4 
REMARK    2  A    between atoms: C_5  and  C_6 
REMARK    3  A    between atoms: C_8  and  N_9 
REMARK       I    between atoms: N_9  and  C_10 
REMARK    4  A    between atoms: C_10  and  C_11 
REMARK    5  A    between atoms: C_11  and  C_12 
REMARK    6  A    between atoms: C_15  and  O_16 
ROOT
HETATM    1  C   UNL     1      -3.105 -14.783 -41.983  1.00  0.00     0.020 A 
HETATM    2  C   UNL     1      -4.232 -14.364 -41.265  1.00  0.00     0.050 A 
HETATM    3  C   UNL     1      -4.111 -13.954 -39.937  1.00  0.00     0.036 A 
HETATM    4  C   UNL     1      -2.845 -13.957 -39.338  1.00  0.00     0.029 A 
HETATM    5  C   UNL     1      -1.716 -14.356 -40.059  1.00  0.00     0.004 A 
HETATM    6  C   UNL     1      -1.847 -14.773 -41.383  1.00  0.00     0.021 A 
ENDROOT
BRANCH   3   7
HETATM    7  N   UNL     1      -5.206 -13.575 -39.133  1.00  0.00    -0.327 N 
HETATM    8  C   UNL     1      -6.039 -12.481 -39.309  1.00  0.00     0.226 C 
HETATM    9  O   UNL     1      -5.881 -11.565 -40.111  1.00  0.00    -0.273 OA
HETATM   10  H   UNL     1      -5.417 -14.191 -38.358  1.00  0.00     0.169 HD
BRANCH   8  11
HETATM   11  C   UNL     1      -7.253 -12.512 -38.392  1.00  0.00     0.141 C 
BRANCH  11  12
HETATM   12  C   UNL     1      -8.500 -12.918 -39.139  1.00  0.00    -0.049 A 
HETATM   13  C   UNL     1      -9.317 -11.959 -39.753  1.00  0.00     0.010 A 
HETATM   14  C   UNL     1     -10.494 -12.346 -40.398  1.00  0.00     0.037 A 
HETATM   15  C   UNL     1     -10.856 -13.687 -40.428  1.00  0.00     0.065 A 
HETATM   16  C   UNL     1     -10.057 -14.655 -39.830  1.00  0.00     0.037 A 
HETATM   17  C   UNL     1      -8.881 -14.268 -39.186  1.00  0.00     0.010 A 
BRANCH  15  18
HETATM   18  O   UNL     1     -12.019 -14.017 -41.058  1.00  0.00    -0.361 OA
HETATM   19  H   UNL     1     -12.155 -14.976 -40.970  1.00  0.00     0.217 HD
ENDBRANCH  15  18
ENDBRANCH  11  12
ENDBRANCH   8  11
ENDBRANCH   3   7
BRANCH   1  20
HETATM   20  C   UNL     1      -3.261 -15.260 -43.323  1.00  0.00    -0.060 C 
HETATM   21  C   UNL     1      -3.337 -15.672 -44.448  1.00  0.00    -0.041 C 
BRANCH  21  22
HETATM   22  C   UNL     1      -3.374 -16.180 -45.781  1.00  0.00     0.110 A 
HETATM   23  C   UNL     1      -4.562 -16.215 -46.498  1.00  0.00     0.041 A 
HETATM   24  C   UNL     1      -4.538 -16.748 -47.783  1.00  0.00     0.004 A 
HETATM   25  C   UNL     1      -3.336 -17.224 -48.298  1.00  0.00     0.019 A 
HETATM   26  C   UNL     1      -2.202 -17.144 -47.504  1.00  0.00     0.118 A 
HETATM   27  N   UNL     1      -2.193 -16.631 -46.254  1.00  0.00    -0.252 NA
ENDBRANCH  21  22
ENDBRANCH   1  20
TORSDOF 6
ENDMDL
