MODEL 1
REMARK VINA RESULT:      -9.3      0.000      0.000
REMARK  7 active torsions:
REMARK  status: ('A' for Active; 'I' for Inactive)
REMARK    1  A    between atoms: C_4  and  C_5 
REMARK    2  A    between atoms: C_5  and  C_6 
REMARK    3  A    between atoms: C_6  and  C_7 
REMARK    4  A    between atoms: C_7  and  N_8 
REMARK    5  A    between atoms: C_12  and  O_13 
REMARK    6  A    between atoms: C_12  and  C_14 
REMARK    7  A    between atoms: C_19  and  C_20 
REMARK       I    between atoms: C_20  and  N_21 
ROOT
HETATM    1  C   UNL     1      -7.433   4.144 -32.546  1.00  0.00    -0.023 A 
HETATM    2  C   UNL     1      -6.570   4.384 -31.450  1.00  0.00     0.024 A 
HETATM    3  C   UNL     1      -5.208   4.668 -31.667  1.00  0.00     0.001 A 
HETATM    4  C   UNL     1      -4.749   4.772 -32.971  1.00  0.00     0.086 A 
HETATM    5  O   UNL     1      -3.408   5.007 -32.987  1.00  0.00    -0.304 OA
HETATM    6  C   UNL     1      -2.987   5.049 -31.682  1.00  0.00     0.144 A 
HETATM    7  C   UNL     1      -4.079   4.900 -30.844  1.00  0.00     0.057 A 
HETATM    8  C   UNL     1      -5.569   4.653 -34.085  1.00  0.00     0.039 A 
HETATM    9  C   UNL     1      -6.919   4.349 -33.844  1.00  0.00     0.013 A 
ENDROOT
BRANCH   1  10
HETATM   10  C   UNL     1      -8.888   3.701 -32.316  1.00  0.00     0.088 C 
HETATM   11  C   UNL     1      -9.074   2.710 -31.152  1.00  0.00     0.071 C 
HETATM   12  C   UNL     1      -8.379   1.386 -31.417  1.00  0.00     0.238 C 
HETATM   13  N   UNL     1      -8.863   0.753 -32.702  1.00  0.00    -0.071 N 
HETATM   14  H   UNL     1      -9.831   0.430 -32.546  1.00  0.00     0.279 HD
HETATM   15  C   UNL     1      -8.903   1.707 -33.882  1.00  0.00     0.238 C 
HETATM   16  C   UNL     1      -9.565   3.025 -33.522  1.00  0.00     0.071 C 
BRANCH  13  17
HETATM   17  C   UNL     1      -8.044  -0.475 -33.097  1.00  0.00     0.235 C 
BRANCH  17  18
HETATM   18  C   UNL     1      -7.505  -0.383 -34.524  1.00  0.00     0.038 C 
BRANCH  18  19
HETATM   19  C   UNL     1      -6.028  -0.826 -34.602  1.00  0.00     0.040 C 
HETATM   20  C   UNL     1      -5.222  -0.205 -33.462  1.00  0.00     0.017 C 
BRANCH  19  21
HETATM   21  C   UNL     1      -5.869  -2.310 -34.599  1.00  0.00     0.057 A 
HETATM   22  O   UNL     1      -4.685  -2.804 -34.140  1.00  0.00    -0.319 OA
HETATM   23  C   UNL     1      -4.749  -4.161 -34.248  1.00  0.00     0.049 A 
HETATM   24  C   UNL     1      -3.546  -4.921 -33.847  1.00  0.00     0.076 C 
HETATM   25  C   UNL     1      -5.975  -4.539 -34.748  1.00  0.00     0.035 A 
HETATM   26  C   UNL     1      -6.700  -3.345 -34.974  1.00  0.00     0.035 A 
ENDBRANCH  19  21
ENDBRANCH  18  19
ENDBRANCH  17  18
ENDBRANCH  13  17
BRANCH  10  27
HETATM   27  O   UNL     1      -9.663   4.857 -32.003  1.00  0.00    -0.385 OA
HETATM   28  H   UNL     1      -9.528   5.111 -31.072  1.00  0.00     0.211 HD
ENDBRANCH  10  27
ENDBRANCH   1  10
BRANCH   6  29
HETATM   29  C   UNL     1      -1.597   5.301 -31.344  1.00  0.00     0.277 C 
HETATM   30  N   UNL     1      -1.218   6.524 -30.752  1.00  0.00    -0.345 N 
HETATM   31  C   UNL     1       0.181   6.675 -30.338  1.00  0.00     0.154 C 
HETATM   32  C   UNL     1      -2.106   7.667 -30.545  1.00  0.00     0.128 C 
HETATM   33  C   UNL     1       0.354   6.952 -28.836  1.00  0.00     0.254 C 
HETATM   34  N   UNL     1      -0.130   8.355 -28.486  1.00  0.00    -0.073 N 
HETATM   35  H   UNL     1       0.050   8.952 -29.303  1.00  0.00     0.279 HD
HETATM   36  C   UNL     1       0.710   8.960 -27.381  1.00  0.00     0.269 C 
HETATM   37  C   UNL     1      -1.598   8.470 -28.151  1.00  0.00     0.236 C 
HETATM   38  C   UNL     1      -2.548   7.735 -29.092  1.00  0.00     0.048 C 
HETATM   39  O   UNL     1      -0.736   4.456 -31.594  1.00  0.00    -0.265 OA
ENDBRANCH   6  29
TORSDOF 7
ENDMDL
MODEL 2
REMARK VINA RESULT:      -9.2      3.887      7.940
REMARK  7 active torsions:
REMARK  status: ('A' for Active; 'I' for Inactive)
REMARK    1  A    between atoms: C_4  and  C_5 
REMARK    2  A    between atoms: C_5  and  C_6 
REMARK    3  A    between atoms: C_6  and  C_7 
REMARK    4  A    between atoms: C_7  and  N_8 
REMARK    5  A    between atoms: C_12  and  O_13 
REMARK    6  A    between atoms: C_12  and  C_14 
REMARK    7  A    between atoms: C_19  and  C_20 
REMARK       I    between atoms: C_20  and  N_21 
ROOT
HETATM    1  C   UNL     1      -6.314   2.930 -31.610  1.00  0.00    -0.023 A 
HETATM    2  C   UNL     1      -7.685   2.829 -31.273  1.00  0.00     0.024 A 
HETATM    3  C   UNL     1      -8.672   3.310 -32.156  1.00  0.00     0.001 A 
HETATM    4  C   UNL     1      -8.276   3.821 -33.382  1.00  0.00     0.086 A 
HETATM    5  O   UNL     1      -9.353   4.275 -34.080  1.00  0.00    -0.304 OA
HETATM    6  C   UNL     1     -10.461   4.065 -33.298  1.00  0.00     0.144 A 
HETATM    7  C   UNL     1     -10.083   3.421 -32.133  1.00  0.00     0.057 A 
HETATM    8  C   UNL     1      -6.956   3.849 -33.812  1.00  0.00     0.039 A 
HETATM    9  C   UNL     1      -5.988   3.383 -32.906  1.00  0.00     0.013 A 
ENDROOT
BRANCH   1  10
HETATM   10  C   UNL     1      -5.226   2.532 -30.598  1.00  0.00     0.088 C 
HETATM   11  C   UNL     1      -3.785   2.688 -31.120  1.00  0.00     0.071 C 
HETATM   12  C   UNL     1      -3.498   1.750 -32.280  1.00  0.00     0.238 C 
HETATM   13  N   UNL     1      -3.745   0.308 -31.900  1.00  0.00    -0.071 N 
HETATM   14  H   UNL     1      -3.002   0.027 -31.241  1.00  0.00     0.279 HD
HETATM   15  C   UNL     1      -5.069   0.074 -31.196  1.00  0.00     0.238 C 
HETATM   16  C   UNL     1      -5.306   1.082 -30.087  1.00  0.00     0.071 C 
BRANCH  13  17
HETATM   17  C   UNL     1      -3.656  -0.638 -33.097  1.00  0.00     0.235 C 
BRANCH  17  18
HETATM   18  C   UNL     1      -4.762  -1.692 -33.091  1.00  0.00     0.038 C 
BRANCH  18  19
HETATM   19  C   UNL     1      -5.520  -1.727 -34.436  1.00  0.00     0.040 C 
HETATM   20  C   UNL     1      -5.916  -3.161 -34.790  1.00  0.00     0.017 C 
BRANCH  19  21
HETATM   21  C   UNL     1      -6.722  -0.842 -34.444  1.00  0.00     0.057 A 
HETATM   22  O   UNL     1      -7.612  -0.998 -33.424  1.00  0.00    -0.319 OA
HETATM   23  C   UNL     1      -8.630  -0.118 -33.642  1.00  0.00     0.049 A 
HETATM   24  C   UNL     1      -9.748  -0.138 -32.677  1.00  0.00     0.076 C 
HETATM   25  C   UNL     1      -8.383   0.618 -34.780  1.00  0.00     0.035 A 
HETATM   26  C   UNL     1      -7.152   0.152 -35.298  1.00  0.00     0.035 A 
ENDBRANCH  19  21
ENDBRANCH  18  19
ENDBRANCH  17  18
ENDBRANCH  13  17
BRANCH  10  27
HETATM   27  O   UNL     1      -5.347   3.379 -29.456  1.00  0.00    -0.385 OA
HETATM   28  H   UNL     1      -5.041   4.279 -29.671  1.00  0.00     0.211 HD
ENDBRANCH  10  27
ENDBRANCH   1  10
BRANCH   6  29
HETATM   29  C   UNL     1     -11.791   4.425 -33.759  1.00  0.00     0.277 C 
HETATM   30  N   UNL     1     -12.074   5.750 -34.153  1.00  0.00    -0.345 N 
HETATM   31  C   UNL     1     -13.402   6.026 -34.708  1.00  0.00     0.154 C 
HETATM   32  C   UNL     1     -11.152   6.878 -34.024  1.00  0.00     0.128 C 
HETATM   33  C   UNL     1     -13.371   6.584 -36.141  1.00  0.00     0.254 C 
HETATM   34  N   UNL     1     -12.828   8.009 -36.153  1.00  0.00    -0.073 N 
HETATM   35  H   UNL     1     -13.109   8.450 -35.267  1.00  0.00     0.279 HD
HETATM   36  C   UNL     1     -13.506   8.838 -37.222  1.00  0.00     0.269 C 
HETATM   37  C   UNL     1     -11.328   8.131 -36.268  1.00  0.00     0.236 C 
HETATM   38  C   UNL     1     -10.520   7.200 -35.368  1.00  0.00     0.048 C 
HETATM   39  O   UNL     1     -12.687   3.581 -33.787  1.00  0.00    -0.265 OA
ENDBRANCH   6  29
TORSDOF 7
ENDMDL
MODEL 3
REMARK VINA RESULT:      -9.2      3.192      9.003
REMARK  7 active torsions:
REMARK  status: ('A' for Active; 'I' for Inactive)
REMARK    1  A    between atoms: C_4  and  C_5 
REMARK    2  A    between atoms: C_5  and  C_6 
REMARK    3  A    between atoms: C_6  and  C_7 
REMARK    4  A    between atoms: C_7  and  N_8 
REMARK    5  A    between atoms: C_12  and  O_13 
REMARK    6  A    between atoms: C_12  and  C_14 
REMARK    7  A    between atoms: C_19  and  C_20 
REMARK       I    between atoms: C_20  and  N_21 
ROOT
HETATM    1  C   UNL     1      -4.789   7.379 -30.032  1.00  0.00    -0.023 A 
HETATM    2  C   UNL     1      -5.146   6.153 -29.422  1.00  0.00     0.024 A 
HETATM    3  C   UNL     1      -5.698   5.110 -30.192  1.00  0.00     0.001 A 
HETATM    4  C   UNL     1      -5.823   5.287 -31.561  1.00  0.00     0.086 A 
HETATM    5  O   UNL     1      -6.412   4.201 -32.131  1.00  0.00    -0.304 OA
HETATM    6  C   UNL     1      -6.681   3.309 -31.123  1.00  0.00     0.144 A 
HETATM    7  C   UNL     1      -6.204   3.815 -29.926  1.00  0.00     0.057 A 
HETATM    8  C   UNL     1      -5.392   6.425 -32.230  1.00  0.00     0.039 A 
HETATM    9  C   UNL     1      -4.864   7.459 -31.439  1.00  0.00     0.013 A 
ENDROOT
BRANCH   1  10
HETATM   10  C   UNL     1      -4.312   8.569 -29.181  1.00  0.00     0.088 C 
HETATM   11  C   UNL     1      -3.249   9.451 -29.862  1.00  0.00     0.071 C 
HETATM   12  C   UNL     1      -1.954   8.694 -30.102  1.00  0.00     0.238 C 
HETATM   13  N   UNL     1      -1.395   8.129 -28.815  1.00  0.00    -0.071 N 
HETATM   14  H   UNL     1      -1.049   8.922 -28.251  1.00  0.00     0.279 HD
HETATM   15  C   UNL     1      -2.420   7.398 -27.967  1.00  0.00     0.238 C 
HETATM   16  C   UNL     1      -3.703   8.196 -27.817  1.00  0.00     0.071 C 
BRANCH  13  17
HETATM   17  C   UNL     1      -0.205   7.199 -29.050  1.00  0.00     0.235 C 
BRANCH  17  18
HETATM   18  C   UNL     1       0.241   7.181 -30.511  1.00  0.00     0.038 C 
BRANCH  18  19
HETATM   19  C   UNL     1       0.457   5.740 -31.021  1.00  0.00     0.040 C 
HETATM   20  C   UNL     1       0.782   4.804 -29.856  1.00  0.00     0.017 C 
BRANCH  19  21
HETATM   21  C   UNL     1      -0.709   5.219 -31.793  1.00  0.00     0.057 A 
HETATM   22  O   UNL     1      -1.388   4.168 -31.254  1.00  0.00    -0.319 OA
HETATM   23  C   UNL     1      -2.385   3.845 -32.126  1.00  0.00     0.049 A 
HETATM   24  C   UNL     1      -3.236   2.691 -31.770  1.00  0.00     0.076 C 
HETATM   25  C   UNL     1      -2.363   4.699 -33.206  1.00  0.00     0.035 A 
HETATM   26  C   UNL     1      -1.282   5.587 -32.992  1.00  0.00     0.035 A 
ENDBRANCH  19  21
ENDBRANCH  18  19
ENDBRANCH  17  18
ENDBRANCH  13  17
BRANCH  10  27
HETATM   27  O   UNL     1      -5.436   9.406 -28.914  1.00  0.00    -0.385 OA
HETATM   28  H   UNL     1      -5.228  10.028 -28.193  1.00  0.00     0.211 HD
ENDBRANCH  10  27
ENDBRANCH   1  10
BRANCH   6  29
HETATM   29  C   UNL     1      -7.301   2.024 -31.396  1.00  0.00     0.277 C 
HETATM   30  N   UNL     1      -8.704   1.916 -31.496  1.00  0.00    -0.345 N 
HETATM   31  C   UNL     1      -9.261   0.615 -31.877  1.00  0.00     0.154 C 
HETATM   32  C   UNL     1      -9.650   2.996 -31.219  1.00  0.00     0.128 C 
HETATM   33  C   UNL     1     -10.095   0.654 -33.169  1.00  0.00     0.254 C 
HETATM   34  N   UNL     1     -11.408   1.396 -32.942  1.00  0.00    -0.073 N 
HETATM   35  H   UNL     1     -11.688   1.227 -31.967  1.00  0.00     0.279 HD
HETATM   36  C   UNL     1     -12.522   0.791 -33.768  1.00  0.00     0.269 C 
HETATM   37  C   UNL     1     -11.353   2.890 -33.149  1.00  0.00     0.236 C 
HETATM   38  C   UNL     1     -10.158   3.599 -32.519  1.00  0.00     0.048 C 
HETATM   39  O   UNL     1      -6.606   1.015 -31.520  1.00  0.00    -0.265 OA
ENDBRANCH   6  29
TORSDOF 7
ENDMDL
MODEL 4
REMARK VINA RESULT:      -9.1      1.889      2.366
REMARK  7 active torsions:
REMARK  status: ('A' for Active; 'I' for Inactive)
REMARK    1  A    between atoms: C_4  and  C_5 
REMARK    2  A    between atoms: C_5  and  C_6 
REMARK    3  A    between atoms: C_6  and  C_7 
REMARK    4  A    between atoms: C_7  and  N_8 
REMARK    5  A    between atoms: C_12  and  O_13 
REMARK    6  A    between atoms: C_12  and  C_14 
REMARK    7  A    between atoms: C_19  and  C_20 
REMARK       I    between atoms: C_20  and  N_21 
ROOT
HETATM    1  C   UNL     1      -8.122   4.788 -31.530  1.00  0.00    -0.023 A 
HETATM    2  C   UNL     1      -7.031   4.703 -30.632  1.00  0.00     0.024 A 
HETATM    3  C   UNL     1      -5.720   4.958 -31.079  1.00  0.00     0.001 A 
HETATM    4  C   UNL     1      -5.531   5.355 -32.394  1.00  0.00     0.086 A 
HETATM    5  O   UNL     1      -4.205   5.514 -32.657  1.00  0.00    -0.304 OA
HETATM    6  C   UNL     1      -3.522   5.210 -31.507  1.00  0.00     0.144 A 
HETATM    7  C   UNL     1      -4.428   4.918 -30.502  1.00  0.00     0.057 A 
HETATM    8  C   UNL     1      -6.570   5.560 -33.291  1.00  0.00     0.039 A 
HETATM    9  C   UNL     1      -7.867   5.279 -32.828  1.00  0.00     0.013 A 
ENDROOT
BRANCH   1  10
HETATM   10  C   UNL     1      -9.537   4.381 -31.086  1.00  0.00     0.088 C 
HETATM   11  C   UNL     1      -9.618   3.001 -30.406  1.00  0.00     0.071 C 
HETATM   12  C   UNL     1      -9.250   1.878 -31.359  1.00  0.00     0.238 C 
HETATM   13  N   UNL     1     -10.126   1.886 -32.592  1.00  0.00    -0.071 N 
HETATM   14  H   UNL     1     -11.072   1.588 -32.304  1.00  0.00     0.279 HD
HETATM   15  C   UNL     1     -10.272   3.254 -33.234  1.00  0.00     0.238 C 
HETATM   16  C   UNL     1     -10.587   4.329 -32.211  1.00  0.00     0.071 C 
BRANCH  13  17
HETATM   17  C   UNL     1      -9.654   0.896 -33.655  1.00  0.00     0.235 C 
BRANCH  17  18
HETATM   18  C   UNL     1      -8.737  -0.183 -33.081  1.00  0.00     0.038 C 
BRANCH  18  19
HETATM   19  C   UNL     1      -7.435  -0.316 -33.899  1.00  0.00     0.040 C 
HETATM   20  C   UNL     1      -7.633   0.231 -35.313  1.00  0.00     0.017 C 
BRANCH  19  21
HETATM   21  C   UNL     1      -6.271   0.353 -33.245  1.00  0.00     0.057 A 
HETATM   22  O   UNL     1      -5.371  -0.453 -32.613  1.00  0.00    -0.319 OA
HETATM   23  C   UNL     1      -4.418   0.358 -32.074  1.00  0.00     0.049 A 
HETATM   24  C   UNL     1      -3.348  -0.296 -31.292  1.00  0.00     0.076 C 
HETATM   25  C   UNL     1      -4.689   1.674 -32.378  1.00  0.00     0.035 A 
HETATM   26  C   UNL     1      -5.884   1.672 -33.135  1.00  0.00     0.035 A 
ENDBRANCH  19  21
ENDBRANCH  18  19
ENDBRANCH  17  18
ENDBRANCH  13  17
BRANCH  10  27
HETATM   27  O   UNL     1     -10.000   5.339 -30.135  1.00  0.00    -0.385 OA
HETATM   28  H   UNL     1     -10.104   4.921 -29.261  1.00  0.00     0.211 HD
ENDBRANCH  10  27
ENDBRANCH   1  10
BRANCH   6  29
HETATM   29  C   UNL     1      -2.073   5.295 -31.442  1.00  0.00     0.277 C 
HETATM   30  N   UNL     1      -1.451   6.430 -30.882  1.00  0.00    -0.345 N 
HETATM   31  C   UNL     1       0.009   6.409 -30.750  1.00  0.00     0.154 C 
HETATM   32  C   UNL     1      -2.147   7.641 -30.448  1.00  0.00     0.128 C 
HETATM   33  C   UNL     1       0.501   6.564 -29.301  1.00  0.00     0.254 C 
HETATM   34  N   UNL     1       0.256   7.982 -28.796  1.00  0.00    -0.073 N 
HETATM   35  H   UNL     1       0.341   8.612 -29.605  1.00  0.00     0.279 HD
HETATM   36  C   UNL     1       1.357   8.421 -27.855  1.00  0.00     0.269 C 
HETATM   37  C   UNL     1      -1.096   8.223 -28.170  1.00  0.00     0.236 C 
HETATM   38  C   UNL     1      -2.288   7.655 -28.935  1.00  0.00     0.048 C 
HETATM   39  O   UNL     1      -1.379   4.386 -31.898  1.00  0.00    -0.265 OA
ENDBRANCH   6  29
TORSDOF 7
ENDMDL
MODEL 5
REMARK VINA RESULT:      -9.0      2.892      9.262
REMARK  7 active torsions:
REMARK  status: ('A' for Active; 'I' for Inactive)
REMARK    1  A    between atoms: C_4  and  C_5 
REMARK    2  A    between atoms: C_5  and  C_6 
REMARK    3  A    between atoms: C_6  and  C_7 
REMARK    4  A    between atoms: C_7  and  N_8 
REMARK    5  A    between atoms: C_12  and  O_13 
REMARK    6  A    between atoms: C_12  and  C_14 
REMARK    7  A    between atoms: C_19  and  C_20 
REMARK       I    between atoms: C_20  and  N_21 
ROOT
HETATM    1  C   UNL     1      -3.066   4.486 -32.805  1.00  0.00    -0.023 A 
HETATM    2  C   UNL     1      -4.196   4.272 -33.628  1.00  0.00     0.024 A 
HETATM    3  C   UNL     1      -5.136   3.276 -33.300  1.00  0.00     0.001 A 
HETATM    4  C   UNL     1      -4.965   2.560 -32.126  1.00  0.00     0.086 A 
HETATM    5  O   UNL     1      -5.939   1.617 -31.995  1.00  0.00    -0.304 OA
HETATM    6  C   UNL     1      -6.748   1.714 -33.099  1.00  0.00     0.144 A 
HETATM    7  C   UNL     1      -6.315   2.762 -33.893  1.00  0.00     0.057 A 
HETATM    8  C   UNL     1      -3.936   2.798 -31.225  1.00  0.00     0.039 A 
HETATM    9  C   UNL     1      -2.999   3.782 -31.584  1.00  0.00     0.013 A 
ENDROOT
BRANCH   1  10
HETATM   10  C   UNL     1      -1.966   5.476 -33.225  1.00  0.00     0.088 C 
HETATM   11  C   UNL     1      -0.748   5.510 -32.282  1.00  0.00     0.071 C 
HETATM   12  C   UNL     1      -1.116   6.014 -30.898  1.00  0.00     0.238 C 
HETATM   13  N   UNL     1      -1.747   7.386 -30.957  1.00  0.00    -0.071 N 
HETATM   14  H   UNL     1      -1.007   8.059 -31.213  1.00  0.00     0.279 HD
HETATM   15  C   UNL     1      -2.841   7.517 -32.001  1.00  0.00     0.238 C 
HETATM   16  C   UNL     1      -2.416   6.944 -33.341  1.00  0.00     0.071 C 
BRANCH  13  17
HETATM   17  C   UNL     1      -2.307   7.834 -29.607  1.00  0.00     0.235 C 
BRANCH  17  18
HETATM   18  C   UNL     1      -3.833   7.791 -29.565  1.00  0.00     0.038 C 
BRANCH  18  19
HETATM   19  C   UNL     1      -4.346   6.500 -28.892  1.00  0.00     0.040 C 
HETATM   20  C   UNL     1      -4.716   6.768 -27.433  1.00  0.00     0.017 C 
BRANCH  19  21
HETATM   21  C   UNL     1      -5.501   5.891 -29.615  1.00  0.00     0.057 A 
HETATM   22  O   UNL     1      -5.794   6.395 -30.847  1.00  0.00    -0.319 OA
HETATM   23  C   UNL     1      -6.883   5.718 -31.308  1.00  0.00     0.049 A 
HETATM   24  C   UNL     1      -7.418   6.128 -32.623  1.00  0.00     0.076 C 
HETATM   25  C   UNL     1      -7.272   4.767 -30.390  1.00  0.00     0.035 A 
HETATM   26  C   UNL     1      -6.380   4.877 -29.297  1.00  0.00     0.035 A 
ENDBRANCH  19  21
ENDBRANCH  18  19
ENDBRANCH  17  18
ENDBRANCH  13  17
BRANCH  10  27
HETATM   27  O   UNL     1      -1.484   5.091 -34.511  1.00  0.00    -0.385 OA
HETATM   28  H   UNL     1      -0.510   5.044 -34.505  1.00  0.00     0.211 HD
ENDBRANCH  10  27
ENDBRANCH   1  10
BRANCH   6  29
HETATM   29  C   UNL     1      -7.906   0.852 -33.265  1.00  0.00     0.277 C 
HETATM   30  N   UNL     1      -9.157   1.229 -32.734  1.00  0.00    -0.345 N 
HETATM   31  C   UNL     1     -10.307   0.368 -33.027  1.00  0.00     0.154 C 
HETATM   32  C   UNL     1      -9.392   2.399 -31.889  1.00  0.00     0.128 C 
HETATM   33  C   UNL     1     -11.442   1.087 -33.775  1.00  0.00     0.254 C 
HETATM   34  N   UNL     1     -12.144   2.087 -32.861  1.00  0.00    -0.073 N 
HETATM   35  H   UNL     1     -12.105   1.707 -31.907  1.00  0.00     0.279 HD
HETATM   36  C   UNL     1     -13.622   2.168 -33.179  1.00  0.00     0.269 C 
HETATM   37  C   UNL     1     -11.539   3.469 -32.827  1.00  0.00     0.236 C 
HETATM   38  C   UNL     1     -10.019   3.520 -32.701  1.00  0.00     0.048 C 
HETATM   39  O   UNL     1      -7.796  -0.225 -33.851  1.00  0.00    -0.265 OA
ENDBRANCH   6  29
TORSDOF 7
ENDMDL
MODEL 6
REMARK VINA RESULT:      -9.0      2.977      9.248
REMARK  7 active torsions:
REMARK  status: ('A' for Active; 'I' for Inactive)
REMARK    1  A    between atoms: C_4  and  C_5 
REMARK    2  A    between atoms: C_5  and  C_6 
REMARK    3  A    between atoms: C_6  and  C_7 
REMARK    4  A    between atoms: C_7  and  N_8 
REMARK    5  A    between atoms: C_12  and  O_13 
REMARK    6  A    between atoms: C_12  and  C_14 
REMARK    7  A    between atoms: C_19  and  C_20 
REMARK       I    between atoms: C_20  and  N_21 
ROOT
HETATM    1  C   UNL     1      -5.857  -0.429 -32.932  1.00  0.00    -0.023 A 
HETATM    2  C   UNL     1      -6.937   0.064 -32.161  1.00  0.00     0.024 A 
HETATM    3  C   UNL     1      -8.119   0.501 -32.791  1.00  0.00     0.001 A 
HETATM    4  C   UNL     1      -8.224   0.378 -34.167  1.00  0.00     0.086 A 
HETATM    5  O   UNL     1      -9.409   0.888 -34.602  1.00  0.00    -0.304 OA
HETATM    6  C   UNL     1     -10.079   1.355 -33.500  1.00  0.00     0.144 A 
HETATM    7  C   UNL     1      -9.338   1.082 -32.364  1.00  0.00     0.057 A 
HETATM    8  C   UNL     1      -7.243  -0.196 -34.964  1.00  0.00     0.039 A 
HETATM    9  C   UNL     1      -6.065  -0.606 -34.316  1.00  0.00     0.013 A 
ENDROOT
BRANCH   1  10
HETATM   10  C   UNL     1      -4.516  -0.783 -32.267  1.00  0.00     0.088 C 
HETATM   11  C   UNL     1      -4.394  -0.327 -30.801  1.00  0.00     0.071 C 
HETATM   12  C   UNL     1      -4.422   1.186 -30.673  1.00  0.00     0.238 C 
HETATM   13  N   UNL     1      -3.330   1.832 -31.495  1.00  0.00    -0.071 N 
HETATM   14  H   UNL     1      -2.429   1.620 -31.039  1.00  0.00     0.279 HD
HETATM   15  C   UNL     1      -3.238   1.308 -32.917  1.00  0.00     0.238 C 
HETATM   16  C   UNL     1      -3.269  -0.209 -32.964  1.00  0.00     0.071 C 
BRANCH  13  17
HETATM   17  C   UNL     1      -3.455   3.355 -31.545  1.00  0.00     0.235 C 
BRANCH  17  18
HETATM   18  C   UNL     1      -3.469   3.892 -32.975  1.00  0.00     0.038 C 
BRANCH  18  19
HETATM   19  C   UNL     1      -2.077   4.405 -33.403  1.00  0.00     0.040 C 
HETATM   20  C   UNL     1      -2.176   5.196 -34.707  1.00  0.00     0.017 C 
BRANCH  19  21
HETATM   21  C   UNL     1      -1.415   5.228 -32.348  1.00  0.00     0.057 A 
HETATM   22  O   UNL     1      -0.580   4.577 -31.489  1.00  0.00    -0.319 OA
HETATM   23  C   UNL     1      -0.111   5.504 -30.607  1.00  0.00     0.049 A 
HETATM   24  C   UNL     1       0.788   5.016 -29.541  1.00  0.00     0.076 C 
HETATM   25  C   UNL     1      -0.621   6.747 -30.911  1.00  0.00     0.035 A 
HETATM   26  C   UNL     1      -1.462   6.570 -32.035  1.00  0.00     0.035 A 
ENDBRANCH  19  21
ENDBRANCH  18  19
ENDBRANCH  17  18
ENDBRANCH  13  17
BRANCH  10  27
HETATM   27  O   UNL     1      -4.374  -2.202 -32.273  1.00  0.00    -0.385 OA
HETATM   28  H   UNL     1      -4.473  -2.546 -33.179  1.00  0.00     0.211 HD
ENDBRANCH  10  27
ENDBRANCH   1  10
BRANCH   6  29
HETATM   29  C   UNL     1     -11.398   1.953 -33.614  1.00  0.00     0.277 C 
HETATM   30  N   UNL     1     -11.543   3.355 -33.664  1.00  0.00    -0.345 N 
HETATM   31  C   UNL     1     -12.889   3.893 -33.886  1.00  0.00     0.154 C 
HETATM   32  C   UNL     1     -10.457   4.318 -33.482  1.00  0.00     0.128 C 
HETATM   33  C   UNL     1     -13.008   4.758 -35.152  1.00  0.00     0.254 C 
HETATM   34  N   UNL     1     -12.271   6.082 -34.973  1.00  0.00    -0.073 N 
HETATM   35  H   UNL     1     -12.336   6.335 -33.978  1.00  0.00     0.279 HD
HETATM   36  C   UNL     1     -12.983   7.203 -35.698  1.00  0.00     0.269 C 
HETATM   37  C   UNL     1     -10.807   6.064 -35.344  1.00  0.00     0.236 C 
HETATM   38  C   UNL     1     -10.011   4.870 -34.827  1.00  0.00     0.048 C 
HETATM   39  O   UNL     1     -12.401   1.239 -33.645  1.00  0.00    -0.265 OA
ENDBRANCH   6  29
TORSDOF 7
ENDMDL
MODEL 7
REMARK VINA RESULT:      -8.9      2.374      8.758
REMARK  7 active torsions:
REMARK  status: ('A' for Active; 'I' for Inactive)
REMARK    1  A    between atoms: C_4  and  C_5 
REMARK    2  A    between atoms: C_5  and  C_6 
REMARK    3  A    between atoms: C_6  and  C_7 
REMARK    4  A    between atoms: C_7  and  N_8 
REMARK    5  A    between atoms: C_12  and  O_13 
REMARK    6  A    between atoms: C_12  and  C_14 
REMARK    7  A    between atoms: C_19  and  C_20 
REMARK       I    between atoms: C_20  and  N_21 
ROOT
HETATM    1  C   UNL     1      -4.442   7.486 -29.030  1.00  0.00    -0.023 A 
HETATM    2  C   UNL     1      -4.705   6.129 -28.726  1.00  0.00     0.024 A 
HETATM    3  C   UNL     1      -5.340   5.299 -29.671  1.00  0.00     0.001 A 
HETATM    4  C   UNL     1      -5.641   5.821 -30.920  1.00  0.00     0.086 A 
HETATM    5  O   UNL     1      -6.286   4.895 -31.680  1.00  0.00    -0.304 OA
HETATM    6  C   UNL     1      -6.415   3.761 -30.918  1.00  0.00     0.144 A 
HETATM    7  C   UNL     1      -5.794   3.958 -29.697  1.00  0.00     0.057 A 
HETATM    8  C   UNL     1      -5.311   7.111 -31.312  1.00  0.00     0.039 A 
HETATM    9  C   UNL     1      -4.697   7.926 -30.346  1.00  0.00     0.013 A 
ENDROOT
BRANCH   1  10
HETATM   10  C   UNL     1      -3.873   8.433 -27.960  1.00  0.00     0.088 C 
HETATM   11  C   UNL     1      -2.899   9.495 -28.504  1.00  0.00     0.071 C 
HETATM   12  C   UNL     1      -1.639   8.868 -29.076  1.00  0.00     0.238 C 
HETATM   13  N   UNL     1      -0.931   8.012 -28.050  1.00  0.00    -0.071 N 
HETATM   14  H   UNL     1      -0.524   8.644 -27.343  1.00  0.00     0.279 HD
HETATM   15  C   UNL     1      -1.847   7.054 -27.309  1.00  0.00     0.238 C 
HETATM   16  C   UNL     1      -3.106   7.743 -26.816  1.00  0.00     0.071 C 
BRANCH  13  17
HETATM   17  C   UNL     1       0.226   7.213 -28.649  1.00  0.00     0.235 C 
BRANCH  17  18
HETATM   18  C   UNL     1       0.243   7.268 -30.176  1.00  0.00     0.038 C 
BRANCH  18  19
HETATM   19  C   UNL     1       0.472   5.870 -30.791  1.00  0.00     0.040 C 
HETATM   20  C   UNL     1       0.817   4.856 -29.701  1.00  0.00     0.017 C 
BRANCH  19  21
HETATM   21  C   UNL     1      -0.695   5.393 -31.590  1.00  0.00     0.057 A 
HETATM   22  O   UNL     1      -0.595   5.486 -32.946  1.00  0.00    -0.319 OA
HETATM   23  C   UNL     1      -1.766   5.024 -33.467  1.00  0.00     0.049 A 
HETATM   24  C   UNL     1      -1.909   5.071 -34.937  1.00  0.00     0.076 C 
HETATM   25  C   UNL     1      -2.604   4.612 -32.454  1.00  0.00     0.035 A 
HETATM   26  C   UNL     1      -1.913   4.849 -31.242  1.00  0.00     0.035 A 
ENDBRANCH  19  21
ENDBRANCH  18  19
ENDBRANCH  17  18
ENDBRANCH  13  17
BRANCH  10  27
HETATM   27  O   UNL     1      -4.960   9.136 -27.361  1.00  0.00    -0.385 OA
HETATM   28  H   UNL     1      -5.808   8.773 -27.674  1.00  0.00     0.211 HD
ENDBRANCH  10  27
ENDBRANCH   1  10
BRANCH   6  29
HETATM   29  C   UNL     1      -7.051   2.565 -31.444  1.00  0.00     0.277 C 
HETATM   30  N   UNL     1      -6.377   1.751 -32.377  1.00  0.00    -0.345 N 
HETATM   31  C   UNL     1      -7.029   0.503 -32.787  1.00  0.00     0.154 C 
HETATM   32  C   UNL     1      -5.087   2.067 -32.990  1.00  0.00     0.128 C 
HETATM   33  C   UNL     1      -6.204  -0.757 -32.477  1.00  0.00     0.254 C 
HETATM   34  N   UNL     1      -4.982  -0.840 -33.386  1.00  0.00    -0.073 N 
HETATM   35  H   UNL     1      -5.240  -0.411 -34.284  1.00  0.00     0.279 HD
HETATM   36  C   UNL     1      -4.657  -2.277 -33.729  1.00  0.00     0.269 C 
HETATM   37  C   UNL     1      -3.749  -0.130 -32.880  1.00  0.00     0.236 C 
HETATM   38  C   UNL     1      -3.976   1.272 -32.323  1.00  0.00     0.048 C 
HETATM   39  O   UNL     1      -8.194   2.268 -31.095  1.00  0.00    -0.265 OA
ENDBRANCH   6  29
TORSDOF 7
ENDMDL
MODEL 8
REMARK VINA RESULT:      -8.7      2.169      4.983
REMARK  7 active torsions:
REMARK  status: ('A' for Active; 'I' for Inactive)
REMARK    1  A    between atoms: C_4  and  C_5 
REMARK    2  A    between atoms: C_5  and  C_6 
REMARK    3  A    between atoms: C_6  and  C_7 
REMARK    4  A    between atoms: C_7  and  N_8 
REMARK    5  A    between atoms: C_12  and  O_13 
REMARK    6  A    between atoms: C_12  and  C_14 
REMARK    7  A    between atoms: C_19  and  C_20 
REMARK       I    between atoms: C_20  and  N_21 
ROOT
HETATM    1  C   UNL     1      -6.104   1.550 -33.239  1.00  0.00    -0.023 A 
HETATM    2  C   UNL     1      -5.038   1.641 -32.313  1.00  0.00     0.024 A 
HETATM    3  C   UNL     1      -4.193   2.768 -32.310  1.00  0.00     0.001 A 
HETATM    4  C   UNL     1      -4.467   3.808 -33.185  1.00  0.00     0.086 A 
HETATM    5  O   UNL     1      -3.527   4.786 -33.073  1.00  0.00    -0.304 OA
HETATM    6  C   UNL     1      -2.627   4.377 -32.121  1.00  0.00     0.144 A 
HETATM    7  C   UNL     1      -3.039   3.166 -31.593  1.00  0.00     0.057 A 
HETATM    8  C   UNL     1      -5.560   3.822 -34.041  1.00  0.00     0.039 A 
HETATM    9  C   UNL     1      -6.376   2.679 -34.041  1.00  0.00     0.013 A 
ENDROOT
BRANCH   1  10
HETATM   10  C   UNL     1      -6.948   0.267 -33.341  1.00  0.00     0.088 C 
HETATM   11  C   UNL     1      -7.882   0.216 -34.564  1.00  0.00     0.071 C 
HETATM   12  C   UNL     1      -8.950   1.294 -34.507  1.00  0.00     0.238 C 
HETATM   13  N   UNL     1      -9.770   1.196 -33.241  1.00  0.00    -0.071 N 
HETATM   14  H   UNL     1     -10.358   0.351 -33.315  1.00  0.00     0.279 HD
HETATM   15  C   UNL     1      -8.939   1.046 -31.979  1.00  0.00     0.238 C 
HETATM   16  C   UNL     1      -7.862  -0.012 -32.134  1.00  0.00     0.071 C 
BRANCH  13  17
HETATM   17  C   UNL     1     -10.718   2.381 -33.061  1.00  0.00     0.235 C 
BRANCH  17  18
HETATM   18  C   UNL     1     -10.206   3.387 -32.032  1.00  0.00     0.038 C 
BRANCH  18  19
HETATM   19  C   UNL     1      -9.617   4.643 -32.709  1.00  0.00     0.040 C 
HETATM   20  C   UNL     1     -10.662   5.757 -32.773  1.00  0.00     0.017 C 
BRANCH  19  21
HETATM   21  C   UNL     1      -8.378   5.134 -32.037  1.00  0.00     0.057 A 
HETATM   22  O   UNL     1      -7.818   4.318 -31.100  1.00  0.00    -0.319 OA
HETATM   23  C   UNL     1      -6.726   4.966 -30.605  1.00  0.00     0.049 A 
HETATM   24  C   UNL     1      -5.975   4.285 -29.530  1.00  0.00     0.076 C 
HETATM   25  C   UNL     1      -6.570   6.180 -31.238  1.00  0.00     0.035 A 
HETATM   26  C   UNL     1      -7.635   6.289 -32.163  1.00  0.00     0.035 A 
ENDBRANCH  19  21
ENDBRANCH  18  19
ENDBRANCH  17  18
ENDBRANCH  13  17
BRANCH  10  27
HETATM   27  O   UNL     1      -6.060  -0.844 -33.451  1.00  0.00    -0.385 OA
HETATM   28  H   UNL     1      -5.284  -0.713 -32.875  1.00  0.00     0.211 HD
ENDBRANCH  10  27
ENDBRANCH   1  10
BRANCH   6  29
HETATM   29  C   UNL     1      -1.496   5.208 -31.744  1.00  0.00     0.277 C 
HETATM   30  N   UNL     1      -1.705   6.463 -31.136  1.00  0.00    -0.345 N 
HETATM   31  C   UNL     1      -0.524   7.205 -30.684  1.00  0.00     0.154 C 
HETATM   32  C   UNL     1      -3.009   7.097 -30.947  1.00  0.00     0.128 C 
HETATM   33  C   UNL     1      -0.522   7.505 -29.176  1.00  0.00     0.254 C 
HETATM   34  N   UNL     1      -1.580   8.548 -28.832  1.00  0.00    -0.073 N 
HETATM   35  H   UNL     1      -1.663   9.177 -29.641  1.00  0.00     0.279 HD
HETATM   36  C   UNL     1      -1.115   9.441 -27.702  1.00  0.00     0.269 C 
HETATM   37  C   UNL     1      -2.956   8.002 -28.536  1.00  0.00     0.236 C 
HETATM   38  C   UNL     1      -3.467   6.941 -29.506  1.00  0.00     0.048 C 
HETATM   39  O   UNL     1      -0.347   4.830 -31.976  1.00  0.00    -0.265 OA
ENDBRANCH   6  29
TORSDOF 7
ENDMDL
MODEL 9
REMARK VINA RESULT:      -8.7      3.038      9.859
REMARK  7 active torsions:
REMARK  status: ('A' for Active; 'I' for Inactive)
REMARK    1  A    between atoms: C_4  and  C_5 
REMARK    2  A    between atoms: C_5  and  C_6 
REMARK    3  A    between atoms: C_6  and  C_7 
REMARK    4  A    between atoms: C_7  and  N_8 
REMARK    5  A    between atoms: C_12  and  O_13 
REMARK    6  A    between atoms: C_12  and  C_14 
REMARK    7  A    between atoms: C_19  and  C_20 
REMARK       I    between atoms: C_20  and  N_21 
ROOT
HETATM    1  C   UNL     1      -6.335  -0.366 -33.460  1.00  0.00    -0.023 A 
HETATM    2  C   UNL     1      -7.192   0.179 -32.475  1.00  0.00     0.024 A 
HETATM    3  C   UNL     1      -8.259   1.020 -32.848  1.00  0.00     0.001 A 
HETATM    4  C   UNL     1      -8.488   1.246 -34.197  1.00  0.00     0.086 A 
HETATM    5  O   UNL     1      -9.526   2.111 -34.366  1.00  0.00    -0.304 OA
HETATM    6  C   UNL     1      -9.973   2.458 -33.116  1.00  0.00     0.144 A 
HETATM    7  C   UNL     1      -9.252   1.761 -32.162  1.00  0.00     0.057 A 
HETATM    8  C   UNL     1      -7.748   0.654 -35.210  1.00  0.00     0.039 A 
HETATM    9  C   UNL     1      -6.677  -0.164 -34.814  1.00  0.00     0.013 A 
ENDROOT
BRANCH   1  10
HETATM   10  C   UNL     1      -5.090  -1.174 -33.055  1.00  0.00     0.088 C 
HETATM   11  C   UNL     1      -4.836  -1.232 -31.537  1.00  0.00     0.071 C 
HETATM   12  C   UNL     1      -4.526   0.138 -30.961  1.00  0.00     0.238 C 
HETATM   13  N   UNL     1      -3.337   0.772 -31.648  1.00  0.00    -0.071 N 
HETATM   14  H   UNL     1      -2.495   0.250 -31.359  1.00  0.00     0.279 HD
HETATM   15  C   UNL     1      -3.396   0.709 -33.163  1.00  0.00     0.238 C 
HETATM   16  C   UNL     1      -3.763  -0.678 -33.658  1.00  0.00     0.071 C 
BRANCH  13  17
HETATM   17  C   UNL     1      -3.123   2.226 -31.229  1.00  0.00     0.235 C 
BRANCH  17  18
HETATM   18  C   UNL     1      -3.477   3.212 -32.341  1.00  0.00     0.038 C 
BRANCH  18  19
HETATM   19  C   UNL     1      -2.263   4.077 -32.741  1.00  0.00     0.040 C 
HETATM   20  C   UNL     1      -2.582   4.904 -33.986  1.00  0.00     0.017 C 
BRANCH  19  21
HETATM   21  C   UNL     1      -1.799   4.966 -31.635  1.00  0.00     0.057 A 
HETATM   22  O   UNL     1      -0.631   4.628 -31.018  1.00  0.00    -0.319 OA
HETATM   23  C   UNL     1      -0.414   5.550 -30.039  1.00  0.00     0.049 A 
HETATM   24  C   UNL     1       0.785   5.360 -29.196  1.00  0.00     0.076 C 
HETATM   25  C   UNL     1      -1.421   6.490 -30.042  1.00  0.00     0.035 A 
HETATM   26  C   UNL     1      -2.315   6.115 -31.073  1.00  0.00     0.035 A 
ENDBRANCH  19  21
ENDBRANCH  18  19
ENDBRANCH  17  18
ENDBRANCH  13  17
BRANCH  10  27
HETATM   27  O   UNL     1      -5.266  -2.519 -33.497  1.00  0.00    -0.385 OA
HETATM   28  H   UNL     1      -5.460  -2.536 -34.452  1.00  0.00     0.211 HD
ENDBRANCH  10  27
ENDBRANCH   1  10
BRANCH   6  29
HETATM   29  C   UNL     1     -11.094   3.365 -32.939  1.00  0.00     0.277 C 
HETATM   30  N   UNL     1     -12.369   3.026 -33.437  1.00  0.00    -0.345 N 
HETATM   31  C   UNL     1     -13.481   3.933 -33.134  1.00  0.00     0.154 C 
HETATM   32  C   UNL     1     -12.665   1.853 -34.258  1.00  0.00     0.128 C 
HETATM   33  C   UNL     1     -14.625   3.268 -32.350  1.00  0.00     0.254 C 
HETATM   34  N   UNL     1     -15.383   2.281 -33.232  1.00  0.00    -0.073 N 
HETATM   35  H   UNL     1     -15.351   2.645 -34.194  1.00  0.00     0.279 HD
HETATM   36  C   UNL     1     -16.855   2.259 -32.882  1.00  0.00     0.269 C 
HETATM   37  C   UNL     1     -14.829   0.877 -33.257  1.00  0.00     0.236 C 
HETATM   38  C   UNL     1     -13.315   0.768 -33.415  1.00  0.00     0.048 C 
HETATM   39  O   UNL     1     -10.933   4.446 -32.373  1.00  0.00    -0.265 OA
ENDBRANCH   6  29
TORSDOF 7
ENDMDL
MODEL 10
REMARK VINA RESULT:      -8.6      1.608      2.491
REMARK  7 active torsions:
REMARK  status: ('A' for Active; 'I' for Inactive)
REMARK    1  A    between atoms: C_4  and  C_5 
REMARK    2  A    between atoms: C_5  and  C_6 
REMARK    3  A    between atoms: C_6  and  C_7 
REMARK    4  A    between atoms: C_7  and  N_8 
REMARK    5  A    between atoms: C_12  and  O_13 
REMARK    6  A    between atoms: C_12  and  C_14 
REMARK    7  A    between atoms: C_19  and  C_20 
REMARK       I    between atoms: C_20  and  N_21 
ROOT
HETATM    1  C   UNL     1      -8.811   4.968 -31.902  1.00  0.00    -0.023 A 
HETATM    2  C   UNL     1      -7.638   4.858 -32.685  1.00  0.00     0.024 A 
HETATM    3  C   UNL     1      -6.378   4.733 -32.066  1.00  0.00     0.001 A 
HETATM    4  C   UNL     1      -6.322   4.656 -30.683  1.00  0.00     0.086 A 
HETATM    5  O   UNL     1      -5.029   4.583 -30.262  1.00  0.00    -0.304 OA
HETATM    6  C   UNL     1      -4.235   4.621 -31.381  1.00  0.00     0.144 A 
HETATM    7  C   UNL     1      -5.036   4.657 -32.509  1.00  0.00     0.057 A 
HETATM    8  C   UNL     1      -7.445   4.651 -29.868  1.00  0.00     0.039 A 
HETATM    9  C   UNL     1      -8.688   4.797 -30.507  1.00  0.00     0.013 A 
ENDROOT
BRANCH   1  10
HETATM   10  C   UNL     1     -10.173   5.239 -32.563  1.00  0.00     0.088 C 
HETATM   11  C   UNL     1     -11.322   4.358 -32.037  1.00  0.00     0.071 C 
HETATM   12  C   UNL     1     -11.101   2.890 -32.355  1.00  0.00     0.238 C 
HETATM   13  N   UNL     1     -10.931   2.664 -33.840  1.00  0.00    -0.071 N 
HETATM   14  H   UNL     1     -11.849   2.819 -34.287  1.00  0.00     0.279 HD
HETATM   15  C   UNL     1      -9.954   3.619 -34.501  1.00  0.00     0.238 C 
HETATM   16  C   UNL     1     -10.206   5.059 -34.092  1.00  0.00     0.071 C 
BRANCH  13  17
HETATM   17  C   UNL     1     -10.513   1.232 -34.173  1.00  0.00     0.235 C 
BRANCH  17  18
HETATM   18  C   UNL     1      -9.765   0.561 -33.022  1.00  0.00     0.038 C 
BRANCH  18  19
HETATM   19  C   UNL     1      -8.275   0.965 -33.002  1.00  0.00     0.040 C 
HETATM   20  C   UNL     1      -7.826   1.285 -31.576  1.00  0.00     0.017 C 
BRANCH  19  21
HETATM   21  C   UNL     1      -7.386  -0.073 -33.603  1.00  0.00     0.057 A 
HETATM   22  O   UNL     1      -6.267  -0.410 -32.902  1.00  0.00    -0.319 OA
HETATM   23  C   UNL     1      -5.600  -1.344 -33.637  1.00  0.00     0.049 A 
HETATM   24  C   UNL     1      -4.316  -1.832 -33.092  1.00  0.00     0.076 C 
HETATM   25  C   UNL     1      -6.299  -1.625 -34.790  1.00  0.00     0.035 A 
HETATM   26  C   UNL     1      -7.453  -0.806 -34.769  1.00  0.00     0.035 A 
ENDBRANCH  19  21
ENDBRANCH  18  19
ENDBRANCH  17  18
ENDBRANCH  13  17
BRANCH  10  27
HETATM   27  O   UNL     1     -10.536   6.594 -32.301  1.00  0.00    -0.385 OA
HETATM   28  H   UNL     1     -10.787   7.041 -33.130  1.00  0.00     0.211 HD
ENDBRANCH  10  27
ENDBRANCH   1  10
BRANCH   6  29
HETATM   29  C   UNL     1      -2.787   4.544 -31.283  1.00  0.00     0.277 C 
HETATM   30  N   UNL     1      -2.031   5.697 -30.986  1.00  0.00    -0.345 N 
HETATM   31  C   UNL     1      -0.587   5.533 -30.797  1.00  0.00     0.154 C 
HETATM   32  C   UNL     1      -2.573   7.051 -30.879  1.00  0.00     0.128 C 
HETATM   33  C   UNL     1      -0.091   5.972 -29.408  1.00  0.00     0.254 C 
HETATM   34  N   UNL     1      -0.160   7.489 -29.265  1.00  0.00    -0.073 N 
HETATM   35  H   UNL     1       0.010   7.891 -30.196  1.00  0.00     0.279 HD
HETATM   36  C   UNL     1       0.980   8.006 -28.414  1.00  0.00     0.269 C 
HETATM   37  C   UNL     1      -1.476   8.034 -28.766  1.00  0.00     0.236 C 
HETATM   38  C   UNL     1      -2.724   7.446 -29.419  1.00  0.00     0.048 C 
HETATM   39  O   UNL     1      -2.209   3.476 -31.483  1.00  0.00    -0.265 OA
ENDBRANCH   6  29
TORSDOF 7
ENDMDL
