MODEL 1
REMARK VINA RESULT:      -8.8      0.000      0.000
REMARK  4 active torsions:
REMARK  status: ('A' for Active; 'I' for Inactive)
REMARK    1  A    between atoms: C_7  and  C_8 
REMARK    2  A    between atoms: C_8  and  N_9 
REMARK    3  A    between atoms: N_15  and  C_17 
REMARK    4  A    between atoms: C_21  and  C_22 
ROOT
HETATM    1  N   UNL     1      -3.964   4.458 -32.386  1.00  0.00    -0.067 N 
HETATM    2  H   UNL     1      -3.782   5.357 -32.858  1.00  0.00     0.280 HD
HETATM    3  C   UNL     1      -4.747   3.637 -33.369  1.00  0.00     0.236 C 
HETATM    4  C   UNL     1      -5.246   2.346 -32.724  1.00  0.00     0.039 C 
HETATM    5  C   UNL     1      -6.066   2.546 -31.419  1.00  0.00    -0.013 C 
HETATM    6  C   UNL     1      -7.474   3.134 -31.695  1.00  0.00     0.245 C 
HETATM    7  N   UNL     1      -8.366   2.129 -32.382  1.00  0.00    -0.065 N 
HETATM    8  H   UNL     1      -7.940   1.830 -33.270  1.00  0.00     0.280 HD
HETATM    9  C   UNL     1      -8.566   0.866 -31.547  1.00  0.00     0.244 C 
HETATM   10  C   UNL     1      -7.214   0.172 -31.299  1.00  0.00     0.045 C 
HETATM   11  C   UNL     1      -6.246   1.199 -30.653  1.00  0.00     0.022 C 
HETATM   12  C   UNL     1      -5.258   3.502 -30.486  1.00  0.00     0.039 C 
HETATM   13  C   UNL     1      -4.742   4.779 -31.147  1.00  0.00     0.236 C 
ENDROOT
BRANCH   7  14
HETATM   14  C   UNL     1      -9.696   2.733 -32.732  1.00  0.00     0.188 A 
HETATM   15  C   UNL     1     -10.026   2.842 -34.195  1.00  0.00     0.035 A 
HETATM   16  C   UNL     1     -10.721   1.819 -33.342  1.00  0.00     0.035 A 
ENDBRANCH   7  14
BRANCH  10  17
HETATM   17  C   UNL     1      -6.601  -0.583 -32.475  1.00  0.00    -0.052 A 
HETATM   18  C   UNL     1      -7.303  -0.902 -33.650  1.00  0.00     0.007 A 
HETATM   19  C   UNL     1      -6.680  -1.589 -34.699  1.00  0.00     0.001 A 
HETATM   20  C   UNL     1      -5.357  -1.996 -34.585  1.00  0.00     0.000 A 
HETATM   21  C   UNL     1      -4.657  -1.739 -33.413  1.00  0.00     0.001 A 
HETATM   22  C   UNL     1      -5.277  -1.053 -32.367  1.00  0.00     0.007 A 
ENDBRANCH  10  17
BRANCH   1  23
HETATM   23  C   UNL     1      -2.545   3.955 -32.113  1.00  0.00     0.277 C 
BRANCH  23  24
HETATM   24  C   UNL     1      -1.611   5.066 -31.810  1.00  0.00     0.011 A 
HETATM   25  C   UNL     1      -1.082   6.026 -32.718  1.00  0.00     0.060 A 
HETATM   26  C   UNL     1      -1.274   6.132 -34.188  1.00  0.00     0.073 C 
HETATM   27  N   UNL     1      -0.353   6.945 -32.084  1.00  0.00    -0.178 NA
HETATM   28  N   UNL     1      -0.305   6.530 -30.811  1.00  0.00    -0.284 N 
HETATM   29  C   UNL     1       0.460   7.275 -29.838  1.00  0.00     0.179 C 
HETATM   30  C   UNL     1      -1.070   5.420 -30.586  1.00  0.00     0.122 A 
ENDBRANCH  23  24
ENDBRANCH   1  23
TORSDOF 4
ENDMDL
MODEL 2
REMARK VINA RESULT:      -8.2      2.748      7.453
REMARK  4 active torsions:
REMARK  status: ('A' for Active; 'I' for Inactive)
REMARK    1  A    between atoms: C_7  and  C_8 
REMARK    2  A    between atoms: C_8  and  N_9 
REMARK    3  A    between atoms: N_15  and  C_17 
REMARK    4  A    between atoms: C_21  and  C_22 
ROOT
HETATM    1  N   UNL     1      -4.576  -0.050 -32.261  1.00  0.00    -0.067 N 
HETATM    2  H   UNL     1      -4.470  -0.771 -31.531  1.00  0.00     0.280 HD
HETATM    3  C   UNL     1      -3.974   1.199 -31.686  1.00  0.00     0.236 C 
HETATM    4  C   UNL     1      -4.236   2.397 -32.596  1.00  0.00     0.039 C 
HETATM    5  C   UNL     1      -5.732   2.634 -32.946  1.00  0.00    -0.013 C 
HETATM    6  C   UNL     1      -6.538   3.180 -31.740  1.00  0.00     0.245 C 
HETATM    7  N   UNL     1      -6.144   4.600 -31.412  1.00  0.00    -0.065 N 
HETATM    8  H   UNL     1      -5.138   4.646 -31.200  1.00  0.00     0.280 HD
HETATM    9  C   UNL     1      -6.389   5.553 -32.579  1.00  0.00     0.244 C 
HETATM   10  C   UNL     1      -5.554   5.126 -33.800  1.00  0.00     0.045 C 
HETATM   11  C   UNL     1      -5.883   3.644 -34.126  1.00  0.00     0.022 C 
HETATM   12  C   UNL     1      -6.334   1.275 -33.425  1.00  0.00     0.039 C 
HETATM   13  C   UNL     1      -6.046   0.078 -32.519  1.00  0.00     0.236 C 
ENDROOT
BRANCH   7  14
HETATM   14  C   UNL     1      -6.858   5.091 -30.185  1.00  0.00     0.188 A 
HETATM   15  C   UNL     1      -6.001   5.467 -29.008  1.00  0.00     0.035 A 
HETATM   16  C   UNL     1      -6.673   6.537 -29.821  1.00  0.00     0.035 A 
ENDBRANCH   7  14
BRANCH  10  17
HETATM   17  C   UNL     1      -4.057   5.417 -33.746  1.00  0.00    -0.052 A 
HETATM   18  C   UNL     1      -3.427   6.075 -32.676  1.00  0.00     0.007 A 
HETATM   19  C   UNL     1      -2.046   6.305 -32.683  1.00  0.00     0.001 A 
HETATM   20  C   UNL     1      -1.272   5.910 -33.767  1.00  0.00     0.000 A 
HETATM   21  C   UNL     1      -1.879   5.306 -34.860  1.00  0.00     0.001 A 
HETATM   22  C   UNL     1      -3.256   5.075 -34.855  1.00  0.00     0.007 A 
ENDBRANCH  10  17
BRANCH   1  23
HETATM   23  C   UNL     1      -3.795  -0.665 -33.424  1.00  0.00     0.277 C 
BRANCH  23  24
HETATM   24  C   UNL     1      -4.279  -2.026 -33.760  1.00  0.00     0.011 A 
HETATM   25  C   UNL     1      -3.924  -3.253 -33.132  1.00  0.00     0.060 A 
HETATM   26  C   UNL     1      -2.951  -3.497 -32.036  1.00  0.00     0.073 C 
HETATM   27  N   UNL     1      -4.629  -4.272 -33.623  1.00  0.00    -0.178 NA
HETATM   28  N   UNL     1      -5.340  -3.748 -34.630  1.00  0.00    -0.284 N 
HETATM   29  C   UNL     1      -6.191  -4.598 -35.431  1.00  0.00     0.179 C 
HETATM   30  C   UNL     1      -5.189  -2.393 -34.736  1.00  0.00     0.122 A 
ENDBRANCH  23  24
ENDBRANCH   1  23
TORSDOF 4
ENDMDL
MODEL 3
REMARK VINA RESULT:      -8.2      1.929      2.748
REMARK  4 active torsions:
REMARK  status: ('A' for Active; 'I' for Inactive)
REMARK    1  A    between atoms: C_7  and  C_8 
REMARK    2  A    between atoms: C_8  and  N_9 
REMARK    3  A    between atoms: N_15  and  C_17 
REMARK    4  A    between atoms: C_21  and  C_22 
ROOT
HETATM    1  N   UNL     1      -6.239   5.480 -31.698  1.00  0.00    -0.067 N 
HETATM    2  H   UNL     1      -5.971   6.434 -31.984  1.00  0.00     0.280 HD
HETATM    3  C   UNL     1      -6.596   4.763 -32.967  1.00  0.00     0.236 C 
HETATM    4  C   UNL     1      -7.195   3.391 -32.667  1.00  0.00     0.039 C 
HETATM    5  C   UNL     1      -8.412   3.409 -31.701  1.00  0.00    -0.013 C 
HETATM    6  C   UNL     1      -9.685   3.988 -32.372  1.00  0.00     0.245 C 
HETATM    7  N   UNL     1     -10.230   3.049 -33.420  1.00  0.00    -0.065 N 
HETATM    8  H   UNL     1      -9.515   2.871 -34.139  1.00  0.00     0.280 HD
HETATM    9  C   UNL     1     -10.611   1.689 -32.838  1.00  0.00     0.244 C 
HETATM   10  C   UNL     1      -9.375   1.008 -32.224  1.00  0.00     0.045 C 
HETATM   11  C   UNL     1      -8.746   1.975 -31.186  1.00  0.00     0.022 C 
HETATM   12  C   UNL     1      -8.023   4.267 -30.456  1.00  0.00     0.039 C 
HETATM   13  C   UNL     1      -7.404   5.628 -30.767  1.00  0.00     0.236 C 
ENDROOT
BRANCH   7  14
HETATM   14  C   UNL     1     -11.406   3.654 -34.132  1.00  0.00     0.188 A 
HETATM   15  C   UNL     1     -11.232   3.947 -35.597  1.00  0.00     0.035 A 
HETATM   16  C   UNL     1     -12.097   2.800 -35.157  1.00  0.00     0.035 A 
ENDBRANCH   7  14
BRANCH  10  17
HETATM   17  C   UNL     1      -8.358   0.418 -33.197  1.00  0.00    -0.052 A 
HETATM   18  C   UNL     1      -8.491   0.474 -34.595  1.00  0.00     0.007 A 
HETATM   19  C   UNL     1      -7.518  -0.080 -35.435  1.00  0.00     0.001 A 
HETATM   20  C   UNL     1      -6.410  -0.724 -34.899  1.00  0.00     0.000 A 
HETATM   21  C   UNL     1      -6.282  -0.839 -33.521  1.00  0.00     0.001 A 
HETATM   22  C   UNL     1      -7.252  -0.287 -32.682  1.00  0.00     0.007 A 
ENDBRANCH  10  17
BRANCH   1  23
HETATM   23  C   UNL     1      -4.962   4.986 -31.017  1.00  0.00     0.277 C 
BRANCH  23  24
HETATM   24  C   UNL     1      -3.815   4.935 -31.956  1.00  0.00     0.011 A 
HETATM   25  C   UNL     1      -3.187   3.777 -32.496  1.00  0.00     0.060 A 
HETATM   26  C   UNL     1      -3.468   2.344 -32.221  1.00  0.00     0.073 C 
HETATM   27  N   UNL     1      -2.253   4.103 -33.390  1.00  0.00    -0.178 NA
HETATM   28  N   UNL     1      -2.186   5.440 -33.349  1.00  0.00    -0.284 N 
HETATM   29  C   UNL     1      -1.223   6.140 -34.168  1.00  0.00     0.179 C 
HETATM   30  C   UNL     1      -3.127   5.993 -32.524  1.00  0.00     0.122 A 
ENDBRANCH  23  24
ENDBRANCH   1  23
TORSDOF 4
ENDMDL
MODEL 4
REMARK VINA RESULT:      -7.9      3.124      8.371
REMARK  4 active torsions:
REMARK  status: ('A' for Active; 'I' for Inactive)
REMARK    1  A    between atoms: C_7  and  C_8 
REMARK    2  A    between atoms: C_8  and  N_9 
REMARK    3  A    between atoms: N_15  and  C_17 
REMARK    4  A    between atoms: C_21  and  C_22 
ROOT
HETATM    1  N   UNL     1      -9.507   1.108 -34.345  1.00  0.00    -0.067 N 
HETATM    2  H   UNL     1      -9.867   0.501 -35.097  1.00  0.00     0.280 HD
HETATM    3  C   UNL     1      -8.047   1.293 -34.640  1.00  0.00     0.236 C 
HETATM    4  C   UNL     1      -7.348   2.021 -33.494  1.00  0.00     0.039 C 
HETATM    5  C   UNL     1      -7.534   1.365 -32.097  1.00  0.00    -0.013 C 
HETATM    6  C   UNL     1      -6.729   0.048 -31.955  1.00  0.00     0.245 C 
HETATM    7  N   UNL     1      -5.244   0.314 -31.895  1.00  0.00    -0.065 N 
HETATM    8  H   UNL     1      -4.942   0.811 -32.744  1.00  0.00     0.280 HD
HETATM    9  C   UNL     1      -4.862   1.200 -30.711  1.00  0.00     0.244 C 
HETATM   10  C   UNL     1      -5.560   2.568 -30.822  1.00  0.00     0.045 C 
HETATM   11  C   UNL     1      -7.088   2.330 -30.955  1.00  0.00     0.022 C 
HETATM   12  C   UNL     1      -9.057   1.088 -31.896  1.00  0.00     0.039 C 
HETATM   13  C   UNL     1      -9.752   0.380 -33.059  1.00  0.00     0.236 C 
ENDROOT
BRANCH   7  14
HETATM   14  C   UNL     1      -4.463  -0.969 -31.853  1.00  0.00     0.188 A 
HETATM   15  C   UNL     1      -3.760  -1.374 -33.119  1.00  0.00     0.035 A 
HETATM   16  C   UNL     1      -2.969  -0.861 -31.950  1.00  0.00     0.035 A 
ENDBRANCH   7  14
BRANCH  10  17
HETATM   17  C   UNL     1      -5.005   3.542 -31.858  1.00  0.00    -0.052 A 
HETATM   18  C   UNL     1      -3.775   3.368 -32.514  1.00  0.00     0.007 A 
HETATM   19  C   UNL     1      -3.325   4.294 -33.463  1.00  0.00     0.001 A 
HETATM   20  C   UNL     1      -4.078   5.425 -33.754  1.00  0.00     0.000 A 
HETATM   21  C   UNL     1      -5.273   5.647 -33.081  1.00  0.00     0.001 A 
HETATM   22  C   UNL     1      -5.723   4.723 -32.135  1.00  0.00     0.007 A 
ENDBRANCH  10  17
BRANCH   1  23
HETATM   23  C   UNL     1     -10.363   2.364 -34.518  1.00  0.00     0.277 C 
BRANCH  23  24
HETATM   24  C   UNL     1     -11.781   2.123 -34.158  1.00  0.00     0.011 A 
HETATM   25  C   UNL     1     -12.533   2.751 -33.125  1.00  0.00     0.060 A 
HETATM   26  C   UNL     1     -12.088   3.748 -32.117  1.00  0.00     0.073 C 
HETATM   27  N   UNL     1     -13.809   2.368 -33.151  1.00  0.00    -0.178 NA
HETATM   28  N   UNL     1     -13.868   1.423 -34.099  1.00  0.00    -0.284 N 
HETATM   29  C   UNL     1     -15.115   0.742 -34.362  1.00  0.00     0.179 C 
HETATM   30  C   UNL     1     -12.681   1.258 -34.757  1.00  0.00     0.122 A 
ENDBRANCH  23  24
ENDBRANCH   1  23
TORSDOF 4
ENDMDL
MODEL 5
REMARK VINA RESULT:      -7.9      2.416      8.312
REMARK  4 active torsions:
REMARK  status: ('A' for Active; 'I' for Inactive)
REMARK    1  A    between atoms: C_7  and  C_8 
REMARK    2  A    between atoms: C_8  and  N_9 
REMARK    3  A    between atoms: N_15  and  C_17 
REMARK    4  A    between atoms: C_21  and  C_22 
ROOT
HETATM    1  N   UNL     1      -4.802   3.270 -32.097  1.00  0.00    -0.067 N 
HETATM    2  H   UNL     1      -5.730   2.936 -31.798  1.00  0.00     0.280 HD
HETATM    3  C   UNL     1      -4.267   4.066 -30.943  1.00  0.00     0.236 C 
HETATM    4  C   UNL     1      -2.972   4.779 -31.327  1.00  0.00     0.039 C 
HETATM    5  C   UNL     1      -3.073   5.673 -32.594  1.00  0.00    -0.013 C 
HETATM    6  C   UNL     1      -3.888   6.966 -32.337  1.00  0.00     0.245 C 
HETATM    7  N   UNL     1      -3.141   7.918 -31.435  1.00  0.00    -0.065 N 
HETATM    8  H   UNL     1      -2.932   7.461 -30.537  1.00  0.00     0.280 HD
HETATM    9  C   UNL     1      -1.801   8.347 -32.029  1.00  0.00     0.244 C 
HETATM   10  C   UNL     1      -0.894   7.120 -32.238  1.00  0.00     0.045 C 
HETATM   11  C   UNL     1      -1.659   6.087 -33.107  1.00  0.00     0.022 C 
HETATM   12  C   UNL     1      -3.744   4.830 -33.724  1.00  0.00     0.039 C 
HETATM   13  C   UNL     1      -5.026   4.102 -33.323  1.00  0.00     0.236 C 
ENDROOT
BRANCH   7  14
HETATM   14  C   UNL     1      -3.973   9.127 -31.112  1.00  0.00     0.188 A 
HETATM   15  C   UNL     1      -4.284   9.365 -29.660  1.00  0.00     0.035 A 
HETATM   16  C   UNL     1      -3.295  10.244 -30.372  1.00  0.00     0.035 A 
ENDBRANCH   7  14
BRANCH  10  17
HETATM   17  C   UNL     1      -0.260   6.512 -30.990  1.00  0.00    -0.052 A 
HETATM   18  C   UNL     1       0.413   5.279 -30.977  1.00  0.00     0.007 A 
HETATM   19  C   UNL     1       0.982   4.779 -29.800  1.00  0.00     0.001 A 
HETATM   20  C   UNL     1       0.866   5.484 -28.608  1.00  0.00     0.000 A 
HETATM   21  C   UNL     1       0.160   6.680 -28.583  1.00  0.00     0.001 A 
HETATM   22  C   UNL     1      -0.407   7.180 -29.757  1.00  0.00     0.007 A 
ENDBRANCH  10  17
BRANCH   1  23
HETATM   23  C   UNL     1      -4.068   1.955 -32.368  1.00  0.00     0.277 C 
BRANCH  23  24
HETATM   24  C   UNL     1      -5.003   0.810 -32.479  1.00  0.00     0.011 A 
HETATM   25  C   UNL     1      -5.813   0.248 -31.451  1.00  0.00     0.060 A 
HETATM   26  C   UNL     1      -5.890   0.614 -30.014  1.00  0.00     0.073 C 
HETATM   27  N   UNL     1      -6.610  -0.707 -31.929  1.00  0.00    -0.178 NA
HETATM   28  N   UNL     1      -6.248  -0.852 -33.210  1.00  0.00    -0.284 N 
HETATM   29  C   UNL     1      -6.883  -1.858 -34.031  1.00  0.00     0.179 C 
HETATM   30  C   UNL     1      -5.305   0.058 -33.601  1.00  0.00     0.122 A 
ENDBRANCH  23  24
ENDBRANCH   1  23
TORSDOF 4
ENDMDL
MODEL 6
REMARK VINA RESULT:      -7.6     16.921     18.954
REMARK  4 active torsions:
REMARK  status: ('A' for Active; 'I' for Inactive)
REMARK    1  A    between atoms: C_7  and  C_8 
REMARK    2  A    between atoms: C_8  and  N_9 
REMARK    3  A    between atoms: N_15  and  C_17 
REMARK    4  A    between atoms: C_21  and  C_22 
ROOT
HETATM    1  N   UNL     1      -4.878 -14.721 -35.614  1.00  0.00    -0.067 N 
HETATM    2  H   UNL     1      -4.453 -15.500 -35.088  1.00  0.00     0.280 HD
HETATM    3  C   UNL     1      -5.589 -15.355 -36.773  1.00  0.00     0.236 C 
HETATM    4  C   UNL     1      -6.106 -14.294 -37.742  1.00  0.00     0.039 C 
HETATM    5  C   UNL     1      -5.027 -13.300 -38.254  1.00  0.00    -0.013 C 
HETATM    6  C   UNL     1      -4.050 -13.961 -39.259  1.00  0.00     0.245 C 
HETATM    7  N   UNL     1      -4.732 -14.265 -40.571  1.00  0.00    -0.065 N 
HETATM    8  H   UNL     1      -5.535 -14.889 -40.413  1.00  0.00     0.280 HD
HETATM    9  C   UNL     1      -5.281 -13.009 -41.243  1.00  0.00     0.244 C 
HETATM   10  C   UNL     1      -6.327 -12.334 -40.338  1.00  0.00     0.045 C 
HETATM   11  C   UNL     1      -5.680 -12.067 -38.953  1.00  0.00     0.022 C 
HETATM   12  C   UNL     1      -4.242 -12.763 -37.015  1.00  0.00     0.039 C 
HETATM   13  C   UNL     1      -3.750 -13.832 -36.040  1.00  0.00     0.236 C 
ENDROOT
BRANCH   7  14
HETATM   14  C   UNL     1      -3.809 -14.991 -41.508  1.00  0.00     0.188 A 
HETATM   15  C   UNL     1      -4.345 -16.238 -42.154  1.00  0.00     0.035 A 
HETATM   16  C   UNL     1      -4.173 -14.986 -42.965  1.00  0.00     0.035 A 
ENDBRANCH   7  14
BRANCH  10  17
HETATM   17  C   UNL     1      -7.696 -13.005 -40.249  1.00  0.00    -0.052 A 
HETATM   18  C   UNL     1      -8.010 -14.224 -40.873  1.00  0.00     0.007 A 
HETATM   19  C   UNL     1      -9.283 -14.792 -40.746  1.00  0.00     0.001 A 
HETATM   20  C   UNL     1     -10.274 -14.143 -40.019  1.00  0.00     0.000 A 
HETATM   21  C   UNL     1     -10.004 -12.911 -39.437  1.00  0.00     0.001 A 
HETATM   22  C   UNL     1      -8.734 -12.344 -39.563  1.00  0.00     0.007 A 
ENDBRANCH  10  17
BRANCH   1  23
HETATM   23  C   UNL     1      -5.794 -14.095 -34.560  1.00  0.00     0.277 C 
BRANCH  23  24
HETATM   24  C   UNL     1      -5.910 -14.944 -33.350  1.00  0.00     0.011 A 
HETATM   25  C   UNL     1      -6.684 -16.129 -33.193  1.00  0.00     0.060 A 
HETATM   26  C   UNL     1      -7.606 -16.781 -34.158  1.00  0.00     0.073 C 
HETATM   27  N   UNL     1      -6.472 -16.694 -32.004  1.00  0.00    -0.178 NA
HETATM   28  N   UNL     1      -5.673 -15.838 -31.352  1.00  0.00    -0.284 N 
HETATM   29  C   UNL     1      -5.278 -16.115 -29.990  1.00  0.00     0.179 C 
HETATM   30  C   UNL     1      -5.281 -14.783 -32.128  1.00  0.00     0.122 A 
ENDBRANCH  23  24
ENDBRANCH   1  23
TORSDOF 4
ENDMDL
MODEL 7
REMARK VINA RESULT:      -7.3      2.480      8.496
REMARK  4 active torsions:
REMARK  status: ('A' for Active; 'I' for Inactive)
REMARK    1  A    between atoms: C_7  and  C_8 
REMARK    2  A    between atoms: C_8  and  N_9 
REMARK    3  A    between atoms: N_15  and  C_17 
REMARK    4  A    between atoms: C_21  and  C_22 
ROOT
HETATM    1  N   UNL     1      -5.590   4.297 -31.540  1.00  0.00    -0.067 N 
HETATM    2  H   UNL     1      -6.501   4.047 -31.126  1.00  0.00     0.280 HD
HETATM    3  C   UNL     1      -4.802   4.933 -30.432  1.00  0.00     0.236 C 
HETATM    4  C   UNL     1      -3.497   5.524 -30.961  1.00  0.00     0.039 C 
HETATM    5  C   UNL     1      -3.666   6.522 -32.140  1.00  0.00    -0.013 C 
HETATM    6  C   UNL     1      -4.271   7.874 -31.683  1.00  0.00     0.245 C 
HETATM    7  N   UNL     1      -3.291   8.661 -30.847  1.00  0.00    -0.065 N 
HETATM    8  H   UNL     1      -3.015   8.112 -30.021  1.00  0.00     0.280 HD
HETATM    9  C   UNL     1      -2.007   8.982 -31.608  1.00  0.00     0.244 C 
HETATM   10  C   UNL     1      -1.297   7.681 -32.027  1.00  0.00     0.045 C 
HETATM   11  C   UNL     1      -2.299   6.814 -32.835  1.00  0.00     0.022 C 
HETATM   12  C   UNL     1      -4.590   5.853 -33.207  1.00  0.00     0.039 C 
HETATM   13  C   UNL     1      -5.882   5.245 -32.663  1.00  0.00     0.236 C 
ENDROOT
BRANCH   7  14
HETATM   14  C   UNL     1      -3.913   9.926 -30.327  1.00  0.00     0.188 A 
HETATM   15  C   UNL     1      -3.832  10.160 -28.844  1.00  0.00     0.035 A 
HETATM   16  C   UNL     1      -2.982  10.970 -29.781  1.00  0.00     0.035 A 
ENDBRANCH   7  14
BRANCH  10  17
HETATM   17  C   UNL     1      -0.572   6.907 -30.930  1.00  0.00    -0.052 A 
HETATM   18  C   UNL     1      -0.397   7.387 -29.620  1.00  0.00     0.007 A 
HETATM   19  C   UNL     1       0.271   6.624 -28.655  1.00  0.00     0.001 A 
HETATM   20  C   UNL     1       0.803   5.383 -28.984  1.00  0.00     0.000 A 
HETATM   21  C   UNL     1       0.689   4.910 -30.285  1.00  0.00     0.001 A 
HETATM   22  C   UNL     1       0.023   5.670 -31.248  1.00  0.00     0.007 A 
ENDBRANCH  10  17
BRANCH   1  23
HETATM   23  C   UNL     1      -5.070   2.934 -32.000  1.00  0.00     0.277 C 
BRANCH  23  24
HETATM   24  C   UNL     1      -6.154   1.926 -32.084  1.00  0.00     0.011 A 
HETATM   25  C   UNL     1      -6.487   0.928 -31.124  1.00  0.00     0.060 A 
HETATM   26  C   UNL     1      -5.815   0.602 -29.840  1.00  0.00     0.073 C 
HETATM   27  N   UNL     1      -7.585   0.260 -31.479  1.00  0.00    -0.178 NA
HETATM   28  N   UNL     1      -7.895   0.724 -32.696  1.00  0.00    -0.284 N 
HETATM   29  C   UNL     1      -9.021   0.173 -33.415  1.00  0.00     0.179 C 
HETATM   30  C   UNL     1      -7.082   1.750 -33.095  1.00  0.00     0.122 A 
ENDBRANCH  23  24
ENDBRANCH   1  23
TORSDOF 4
ENDMDL
MODEL 8
REMARK VINA RESULT:      -7.2      2.940      8.269
REMARK  4 active torsions:
REMARK  status: ('A' for Active; 'I' for Inactive)
REMARK    1  A    between atoms: C_7  and  C_8 
REMARK    2  A    between atoms: C_8  and  N_9 
REMARK    3  A    between atoms: N_15  and  C_17 
REMARK    4  A    between atoms: C_21  and  C_22 
ROOT
HETATM    1  N   UNL     1      -5.923   5.737 -31.047  1.00  0.00    -0.067 N 
HETATM    2  H   UNL     1      -6.765   5.212 -30.764  1.00  0.00     0.280 HD
HETATM    3  C   UNL     1      -4.880   5.414 -30.017  1.00  0.00     0.236 C 
HETATM    4  C   UNL     1      -3.636   6.278 -30.213  1.00  0.00     0.039 C 
HETATM    5  C   UNL     1      -3.905   7.809 -30.243  1.00  0.00    -0.013 C 
HETATM    6  C   UNL     1      -4.261   8.370 -28.842  1.00  0.00     0.245 C 
HETATM    7  N   UNL     1      -3.063   8.359 -27.924  1.00  0.00    -0.065 N 
HETATM    8  H   UNL     1      -2.704   7.400 -27.828  1.00  0.00     0.280 HD
HETATM    9  C   UNL     1      -1.912   9.204 -28.464  1.00  0.00     0.244 C 
HETATM   10  C   UNL     1      -1.441   8.658 -29.824  1.00  0.00     0.045 C 
HETATM   11  C   UNL     1      -2.664   8.591 -30.776  1.00  0.00     0.022 C 
HETATM   12  C   UNL     1      -5.077   8.071 -31.241  1.00  0.00     0.039 C 
HETATM   13  C   UNL     1      -6.307   7.185 -31.051  1.00  0.00     0.236 C 
ENDROOT
BRANCH   7  14
HETATM   14  C   UNL     1      -3.435   8.814 -26.541  1.00  0.00     0.188 A 
HETATM   15  C   UNL     1      -3.157   7.855 -25.417  1.00  0.00     0.035 A 
HETATM   16  C   UNL     1      -2.308   9.082 -25.586  1.00  0.00     0.035 A 
ENDBRANCH   7  14
BRANCH  10  17
HETATM   17  C   UNL     1      -0.618   7.372 -29.801  1.00  0.00    -0.052 A 
HETATM   18  C   UNL     1      -0.166   6.754 -28.623  1.00  0.00     0.007 A 
HETATM   19  C   UNL     1       0.579   5.570 -28.669  1.00  0.00     0.001 A 
HETATM   20  C   UNL     1       0.911   4.995 -29.890  1.00  0.00     0.000 A 
HETATM   21  C   UNL     1       0.522   5.616 -31.070  1.00  0.00     0.001 A 
HETATM   22  C   UNL     1      -0.222   6.797 -31.025  1.00  0.00     0.007 A 
ENDBRANCH  10  17
BRANCH   1  23
HETATM   23  C   UNL     1      -5.651   5.165 -32.439  1.00  0.00     0.277 C 
BRANCH  23  24
HETATM   24  C   UNL     1      -5.208   3.751 -32.383  1.00  0.00     0.011 A 
HETATM   25  C   UNL     1      -3.892   3.246 -32.587  1.00  0.00     0.060 A 
HETATM   26  C   UNL     1      -2.655   3.978 -32.963  1.00  0.00     0.073 C 
HETATM   27  N   UNL     1      -3.835   1.934 -32.358  1.00  0.00    -0.178 NA
HETATM   28  N   UNL     1      -5.102   1.567 -32.127  1.00  0.00    -0.284 N 
HETATM   29  C   UNL     1      -5.419   0.177 -31.888  1.00  0.00     0.179 C 
HETATM   30  C   UNL     1      -5.965   2.628 -32.100  1.00  0.00     0.122 A 
ENDBRANCH  23  24
ENDBRANCH   1  23
TORSDOF 4
ENDMDL
MODEL 9
REMARK VINA RESULT:      -7.0      2.820      7.983
REMARK  4 active torsions:
REMARK  status: ('A' for Active; 'I' for Inactive)
REMARK    1  A    between atoms: C_7  and  C_8 
REMARK    2  A    between atoms: C_8  and  N_9 
REMARK    3  A    between atoms: N_15  and  C_17 
REMARK    4  A    between atoms: C_21  and  C_22 
ROOT
HETATM    1  N   UNL     1      -5.767   4.474 -31.762  1.00  0.00    -0.067 N 
HETATM    2  H   UNL     1      -6.589   3.949 -31.428  1.00  0.00     0.280 HD
HETATM    3  C   UNL     1      -4.856   4.597 -30.576  1.00  0.00     0.236 C 
HETATM    4  C   UNL     1      -3.681   5.522 -30.885  1.00  0.00     0.039 C 
HETATM    5  C   UNL     1      -4.081   6.932 -31.402  1.00  0.00    -0.013 C 
HETATM    6  C   UNL     1      -4.683   7.819 -30.282  1.00  0.00     0.245 C 
HETATM    7  N   UNL     1      -3.631   8.225 -29.278  1.00  0.00    -0.065 N 
HETATM    8  H   UNL     1      -3.203   7.389 -28.859  1.00  0.00     0.280 HD
HETATM    9  C   UNL     1      -2.497   9.023 -29.918  1.00  0.00     0.244 C 
HETATM   10  C   UNL     1      -1.790   8.176 -30.991  1.00  0.00     0.045 C 
HETATM   11  C   UNL     1      -2.854   7.682 -32.007  1.00  0.00     0.022 C 
HETATM   12  C   UNL     1      -5.118   6.744 -32.554  1.00  0.00     0.039 C 
HETATM   13  C   UNL     1      -6.277   5.799 -32.242  1.00  0.00     0.236 C 
ENDROOT
BRANCH   7  14
HETATM   14  C   UNL     1      -4.236   9.005 -28.144  1.00  0.00     0.188 A 
HETATM   15  C   UNL     1      -4.139   8.391 -26.775  1.00  0.00     0.035 A 
HETATM   16  C   UNL     1      -3.289   9.578 -27.129  1.00  0.00     0.035 A 
ENDBRANCH   7  14
BRANCH  10  17
HETATM   17  C   UNL     1      -0.864   7.068 -30.495  1.00  0.00    -0.052 A 
HETATM   18  C   UNL     1      -0.556   6.856 -29.140  1.00  0.00     0.007 A 
HETATM   19  C   UNL     1       0.294   5.815 -28.748  1.00  0.00     0.001 A 
HETATM   20  C   UNL     1       0.875   4.985 -29.699  1.00  0.00     0.000 A 
HETATM   21  C   UNL     1       0.628   5.208 -31.048  1.00  0.00     0.001 A 
HETATM   22  C   UNL     1      -0.220   6.245 -31.440  1.00  0.00     0.007 A 
ENDBRANCH  10  17
BRANCH   1  23
HETATM   23  C   UNL     1      -5.249   3.569 -32.881  1.00  0.00     0.277 C 
BRANCH  23  24
HETATM   24  C   UNL     1      -4.895   2.217 -32.383  1.00  0.00     0.011 A 
HETATM   25  C   UNL     1      -5.783   1.195 -31.942  1.00  0.00     0.060 A 
HETATM   26  C   UNL     1      -7.262   1.231 -31.812  1.00  0.00     0.073 C 
HETATM   27  N   UNL     1      -5.126   0.070 -31.660  1.00  0.00    -0.178 NA
HETATM   28  N   UNL     1      -3.831   0.381 -31.796  1.00  0.00    -0.284 N 
HETATM   29  C   UNL     1      -2.816  -0.608 -31.511  1.00  0.00     0.179 C 
HETATM   30  C   UNL     1      -3.637   1.654 -32.258  1.00  0.00     0.122 A 
ENDBRANCH  23  24
ENDBRANCH   1  23
TORSDOF 4
ENDMDL
MODEL 10
REMARK VINA RESULT:      -7.0      2.312      5.225
REMARK  4 active torsions:
REMARK  status: ('A' for Active; 'I' for Inactive)
REMARK    1  A    between atoms: C_7  and  C_8 
REMARK    2  A    between atoms: C_8  and  N_9 
REMARK    3  A    between atoms: N_15  and  C_17 
REMARK    4  A    between atoms: C_21  and  C_22 
ROOT
HETATM    1  N   UNL     1      -1.413   5.188 -32.681  1.00  0.00    -0.067 N 
HETATM    2  H   UNL     1      -0.480   4.758 -32.592  1.00  0.00     0.280 HD
HETATM    3  C   UNL     1      -2.189   4.718 -31.485  1.00  0.00     0.236 C 
HETATM    4  C   UNL     1      -3.655   5.131 -31.591  1.00  0.00     0.039 C 
HETATM    5  C   UNL     1      -4.364   4.683 -32.900  1.00  0.00    -0.013 C 
HETATM    6  C   UNL     1      -4.633   3.156 -32.928  1.00  0.00     0.245 C 
HETATM    7  N   UNL     1      -5.701   2.767 -31.936  1.00  0.00    -0.065 N 
HETATM    8  H   UNL     1      -5.418   3.047 -30.987  1.00  0.00     0.280 HD
HETATM    9  C   UNL     1      -7.033   3.459 -32.217  1.00  0.00     0.244 C 
HETATM   10  C   UNL     1      -6.869   4.987 -32.124  1.00  0.00     0.045 C 
HETATM   11  C   UNL     1      -5.728   5.418 -33.085  1.00  0.00     0.022 C 
HETATM   12  C   UNL     1      -3.455   5.091 -34.102  1.00  0.00     0.039 C 
HETATM   13  C   UNL     1      -1.985   4.694 -33.974  1.00  0.00     0.236 C 
ENDROOT
BRANCH   7  14
HETATM   14  C   UNL     1      -5.891   1.277 -31.899  1.00  0.00     0.188 A 
HETATM   15  C   UNL     1      -5.667   0.599 -30.576  1.00  0.00     0.035 A 
HETATM   16  C   UNL     1      -7.061   0.757 -31.114  1.00  0.00     0.035 A 
ENDBRANCH   7  14
BRANCH  10  17
HETATM   17  C   UNL     1      -6.741   5.582 -30.725  1.00  0.00    -0.052 A 
HETATM   18  C   UNL     1      -6.892   4.838 -29.542  1.00  0.00     0.007 A 
HETATM   19  C   UNL     1      -6.754   5.442 -28.287  1.00  0.00     0.001 A 
HETATM   20  C   UNL     1      -6.491   6.802 -28.186  1.00  0.00     0.000 A 
HETATM   21  C   UNL     1      -6.390   7.570 -29.339  1.00  0.00     0.001 A 
HETATM   22  C   UNL     1      -6.527   6.969 -30.592  1.00  0.00     0.007 A 
ENDBRANCH  10  17
BRANCH   1  23
HETATM   23  C   UNL     1      -1.073   6.679 -32.683  1.00  0.00     0.277 C 
BRANCH  23  24
HETATM   24  C   UNL     1      -0.792   7.187 -31.319  1.00  0.00     0.011 A 
HETATM   25  C   UNL     1      -1.600   8.057 -30.533  1.00  0.00     0.060 A 
HETATM   26  C   UNL     1      -2.882   8.719 -30.888  1.00  0.00     0.073 C 
HETATM   27  N   UNL     1      -1.090   8.224 -29.313  1.00  0.00    -0.178 NA
HETATM   28  N   UNL     1       0.083   7.579 -29.337  1.00  0.00    -0.284 N 
HETATM   29  C   UNL     1       0.941   7.598 -28.174  1.00  0.00     0.179 C 
HETATM   30  C   UNL     1       0.298   6.912 -30.511  1.00  0.00     0.122 A 
ENDBRANCH  23  24
ENDBRANCH   1  23
TORSDOF 4
ENDMDL
