MODEL 1
REMARK VINA RESULT:      -9.2      0.000      0.000
REMARK  5 active torsions:
REMARK  status: ('A' for Active; 'I' for Inactive)
REMARK    1  A    between atoms: C_3  and  N_4 
REMARK       I    between atoms: N_4  and  C_5 
REMARK    2  A    between atoms: C_5  and  C_6 
REMARK    3  A    between atoms: C_6  and  C_7 
REMARK    4  A    between atoms: C_9  and  N_10 
REMARK       I    between atoms: N_10  and  C_11 
REMARK       I    between atoms: C_11  and  N_12 
REMARK    5  A    between atoms: N_12  and  C_13 
ROOT
HETATM    1  C   UNL     1      -7.542   3.367 -33.444  1.00  0.00     0.052 A 
HETATM    2  N   UNL     1      -6.161   3.423 -33.607  1.00  0.00    -0.228 NA
HETATM    3  C   UNL     1      -5.739   4.650 -33.401  1.00  0.00     0.174 A 
HETATM    4  S   UNL     1      -6.928   5.781 -32.948  1.00  0.00    -0.062 SA
HETATM    5  C   UNL     1      -8.128   4.565 -33.084  1.00  0.00     0.081 A 
ENDROOT
BRANCH   1   6
HETATM    6  C   UNL     1      -8.232   2.073 -33.736  1.00  0.00     0.163 C 
BRANCH   6   7
HETATM    7  C   UNL     1      -7.448   0.866 -33.225  1.00  0.00     0.227 C 
HETATM    8  N   UNL     1      -6.608   0.305 -34.167  1.00  0.00    -0.326 N 
HETATM    9  H   UNL     1      -6.440   0.902 -34.976  1.00  0.00     0.169 HD
HETATM   10  O   UNL     1      -7.531   0.542 -32.044  1.00  0.00    -0.273 OA
BRANCH   8  11
HETATM   11  C   UNL     1      -5.862  -0.893 -34.140  1.00  0.00     0.042 A 
HETATM   12  C   UNL     1      -4.606  -1.094 -33.538  1.00  0.00    -0.035 A 
HETATM   13  C   UNL     1      -3.845  -0.057 -32.762  1.00  0.00     0.050 C 
HETATM   14  C   UNL     1      -4.009  -2.372 -33.618  1.00  0.00     0.011 A 
HETATM   15  C   UNL     1      -4.657  -3.444 -34.230  1.00  0.00     0.024 A 
HETATM   16  C   UNL     1      -5.916  -3.250 -34.774  1.00  0.00     0.036 A 
HETATM   17  C   UNL     1      -6.515  -1.993 -34.728  1.00  0.00     0.053 A 
HETATM   18 CL   UNL     1      -6.745  -4.567 -35.510  1.00  0.00    -0.084 Cl
ENDBRANCH   8  11
ENDBRANCH   6   7
ENDBRANCH   1   6
BRANCH   3  19
HETATM   19  N   UNL     1      -4.410   4.965 -33.493  1.00  0.00    -0.287 N 
HETATM   20  C   UNL     1      -3.724   5.252 -34.636  1.00  0.00     0.326 C 
HETATM   21  N   UNL     1      -2.388   5.523 -34.477  1.00  0.00    -0.309 N 
HETATM   22  O   UNL     1      -4.161   5.187 -35.782  1.00  0.00    -0.247 OA
HETATM   23  H   UNL     1      -1.883   5.424 -35.350  1.00  0.00     0.170 HD
HETATM   24  H   UNL     1      -3.864   4.645 -32.708  1.00  0.00     0.172 HD
BRANCH  21  25
HETATM   25  C   UNL     1      -1.649   5.947 -33.358  1.00  0.00     0.036 A 
HETATM   26  C   UNL     1      -1.699   7.310 -33.038  1.00  0.00     0.032 A 
HETATM   27  C   UNL     1      -0.998   7.804 -31.936  1.00  0.00     0.044 A 
HETATM   28  C   UNL     1      -0.272   6.929 -31.138  1.00  0.00     0.116 A 
HETATM   29  F   UNL     1       0.392   7.400 -30.076  1.00  0.00    -0.206 F 
HETATM   30  C   UNL     1      -0.241   5.570 -31.420  1.00  0.00     0.044 A 
HETATM   31  C   UNL     1      -0.932   5.076 -32.530  1.00  0.00     0.032 A 
ENDBRANCH  21  25
ENDBRANCH   3  19
TORSDOF 5
ENDMDL
MODEL 2
REMARK VINA RESULT:      -9.0      2.000      2.489
REMARK  5 active torsions:
REMARK  status: ('A' for Active; 'I' for Inactive)
REMARK    1  A    between atoms: C_3  and  N_4 
REMARK       I    between atoms: N_4  and  C_5 
REMARK    2  A    between atoms: C_5  and  C_6 
REMARK    3  A    between atoms: C_6  and  C_7 
REMARK    4  A    between atoms: C_9  and  N_10 
REMARK       I    between atoms: N_10  and  C_11 
REMARK       I    between atoms: C_11  and  N_12 
REMARK    5  A    between atoms: N_12  and  C_13 
ROOT
HETATM    1  C   UNL     1      -5.928   2.660 -32.049  1.00  0.00     0.052 A 
HETATM    2  N   UNL     1      -4.573   2.950 -32.169  1.00  0.00    -0.228 NA
HETATM    3  C   UNL     1      -4.246   3.900 -31.322  1.00  0.00     0.174 A 
HETATM    4  S   UNL     1      -5.493   4.454 -30.305  1.00  0.00    -0.062 SA
HETATM    5  C   UNL     1      -6.589   3.387 -31.078  1.00  0.00     0.081 A 
ENDROOT
BRANCH   1   6
HETATM    6  C   UNL     1      -6.521   1.672 -33.002  1.00  0.00     0.163 C 
BRANCH   6   7
HETATM    7  C   UNL     1      -6.174   0.230 -32.639  1.00  0.00     0.227 C 
HETATM    8  N   UNL     1      -5.327  -0.385 -33.541  1.00  0.00    -0.326 N 
HETATM    9  H   UNL     1      -4.862   0.262 -34.176  1.00  0.00     0.169 HD
HETATM   10  O   UNL     1      -6.565  -0.241 -31.574  1.00  0.00    -0.273 OA
BRANCH   8  11
HETATM   11  C   UNL     1      -4.917  -1.732 -33.649  1.00  0.00     0.042 A 
HETATM   12  C   UNL     1      -3.867  -2.355 -32.949  1.00  0.00    -0.035 A 
HETATM   13  C   UNL     1      -3.011  -1.693 -31.907  1.00  0.00     0.050 C 
HETATM   14  C   UNL     1      -3.602  -3.722 -33.195  1.00  0.00     0.011 A 
HETATM   15  C   UNL     1      -4.386  -4.472 -34.070  1.00  0.00     0.024 A 
HETATM   16  C   UNL     1      -5.450  -3.863 -34.715  1.00  0.00     0.036 A 
HETATM   17  C   UNL     1      -5.716  -2.511 -34.507  1.00  0.00     0.053 A 
HETATM   18 CL   UNL     1      -6.447  -4.778 -35.778  1.00  0.00    -0.084 Cl
ENDBRANCH   8  11
ENDBRANCH   6   7
ENDBRANCH   1   6
BRANCH   3  19
HETATM   19  N   UNL     1      -2.958   4.360 -31.238  1.00  0.00    -0.287 N 
HETATM   20  C   UNL     1      -2.109   4.578 -32.283  1.00  0.00     0.326 C 
HETATM   21  N   UNL     1      -0.856   5.028 -31.947  1.00  0.00    -0.309 N 
HETATM   22  O   UNL     1      -2.324   4.311 -33.462  1.00  0.00    -0.247 OA
HETATM   23  H   UNL     1      -0.195   4.878 -32.701  1.00  0.00     0.170 HD
HETATM   24  H   UNL     1      -2.535   4.213 -30.336  1.00  0.00     0.172 HD
BRANCH  21  25
HETATM   25  C   UNL     1      -0.377   5.680 -30.798  1.00  0.00     0.036 A 
HETATM   26  C   UNL     1       0.318   4.902 -29.863  1.00  0.00     0.032 A 
HETATM   27  C   UNL     1       0.831   5.482 -28.701  1.00  0.00     0.044 A 
HETATM   28  C   UNL     1       0.675   6.845 -28.490  1.00  0.00     0.116 A 
HETATM   29  F   UNL     1       1.174   7.404 -27.380  1.00  0.00    -0.206 F 
HETATM   30  C   UNL     1       0.019   7.638 -29.422  1.00  0.00     0.044 A 
HETATM   31  C   UNL     1      -0.505   7.057 -30.581  1.00  0.00     0.032 A 
ENDBRANCH  21  25
ENDBRANCH   3  19
TORSDOF 5
ENDMDL
MODEL 3
REMARK VINA RESULT:      -8.9      2.333      2.655
REMARK  5 active torsions:
REMARK  status: ('A' for Active; 'I' for Inactive)
REMARK    1  A    between atoms: C_3  and  N_4 
REMARK       I    between atoms: N_4  and  C_5 
REMARK    2  A    between atoms: C_5  and  C_6 
REMARK    3  A    between atoms: C_6  and  C_7 
REMARK    4  A    between atoms: C_9  and  N_10 
REMARK       I    between atoms: N_10  and  C_11 
REMARK       I    between atoms: C_11  and  N_12 
REMARK    5  A    between atoms: N_12  and  C_13 
ROOT
HETATM    1  C   UNL     1      -8.997   2.341 -32.408  1.00  0.00     0.052 A 
HETATM    2  N   UNL     1      -7.614   2.426 -32.293  1.00  0.00    -0.228 NA
HETATM    3  C   UNL     1      -7.279   3.602 -31.814  1.00  0.00     0.174 A 
HETATM    4  S   UNL     1      -8.568   4.641 -31.420  1.00  0.00    -0.062 SA
HETATM    5  C   UNL     1      -9.680   3.462 -31.976  1.00  0.00     0.081 A 
ENDROOT
BRANCH   1   6
HETATM    6  C   UNL     1      -9.577   1.112 -33.031  1.00  0.00     0.163 C 
BRANCH   6   7
HETATM    7  C   UNL     1      -8.568   0.368 -33.903  1.00  0.00     0.227 C 
HETATM    8  N   UNL     1      -7.766  -0.513 -33.204  1.00  0.00    -0.326 N 
HETATM    9  H   UNL     1      -8.109  -0.728 -32.269  1.00  0.00     0.169 HD
HETATM   10  O   UNL     1      -8.593   0.514 -35.122  1.00  0.00    -0.273 OA
BRANCH   8  11
HETATM   11  C   UNL     1      -6.629  -1.244 -33.609  1.00  0.00     0.042 A 
HETATM   12  C   UNL     1      -5.283  -0.943 -33.327  1.00  0.00    -0.035 A 
HETATM   13  C   UNL     1      -4.816   0.211 -32.486  1.00  0.00     0.050 C 
HETATM   14  C   UNL     1      -4.275  -1.798 -33.825  1.00  0.00     0.011 A 
HETATM   15  C   UNL     1      -4.585  -2.954 -34.540  1.00  0.00     0.024 A 
HETATM   16  C   UNL     1      -5.914  -3.271 -34.769  1.00  0.00     0.036 A 
HETATM   17  C   UNL     1      -6.925  -2.430 -34.308  1.00  0.00     0.053 A 
HETATM   18 CL   UNL     1      -6.319  -4.708 -35.625  1.00  0.00    -0.084 Cl
ENDBRANCH   8  11
ENDBRANCH   6   7
ENDBRANCH   1   6
BRANCH   3  19
HETATM   19  N   UNL     1      -5.967   3.930 -31.599  1.00  0.00    -0.287 N 
HETATM   20  C   UNL     1      -5.145   3.393 -30.653  1.00  0.00     0.326 C 
HETATM   21  N   UNL     1      -3.867   3.895 -30.619  1.00  0.00    -0.309 N 
HETATM   22  O   UNL     1      -5.468   2.595 -29.776  1.00  0.00    -0.247 OA
HETATM   23  H   UNL     1      -3.415   3.697 -29.734  1.00  0.00     0.170 HD
HETATM   24  H   UNL     1      -5.714   4.839 -31.952  1.00  0.00     0.172 HD
BRANCH  21  25
HETATM   25  C   UNL     1      -3.103   4.564 -31.590  1.00  0.00     0.036 A 
HETATM   26  C   UNL     1      -2.741   5.890 -31.318  1.00  0.00     0.032 A 
HETATM   27  C   UNL     1      -1.975   6.616 -32.232  1.00  0.00     0.044 A 
HETATM   28  C   UNL     1      -1.547   6.007 -33.404  1.00  0.00     0.116 A 
HETATM   29  F   UNL     1      -0.805   6.699 -34.277  1.00  0.00    -0.206 F 
HETATM   30  C   UNL     1      -1.867   4.683 -33.674  1.00  0.00     0.044 A 
HETATM   31  C   UNL     1      -2.644   3.958 -32.765  1.00  0.00     0.032 A 
ENDBRANCH  21  25
ENDBRANCH   3  19
TORSDOF 5
ENDMDL
MODEL 4
REMARK VINA RESULT:      -8.9      4.284      8.187
REMARK  5 active torsions:
REMARK  status: ('A' for Active; 'I' for Inactive)
REMARK    1  A    between atoms: C_3  and  N_4 
REMARK       I    between atoms: N_4  and  C_5 
REMARK    2  A    between atoms: C_5  and  C_6 
REMARK    3  A    between atoms: C_6  and  C_7 
REMARK    4  A    between atoms: C_9  and  N_10 
REMARK       I    between atoms: N_10  and  C_11 
REMARK       I    between atoms: C_11  and  N_12 
REMARK    5  A    between atoms: N_12  and  C_13 
ROOT
HETATM    1  C   UNL     1      -7.183   2.495 -30.916  1.00  0.00     0.052 A 
HETATM    2  N   UNL     1      -6.537   1.555 -31.712  1.00  0.00    -0.228 NA
HETATM    3  C   UNL     1      -7.425   0.777 -32.290  1.00  0.00     0.174 A 
HETATM    4  S   UNL     1      -9.056   1.149 -31.979  1.00  0.00    -0.062 SA
HETATM    5  C   UNL     1      -8.562   2.421 -30.942  1.00  0.00     0.081 A 
ENDROOT
BRANCH   1   6
HETATM    6  C   UNL     1      -6.341   3.414 -30.090  1.00  0.00     0.163 C 
BRANCH   6   7
HETATM    7  C   UNL     1      -5.537   4.393 -30.942  1.00  0.00     0.227 C 
HETATM    8  N   UNL     1      -4.482   3.811 -31.619  1.00  0.00    -0.326 N 
HETATM    9  H   UNL     1      -4.529   2.794 -31.657  1.00  0.00     0.169 HD
HETATM   10  O   UNL     1      -5.912   5.557 -31.049  1.00  0.00    -0.273 OA
BRANCH   8  11
HETATM   11  C   UNL     1      -3.428   4.392 -32.357  1.00  0.00     0.042 A 
HETATM   12  C   UNL     1      -3.485   4.876 -33.677  1.00  0.00    -0.035 A 
HETATM   13  C   UNL     1      -4.719   4.901 -34.534  1.00  0.00     0.050 C 
HETATM   14  C   UNL     1      -2.317   5.423 -34.253  1.00  0.00     0.011 A 
HETATM   15  C   UNL     1      -1.132   5.542 -33.528  1.00  0.00     0.024 A 
HETATM   16  C   UNL     1      -1.099   5.111 -32.212  1.00  0.00     0.036 A 
HETATM   17  C   UNL     1      -2.232   4.545 -31.630  1.00  0.00     0.053 A 
HETATM   18 CL   UNL     1       0.346   5.273 -31.291  1.00  0.00    -0.084 Cl
ENDBRANCH   8  11
ENDBRANCH   6   7
ENDBRANCH   1   6
BRANCH   3  19
HETATM   19  N   UNL     1      -7.039  -0.228 -33.136  1.00  0.00    -0.287 N 
HETATM   20  C   UNL     1      -7.025  -0.177 -34.499  1.00  0.00     0.326 C 
HETATM   21  N   UNL     1      -6.611  -1.322 -35.133  1.00  0.00    -0.309 N 
HETATM   22  O   UNL     1      -7.444   0.743 -35.197  1.00  0.00    -0.247 OA
HETATM   23  H   UNL     1      -6.907  -1.336 -36.102  1.00  0.00     0.170 HD
HETATM   24  H   UNL     1      -7.081  -1.144 -32.719  1.00  0.00     0.172 HD
BRANCH  21  25
HETATM   25  C   UNL     1      -5.832  -2.404 -34.688  1.00  0.00     0.036 A 
HETATM   26  C   UNL     1      -6.279  -3.692 -35.014  1.00  0.00     0.032 A 
HETATM   27  C   UNL     1      -5.554  -4.816 -34.614  1.00  0.00     0.044 A 
HETATM   28  C   UNL     1      -4.366  -4.650 -33.914  1.00  0.00     0.116 A 
HETATM   29  F   UNL     1      -3.665  -5.727 -33.537  1.00  0.00    -0.206 F 
HETATM   30  C   UNL     1      -3.890  -3.381 -33.612  1.00  0.00     0.044 A 
HETATM   31  C   UNL     1      -4.621  -2.255 -34.002  1.00  0.00     0.032 A 
ENDBRANCH  21  25
ENDBRANCH   3  19
TORSDOF 5
ENDMDL
MODEL 5
REMARK VINA RESULT:      -8.7      4.628      7.231
REMARK  5 active torsions:
REMARK  status: ('A' for Active; 'I' for Inactive)
REMARK    1  A    between atoms: C_3  and  N_4 
REMARK       I    between atoms: N_4  and  C_5 
REMARK    2  A    between atoms: C_5  and  C_6 
REMARK    3  A    between atoms: C_6  and  C_7 
REMARK    4  A    between atoms: C_9  and  N_10 
REMARK       I    between atoms: N_10  and  C_11 
REMARK       I    between atoms: C_11  and  N_12 
REMARK    5  A    between atoms: N_12  and  C_13 
ROOT
HETATM    1  C   UNL     1      -5.231   2.427 -31.570  1.00  0.00     0.052 A 
HETATM    2  N   UNL     1      -6.351   2.035 -32.296  1.00  0.00    -0.228 NA
HETATM    3  C   UNL     1      -7.411   2.676 -31.858  1.00  0.00     0.174 A 
HETATM    4  S   UNL     1      -7.136   3.812 -30.620  1.00  0.00    -0.062 SA
HETATM    5  C   UNL     1      -5.475   3.392 -30.612  1.00  0.00     0.081 A 
ENDROOT
BRANCH   1   6
HETATM    6  C   UNL     1      -3.935   1.735 -31.849  1.00  0.00     0.163 C 
BRANCH   6   7
HETATM    7  C   UNL     1      -4.108   0.231 -32.051  1.00  0.00     0.227 C 
HETATM    8  N   UNL     1      -4.649  -0.110 -33.276  1.00  0.00    -0.326 N 
HETATM    9  H   UNL     1      -4.629   0.646 -33.959  1.00  0.00     0.169 HD
HETATM   10  O   UNL     1      -3.689  -0.550 -31.201  1.00  0.00    -0.273 OA
BRANCH   8  11
HETATM   11  C   UNL     1      -5.109  -1.351 -33.766  1.00  0.00     0.042 A 
HETATM   12  C   UNL     1      -6.356  -1.616 -34.362  1.00  0.00    -0.035 A 
HETATM   13  C   UNL     1      -7.421  -0.590 -34.628  1.00  0.00     0.050 C 
HETATM   14  C   UNL     1      -6.640  -2.932 -34.791  1.00  0.00     0.011 A 
HETATM   15  C   UNL     1      -5.698  -3.954 -34.685  1.00  0.00     0.024 A 
HETATM   16  C   UNL     1      -4.454  -3.673 -34.145  1.00  0.00     0.036 A 
HETATM   17  C   UNL     1      -4.159  -2.388 -33.693  1.00  0.00     0.053 A 
HETATM   18 CL   UNL     1      -3.267  -4.914 -34.030  1.00  0.00    -0.084 Cl
ENDBRANCH   8  11
ENDBRANCH   6   7
ENDBRANCH   1   6
BRANCH   3  19
HETATM   19  N   UNL     1      -8.643   2.470 -32.419  1.00  0.00    -0.287 N 
HETATM   20  C   UNL     1      -9.475   1.418 -32.178  1.00  0.00     0.326 C 
HETATM   21  N   UNL     1     -10.658   1.422 -32.875  1.00  0.00    -0.309 N 
HETATM   22  O   UNL     1      -9.221   0.433 -31.490  1.00  0.00    -0.247 OA
HETATM   23  H   UNL     1     -11.079   0.500 -32.896  1.00  0.00     0.170 HD
HETATM   24  H   UNL     1      -8.777   2.962 -33.289  1.00  0.00     0.172 HD
BRANCH  21  25
HETATM   25  C   UNL     1     -11.372   2.463 -33.492  1.00  0.00     0.036 A 
HETATM   26  C   UNL     1     -11.223   2.608 -34.878  1.00  0.00     0.032 A 
HETATM   27  C   UNL     1     -11.908   3.614 -35.562  1.00  0.00     0.044 A 
HETATM   28  C   UNL     1     -12.764   4.456 -34.865  1.00  0.00     0.116 A 
HETATM   29  F   UNL     1     -13.428   5.416 -35.521  1.00  0.00    -0.206 F 
HETATM   30  C   UNL     1     -12.950   4.305 -33.497  1.00  0.00     0.044 A 
HETATM   31  C   UNL     1     -12.257   3.306 -32.808  1.00  0.00     0.032 A 
ENDBRANCH  21  25
ENDBRANCH   3  19
TORSDOF 5
ENDMDL
MODEL 6
REMARK VINA RESULT:      -8.5      5.010      7.670
REMARK  5 active torsions:
REMARK  status: ('A' for Active; 'I' for Inactive)
REMARK    1  A    between atoms: C_3  and  N_4 
REMARK       I    between atoms: N_4  and  C_5 
REMARK    2  A    between atoms: C_5  and  C_6 
REMARK    3  A    between atoms: C_6  and  C_7 
REMARK    4  A    between atoms: C_9  and  N_10 
REMARK       I    between atoms: N_10  and  C_11 
REMARK       I    between atoms: C_11  and  N_12 
REMARK    5  A    between atoms: N_12  and  C_13 
ROOT
HETATM    1  C   UNL     1      -8.049   4.554 -33.711  1.00  0.00     0.052 A 
HETATM    2  N   UNL     1      -7.891   3.194 -33.464  1.00  0.00    -0.228 NA
HETATM    3  C   UNL     1      -6.612   2.900 -33.395  1.00  0.00     0.174 A 
HETATM    4  S   UNL     1      -5.537   4.209 -33.555  1.00  0.00    -0.062 SA
HETATM    5  C   UNL     1      -6.867   5.264 -33.791  1.00  0.00     0.081 A 
ENDROOT
BRANCH   1   6
HETATM    6  C   UNL     1      -9.434   5.073 -33.925  1.00  0.00     0.163 C 
BRANCH   6   7
HETATM    7  C   UNL     1     -10.394   3.991 -34.414  1.00  0.00     0.227 C 
HETATM    8  N   UNL     1     -10.972   3.255 -33.398  1.00  0.00    -0.326 N 
HETATM    9  H   UNL     1     -10.876   3.680 -32.477  1.00  0.00     0.169 HD
HETATM   10  O   UNL     1     -10.659   3.908 -35.611  1.00  0.00    -0.273 OA
BRANCH   8  11
HETATM   11  C   UNL     1     -11.763   2.086 -33.442  1.00  0.00     0.042 A 
HETATM   12  C   UNL     1     -11.306   0.755 -33.459  1.00  0.00    -0.035 A 
HETATM   13  C   UNL     1      -9.865   0.336 -33.385  1.00  0.00     0.050 C 
HETATM   14  C   UNL     1     -12.256  -0.290 -33.507  1.00  0.00     0.011 A 
HETATM   15  C   UNL     1     -13.626  -0.033 -33.485  1.00  0.00     0.024 A 
HETATM   16  C   UNL     1     -14.067   1.278 -33.416  1.00  0.00     0.036 A 
HETATM   17  C   UNL     1     -13.149   2.327 -33.391  1.00  0.00     0.053 A 
HETATM   18 CL   UNL     1     -15.754   1.616 -33.360  1.00  0.00    -0.084 Cl
ENDBRANCH   8  11
ENDBRANCH   6   7
ENDBRANCH   1   6
BRANCH   3  19
HETATM   19  N   UNL     1      -6.194   1.619 -33.149  1.00  0.00    -0.287 N 
HETATM   20  C   UNL     1      -6.089   1.024 -31.927  1.00  0.00     0.326 C 
HETATM   21  N   UNL     1      -5.629  -0.270 -31.932  1.00  0.00    -0.309 N 
HETATM   22  O   UNL     1      -6.260   1.565 -30.837  1.00  0.00    -0.247 OA
HETATM   23  H   UNL     1      -5.285  -0.544 -31.019  1.00  0.00     0.170 HD
HETATM   24  H   UNL     1      -5.637   1.227 -33.891  1.00  0.00     0.172 HD
BRANCH  21  25
HETATM   25  C   UNL     1      -5.608  -1.247 -32.942  1.00  0.00     0.036 A 
HETATM   26  C   UNL     1      -6.831  -1.568 -33.547  1.00  0.00     0.032 A 
HETATM   27  C   UNL     1      -6.887  -2.524 -34.564  1.00  0.00     0.044 A 
HETATM   28  C   UNL     1      -5.718  -3.136 -34.994  1.00  0.00     0.116 A 
HETATM   29  F   UNL     1      -5.770  -4.045 -35.975  1.00  0.00    -0.206 F 
HETATM   30  C   UNL     1      -4.493  -2.805 -34.429  1.00  0.00     0.044 A 
HETATM   31  C   UNL     1      -4.436  -1.857 -33.404  1.00  0.00     0.032 A 
ENDBRANCH  21  25
ENDBRANCH   3  19
TORSDOF 5
ENDMDL
MODEL 7
REMARK VINA RESULT:      -8.3      2.930      3.623
REMARK  5 active torsions:
REMARK  status: ('A' for Active; 'I' for Inactive)
REMARK    1  A    between atoms: C_3  and  N_4 
REMARK       I    between atoms: N_4  and  C_5 
REMARK    2  A    between atoms: C_5  and  C_6 
REMARK    3  A    between atoms: C_6  and  C_7 
REMARK    4  A    between atoms: C_9  and  N_10 
REMARK       I    between atoms: N_10  and  C_11 
REMARK       I    between atoms: C_11  and  N_12 
REMARK    5  A    between atoms: N_12  and  C_13 
ROOT
HETATM    1  C   UNL     1      -5.665   4.616 -31.392  1.00  0.00     0.052 A 
HETATM    2  N   UNL     1      -4.404   4.394 -30.847  1.00  0.00    -0.228 NA
HETATM    3  C   UNL     1      -3.708   5.509 -30.869  1.00  0.00     0.174 A 
HETATM    4  S   UNL     1      -4.517   6.881 -31.469  1.00  0.00    -0.062 SA
HETATM    5  C   UNL     1      -5.900   5.919 -31.785  1.00  0.00     0.081 A 
ENDROOT
BRANCH   1   6
HETATM    6  C   UNL     1      -6.577   3.442 -31.552  1.00  0.00     0.163 C 
BRANCH   6   7
HETATM    7  C   UNL     1      -6.106   2.480 -32.639  1.00  0.00     0.227 C 
HETATM    8  N   UNL     1      -6.435   1.160 -32.400  1.00  0.00    -0.326 N 
HETATM    9  H   UNL     1      -7.144   1.037 -31.678  1.00  0.00     0.169 HD
HETATM   10  O   UNL     1      -5.577   2.922 -33.656  1.00  0.00    -0.273 OA
BRANCH   8  11
HETATM   11  C   UNL     1      -6.044  -0.022 -33.065  1.00  0.00     0.042 A 
HETATM   12  C   UNL     1      -6.546  -0.515 -34.283  1.00  0.00    -0.035 A 
HETATM   13  C   UNL     1      -7.578   0.173 -35.132  1.00  0.00     0.050 C 
HETATM   14  C   UNL     1      -6.029  -1.727 -34.793  1.00  0.00     0.011 A 
HETATM   15  C   UNL     1      -5.002  -2.412 -34.146  1.00  0.00     0.024 A 
HETATM   16  C   UNL     1      -4.477  -1.893 -32.974  1.00  0.00     0.036 A 
HETATM   17  C   UNL     1      -4.987  -0.712 -32.439  1.00  0.00     0.053 A 
HETATM   18 CL   UNL     1      -3.190  -2.709 -32.174  1.00  0.00    -0.084 Cl
ENDBRANCH   8  11
ENDBRANCH   6   7
ENDBRANCH   1   6
BRANCH   3  19
HETATM   19  N   UNL     1      -2.431   5.554 -30.377  1.00  0.00    -0.287 N 
HETATM   20  C   UNL     1      -1.309   5.093 -30.999  1.00  0.00     0.326 C 
HETATM   21  N   UNL     1      -0.138   5.236 -30.297  1.00  0.00    -0.309 N 
HETATM   22  O   UNL     1      -1.267   4.476 -32.061  1.00  0.00    -0.247 OA
HETATM   23  H   UNL     1       0.584   4.619 -30.652  1.00  0.00     0.170 HD
HETATM   24  H   UNL     1      -2.388   5.641 -29.374  1.00  0.00     0.172 HD
BRANCH  21  25
HETATM   25  C   UNL     1       0.220   6.098 -29.247  1.00  0.00     0.036 A 
HETATM   26  C   UNL     1       0.586   7.407 -29.589  1.00  0.00     0.032 A 
HETATM   27  C   UNL     1       0.945   8.323 -28.598  1.00  0.00     0.044 A 
HETATM   28  C   UNL     1       0.910   7.939 -27.265  1.00  0.00     0.116 A 
HETATM   29  F   UNL     1       1.245   8.819 -26.314  1.00  0.00    -0.206 F 
HETATM   30  C   UNL     1       0.516   6.657 -26.905  1.00  0.00     0.044 A 
HETATM   31  C   UNL     1       0.167   5.734 -27.896  1.00  0.00     0.032 A 
ENDBRANCH  21  25
ENDBRANCH   3  19
TORSDOF 5
ENDMDL
MODEL 8
REMARK VINA RESULT:      -8.3      1.884      2.569
REMARK  5 active torsions:
REMARK  status: ('A' for Active; 'I' for Inactive)
REMARK    1  A    between atoms: C_3  and  N_4 
REMARK       I    between atoms: N_4  and  C_5 
REMARK    2  A    between atoms: C_5  and  C_6 
REMARK    3  A    between atoms: C_6  and  C_7 
REMARK    4  A    between atoms: C_9  and  N_10 
REMARK       I    between atoms: N_10  and  C_11 
REMARK       I    between atoms: C_11  and  N_12 
REMARK    5  A    between atoms: N_12  and  C_13 
ROOT
HETATM    1  C   UNL     1      -6.266   3.741 -32.504  1.00  0.00     0.052 A 
HETATM    2  N   UNL     1      -5.068   4.173 -31.943  1.00  0.00    -0.228 NA
HETATM    3  C   UNL     1      -4.324   4.739 -32.866  1.00  0.00     0.174 A 
HETATM    4  S   UNL     1      -5.015   4.849 -34.418  1.00  0.00    -0.062 SA
HETATM    5  C   UNL     1      -6.408   4.028 -33.849  1.00  0.00     0.081 A 
ENDROOT
BRANCH   1   6
HETATM    6  C   UNL     1      -7.214   2.977 -31.637  1.00  0.00     0.163 C 
BRANCH   6   7
HETATM    7  C   UNL     1      -7.136   1.470 -31.873  1.00  0.00     0.227 C 
HETATM    8  N   UNL     1      -6.031   1.074 -32.602  1.00  0.00    -0.326 N 
HETATM    9  H   UNL     1      -5.306   1.788 -32.669  1.00  0.00     0.169 HD
HETATM   10  O   UNL     1      -7.961   0.728 -31.347  1.00  0.00    -0.273 OA
BRANCH   8  11
HETATM   11  C   UNL     1      -5.695  -0.178 -33.160  1.00  0.00     0.042 A 
HETATM   12  C   UNL     1      -6.194  -0.734 -34.353  1.00  0.00    -0.035 A 
HETATM   13  C   UNL     1      -7.157  -0.055 -35.285  1.00  0.00     0.050 C 
HETATM   14  C   UNL     1      -5.739  -2.011 -34.751  1.00  0.00     0.011 A 
HETATM   15  C   UNL     1      -4.774  -2.703 -34.021  1.00  0.00     0.024 A 
HETATM   16  C   UNL     1      -4.250  -2.126 -32.875  1.00  0.00     0.036 A 
HETATM   17  C   UNL     1      -4.701  -0.878 -32.450  1.00  0.00     0.053 A 
HETATM   18 CL   UNL     1      -3.039  -2.952 -31.974  1.00  0.00    -0.084 Cl
ENDBRANCH   8  11
ENDBRANCH   6   7
ENDBRANCH   1   6
BRANCH   3  19
HETATM   19  N   UNL     1      -3.094   5.257 -32.561  1.00  0.00    -0.287 N 
HETATM   20  C   UNL     1      -2.397   6.171 -33.295  1.00  0.00     0.326 C 
HETATM   21  N   UNL     1      -1.171   6.529 -32.792  1.00  0.00    -0.309 N 
HETATM   22  O   UNL     1      -2.713   6.611 -34.398  1.00  0.00    -0.247 OA
HETATM   23  H   UNL     1      -0.587   6.950 -33.505  1.00  0.00     0.170 HD
HETATM   24  H   UNL     1      -2.557   4.680 -31.933  1.00  0.00     0.172 HD
BRANCH  21  25
HETATM   25  C   UNL     1      -0.639   6.454 -31.493  1.00  0.00     0.036 A 
HETATM   26  C   UNL     1       0.119   5.319 -31.176  1.00  0.00     0.032 A 
HETATM   27  C   UNL     1       0.687   5.179 -29.908  1.00  0.00     0.044 A 
HETATM   28  C   UNL     1       0.521   6.188 -28.968  1.00  0.00     0.116 A 
HETATM   29  F   UNL     1       1.073   6.059 -27.755  1.00  0.00    -0.206 F 
HETATM   30  C   UNL     1      -0.197   7.336 -29.278  1.00  0.00     0.044 A 
HETATM   31  C   UNL     1      -0.776   7.473 -30.543  1.00  0.00     0.032 A 
ENDBRANCH  21  25
ENDBRANCH   3  19
TORSDOF 5
ENDMDL
MODEL 9
REMARK VINA RESULT:      -8.3      2.575      3.129
REMARK  5 active torsions:
REMARK  status: ('A' for Active; 'I' for Inactive)
REMARK    1  A    between atoms: C_3  and  N_4 
REMARK       I    between atoms: N_4  and  C_5 
REMARK    2  A    between atoms: C_5  and  C_6 
REMARK    3  A    between atoms: C_6  and  C_7 
REMARK    4  A    between atoms: C_9  and  N_10 
REMARK       I    between atoms: N_10  and  C_11 
REMARK       I    between atoms: C_11  and  N_12 
REMARK    5  A    between atoms: N_12  and  C_13 
ROOT
HETATM    1  C   UNL     1      -8.630   2.272 -33.383  1.00  0.00     0.052 A 
HETATM    2  N   UNL     1      -7.306   2.555 -33.065  1.00  0.00    -0.228 NA
HETATM    3  C   UNL     1      -7.246   3.658 -32.354  1.00  0.00     0.174 A 
HETATM    4  S   UNL     1      -8.738   4.382 -31.973  1.00  0.00    -0.062 SA
HETATM    5  C   UNL     1      -9.549   3.166 -32.868  1.00  0.00     0.081 A 
ENDROOT
BRANCH   1   6
HETATM    6  C   UNL     1      -8.904   1.106 -34.278  1.00  0.00     0.163 C 
BRANCH   6   7
HETATM    7  C   UNL     1      -7.640   0.319 -34.615  1.00  0.00     0.227 C 
HETATM    8  N   UNL     1      -7.221  -0.527 -33.606  1.00  0.00    -0.326 N 
HETATM    9  H   UNL     1      -7.928  -0.695 -32.891  1.00  0.00     0.169 HD
HETATM   10  O   UNL     1      -7.152   0.405 -35.739  1.00  0.00    -0.273 OA
BRANCH   8  11
HETATM   11  C   UNL     1      -6.035  -1.278 -33.467  1.00  0.00     0.042 A 
HETATM   12  C   UNL     1      -5.726  -2.498 -34.098  1.00  0.00    -0.035 A 
HETATM   13  C   UNL     1      -6.608  -3.206 -35.087  1.00  0.00     0.050 C 
HETATM   14  C   UNL     1      -4.479  -3.107 -33.829  1.00  0.00     0.011 A 
HETATM   15  C   UNL     1      -3.535  -2.503 -33.002  1.00  0.00     0.024 A 
HETATM   16  C   UNL     1      -3.826  -1.277 -32.426  1.00  0.00     0.036 A 
HETATM   17  C   UNL     1      -5.058  -0.668 -32.657  1.00  0.00     0.053 A 
HETATM   18 CL   UNL     1      -2.662  -0.501 -31.423  1.00  0.00    -0.084 Cl
ENDBRANCH   8  11
ENDBRANCH   6   7
ENDBRANCH   1   6
BRANCH   3  19
HETATM   19  N   UNL     1      -6.047   4.146 -31.907  1.00  0.00    -0.287 N 
HETATM   20  C   UNL     1      -5.427   3.819 -30.737  1.00  0.00     0.326 C 
HETATM   21  N   UNL     1      -4.233   4.453 -30.499  1.00  0.00    -0.309 N 
HETATM   22  O   UNL     1      -5.883   3.106 -29.847  1.00  0.00    -0.247 OA
HETATM   23  H   UNL     1      -3.983   4.415 -29.517  1.00  0.00     0.170 HD
HETATM   24  H   UNL     1      -5.789   5.026 -32.324  1.00  0.00     0.172 HD
BRANCH  21  25
HETATM   25  C   UNL     1      -3.318   5.074 -31.366  1.00  0.00     0.036 A 
HETATM   26  C   UNL     1      -3.422   6.463 -31.520  1.00  0.00     0.032 A 
HETATM   27  C   UNL     1      -2.542   7.151 -32.358  1.00  0.00     0.044 A 
HETATM   28  C   UNL     1      -1.541   6.453 -33.019  1.00  0.00     0.116 A 
HETATM   29  F   UNL     1      -0.691   7.113 -33.816  1.00  0.00    -0.206 F 
HETATM   30  C   UNL     1      -1.401   5.082 -32.852  1.00  0.00     0.044 A 
HETATM   31  C   UNL     1      -2.287   4.390 -32.022  1.00  0.00     0.032 A 
ENDBRANCH  21  25
ENDBRANCH   3  19
TORSDOF 5
ENDMDL
MODEL 10
REMARK VINA RESULT:      -8.1      4.302      8.856
REMARK  5 active torsions:
REMARK  status: ('A' for Active; 'I' for Inactive)
REMARK    1  A    between atoms: C_3  and  N_4 
REMARK       I    between atoms: N_4  and  C_5 
REMARK    2  A    between atoms: C_5  and  C_6 
REMARK    3  A    between atoms: C_6  and  C_7 
REMARK    4  A    between atoms: C_9  and  N_10 
REMARK       I    between atoms: N_10  and  C_11 
REMARK       I    between atoms: C_11  and  N_12 
REMARK    5  A    between atoms: N_12  and  C_13 
ROOT
HETATM    1  C   UNL     1      -5.557   4.397 -32.487  1.00  0.00     0.052 A 
HETATM    2  N   UNL     1      -5.058   3.262 -33.119  1.00  0.00    -0.228 NA
HETATM    3  C   UNL     1      -5.327   2.198 -32.396  1.00  0.00     0.174 A 
HETATM    4  S   UNL     1      -6.228   2.467 -30.978  1.00  0.00    -0.062 SA
HETATM    5  C   UNL     1      -6.226   4.150 -31.304  1.00  0.00     0.081 A 
ENDROOT
BRANCH   1   6
HETATM    6  C   UNL     1      -5.265   5.728 -33.102  1.00  0.00     0.163 C 
BRANCH   6   7
HETATM    7  C   UNL     1      -3.813   6.156 -32.906  1.00  0.00     0.227 C 
HETATM    8  N   UNL     1      -3.330   5.931 -31.631  1.00  0.00    -0.326 N 
HETATM    9  H   UNL     1      -3.909   5.301 -31.078  1.00  0.00     0.169 HD
HETATM   10  O   UNL     1      -3.163   6.561 -33.866  1.00  0.00    -0.273 OA
BRANCH   8  11
HETATM   11  C   UNL     1      -2.123   6.331 -31.019  1.00  0.00     0.042 A 
HETATM   12  C   UNL     1      -1.922   7.456 -30.198  1.00  0.00    -0.035 A 
HETATM   13  C   UNL     1      -2.995   8.423 -29.782  1.00  0.00     0.050 C 
HETATM   14  C   UNL     1      -0.632   7.697 -29.675  1.00  0.00     0.011 A 
HETATM   15  C   UNL     1       0.427   6.821 -29.911  1.00  0.00     0.024 A 
HETATM   16  C   UNL     1       0.208   5.688 -30.678  1.00  0.00     0.036 A 
HETATM   17  C   UNL     1      -1.050   5.442 -31.224  1.00  0.00     0.053 A 
HETATM   18 CL   UNL     1       1.494   4.580 -30.958  1.00  0.00    -0.084 Cl
ENDBRANCH   8  11
ENDBRANCH   6   7
ENDBRANCH   1   6
BRANCH   3  19
HETATM   19  N   UNL     1      -4.946   0.949 -32.810  1.00  0.00    -0.287 N 
HETATM   20  C   UNL     1      -3.865   0.246 -32.368  1.00  0.00     0.326 C 
HETATM   21  N   UNL     1      -3.679  -0.986 -32.945  1.00  0.00    -0.309 N 
HETATM   22  O   UNL     1      -3.001   0.651 -31.595  1.00  0.00    -0.247 OA
HETATM   23  H   UNL     1      -2.729  -1.315 -32.816  1.00  0.00     0.170 HD
HETATM   24  H   UNL     1      -5.310   0.695 -33.715  1.00  0.00     0.172 HD
BRANCH  21  25
HETATM   25  C   UNL     1      -4.568  -1.847 -33.611  1.00  0.00     0.036 A 
HETATM   26  C   UNL     1      -4.113  -3.142 -33.895  1.00  0.00     0.032 A 
HETATM   27  C   UNL     1      -4.944  -4.056 -34.547  1.00  0.00     0.044 A 
HETATM   28  C   UNL     1      -6.237  -3.684 -34.888  1.00  0.00     0.116 A 
HETATM   29  F   UNL     1      -7.037  -4.563 -35.504  1.00  0.00    -0.206 F 
HETATM   30  C   UNL     1      -6.716  -2.417 -34.583  1.00  0.00     0.044 A 
HETATM   31  C   UNL     1      -5.883  -1.496 -33.941  1.00  0.00     0.032 A 
ENDBRANCH  21  25
ENDBRANCH   3  19
TORSDOF 5
ENDMDL
