MODEL 1
REMARK VINA RESULT:      -8.7      0.000      0.000
REMARK  6 active torsions:
REMARK  status: ('A' for Active; 'I' for Inactive)
REMARK    1  A    between atoms: C_2  and  N_3 
REMARK       I    between atoms: N_3  and  C_4 
REMARK    2  A    between atoms: C_4  and  C_5 
REMARK    3  A    between atoms: C_5  and  O_6 
REMARK    4  A    between atoms: O_6  and  C_7 
REMARK    5  A    between atoms: C_10  and  N_11 
REMARK       I    between atoms: N_11  and  C_12 
REMARK    6  A    between atoms: C_12  and  C_13 
ROOT
HETATM    1  N   UNL     1      -6.645  -0.078 -32.012  1.00  0.00    -0.322 N 
HETATM    2  C   UNL     1      -5.394   0.218 -32.522  1.00  0.00     0.277 C 
HETATM    3  O   UNL     1      -5.047   1.283 -33.021  1.00  0.00    -0.266 OA
HETATM    4  H   UNL     1      -6.705  -1.014 -31.619  1.00  0.00     0.169 HD
ENDROOT
BRANCH   1   5
HETATM    5  C   UNL     1      -7.818   0.690 -32.084  1.00  0.00     0.035 A 
HETATM    6  C   UNL     1      -8.060   1.809 -31.282  1.00  0.00     0.032 A 
HETATM    7  C   UNL     1      -9.214   2.577 -31.467  1.00  0.00     0.039 A 
HETATM    8  C   UNL     1     -10.123   2.228 -32.461  1.00  0.00     0.069 A 
HETATM    9  C   UNL     1      -9.924   1.087 -33.232  1.00  0.00     0.039 A 
HETATM   10  C   UNL     1      -8.767   0.325 -33.047  1.00  0.00     0.032 A 
BRANCH   8  11
HETATM   11  O   UNL     1     -11.247   2.979 -32.664  1.00  0.00    -0.342 OA
BRANCH  11  12
HETATM   12  C   UNL     1     -11.700   2.854 -34.017  1.00  0.00     0.278 C 
BRANCH  12  13
HETATM   13  C   UNL     1     -13.074   2.193 -34.128  1.00  0.00     0.241 C 
HETATM   14  N   UNL     1     -13.697   1.981 -32.915  1.00  0.00    -0.360 N 
HETATM   15  H   UNL     1     -13.311   2.490 -32.125  1.00  0.00     0.162 HD
HETATM   16  O   UNL     1     -13.552   1.845 -35.205  1.00  0.00    -0.271 OA
BRANCH  14  17
HETATM   17  C   UNL     1     -15.064   1.508 -32.850  1.00  0.00     0.118 C 
HETATM   18  C   UNL     1     -15.967   2.518 -32.172  1.00  0.00     0.026 C 
ENDBRANCH  14  17
ENDBRANCH  12  13
ENDBRANCH  11  12
ENDBRANCH   8  11
ENDBRANCH   1   5
BRANCH   2  19
HETATM   19  C   UNL     1      -4.483  -0.939 -32.436  1.00  0.00     0.157 A 
HETATM   20  N   UNL     1      -3.434  -0.950 -31.584  1.00  0.00    -0.168 NA
HETATM   21  N   UNL     1      -2.890  -2.168 -31.763  1.00  0.00    -0.277 N 
HETATM   22  H   UNL     1      -2.073  -2.417 -31.218  1.00  0.00     0.189 HD
HETATM   23  C   UNL     1      -3.543  -2.952 -32.674  1.00  0.00     0.063 A 
HETATM   24  C   UNL     1      -4.587  -2.169 -33.150  1.00  0.00     0.029 A 
HETATM   25  C   UNL     1      -3.316  -4.263 -33.103  1.00  0.00     0.032 A 
HETATM   26  C   UNL     1      -5.456  -2.712 -34.117  1.00  0.00     0.023 A 
HETATM   27  C   UNL     1      -5.250  -4.022 -34.578  1.00  0.00    -0.061 A 
HETATM   28  C   UNL     1      -4.196  -4.784 -34.059  1.00  0.00     0.009 A 
HETATM   29  C   UNL     1      -6.203  -4.616 -35.577  1.00  0.00     0.048 C 
ENDBRANCH   2  19
TORSDOF 6
ENDMDL
MODEL 2
REMARK VINA RESULT:      -8.3      1.368      1.867
REMARK  6 active torsions:
REMARK  status: ('A' for Active; 'I' for Inactive)
REMARK    1  A    between atoms: C_2  and  N_3 
REMARK       I    between atoms: N_3  and  C_4 
REMARK    2  A    between atoms: C_4  and  C_5 
REMARK    3  A    between atoms: C_5  and  O_6 
REMARK    4  A    between atoms: O_6  and  C_7 
REMARK    5  A    between atoms: C_10  and  N_11 
REMARK       I    between atoms: N_11  and  C_12 
REMARK    6  A    between atoms: C_12  and  C_13 
ROOT
HETATM    1  N   UNL     1      -6.784  -0.125 -32.217  1.00  0.00    -0.322 N 
HETATM    2  C   UNL     1      -5.496   0.229 -32.576  1.00  0.00     0.277 C 
HETATM    3  O   UNL     1      -5.127   1.333 -32.961  1.00  0.00    -0.266 OA
HETATM    4  H   UNL     1      -6.860  -1.088 -31.898  1.00  0.00     0.169 HD
ENDROOT
BRANCH   1   5
HETATM    5  C   UNL     1      -7.962   0.626 -32.355  1.00  0.00     0.035 A 
HETATM    6  C   UNL     1      -8.337   1.645 -31.476  1.00  0.00     0.032 A 
HETATM    7  C   UNL     1      -9.483   2.408 -31.722  1.00  0.00     0.039 A 
HETATM    8  C   UNL     1     -10.251   2.154 -32.855  1.00  0.00     0.069 A 
HETATM    9  C   UNL     1      -9.922   1.108 -33.711  1.00  0.00     0.039 A 
HETATM   10  C   UNL     1      -8.773   0.350 -33.464  1.00  0.00     0.032 A 
BRANCH   8  11
HETATM   11  O   UNL     1     -11.364   2.903 -33.117  1.00  0.00    -0.342 OA
BRANCH  11  12
HETATM   12  C   UNL     1     -12.168   2.275 -34.123  1.00  0.00     0.278 C 
BRANCH  12  13
HETATM   13  C   UNL     1     -12.527   3.217 -35.273  1.00  0.00     0.241 C 
HETATM   14  N   UNL     1     -12.955   4.465 -34.867  1.00  0.00    -0.360 N 
HETATM   15  H   UNL     1     -12.756   4.706 -33.900  1.00  0.00     0.162 HD
HETATM   16  O   UNL     1     -12.478   2.867 -36.449  1.00  0.00    -0.271 OA
BRANCH  14  17
HETATM   17  C   UNL     1     -13.185   5.523 -35.827  1.00  0.00     0.118 C 
HETATM   18  C   UNL     1     -12.221   6.674 -35.623  1.00  0.00     0.026 C 
ENDBRANCH  14  17
ENDBRANCH  12  13
ENDBRANCH  11  12
ENDBRANCH   8  11
ENDBRANCH   1   5
BRANCH   2  19
HETATM   19  C   UNL     1      -4.570  -0.916 -32.478  1.00  0.00     0.157 A 
HETATM   20  N   UNL     1      -3.528  -0.908 -31.617  1.00  0.00    -0.168 NA
HETATM   21  N   UNL     1      -2.965  -2.119 -31.787  1.00  0.00    -0.277 N 
HETATM   22  H   UNL     1      -2.149  -2.355 -31.234  1.00  0.00     0.189 HD
HETATM   23  C   UNL     1      -3.600  -2.916 -32.700  1.00  0.00     0.063 A 
HETATM   24  C   UNL     1      -4.650  -2.149 -33.188  1.00  0.00     0.029 A 
HETATM   25  C   UNL     1      -3.351  -4.225 -33.122  1.00  0.00     0.032 A 
HETATM   26  C   UNL     1      -5.505  -2.708 -34.159  1.00  0.00     0.023 A 
HETATM   27  C   UNL     1      -5.276  -4.017 -34.614  1.00  0.00    -0.061 A 
HETATM   28  C   UNL     1      -4.216  -4.761 -34.083  1.00  0.00     0.009 A 
HETATM   29  C   UNL     1      -6.213  -4.627 -35.617  1.00  0.00     0.048 C 
ENDBRANCH   2  19
TORSDOF 6
ENDMDL
MODEL 3
REMARK VINA RESULT:      -8.0      1.969      3.016
REMARK  6 active torsions:
REMARK  status: ('A' for Active; 'I' for Inactive)
REMARK    1  A    between atoms: C_2  and  N_3 
REMARK       I    between atoms: N_3  and  C_4 
REMARK    2  A    between atoms: C_4  and  C_5 
REMARK    3  A    between atoms: C_5  and  O_6 
REMARK    4  A    between atoms: O_6  and  C_7 
REMARK    5  A    between atoms: C_10  and  N_11 
REMARK       I    between atoms: N_11  and  C_12 
REMARK    6  A    between atoms: C_12  and  C_13 
ROOT
HETATM    1  N   UNL     1      -8.672   1.452 -34.073  1.00  0.00    -0.322 N 
HETATM    2  C   UNL     1      -8.380   0.476 -33.137  1.00  0.00     0.277 C 
HETATM    3  O   UNL     1      -9.161  -0.008 -32.325  1.00  0.00    -0.266 OA
HETATM    4  H   UNL     1      -7.881   1.686 -34.667  1.00  0.00     0.169 HD
ENDROOT
BRANCH   1   5
HETATM    5  C   UNL     1      -9.849   2.206 -34.205  1.00  0.00     0.035 A 
HETATM    6  C   UNL     1     -11.077   1.662 -34.590  1.00  0.00     0.032 A 
HETATM    7  C   UNL     1     -12.227   2.457 -34.619  1.00  0.00     0.039 A 
HETATM    8  C   UNL     1     -12.148   3.797 -34.255  1.00  0.00     0.069 A 
HETATM    9  C   UNL     1     -10.924   4.368 -33.920  1.00  0.00     0.039 A 
HETATM   10  C   UNL     1      -9.778   3.569 -33.888  1.00  0.00     0.032 A 
BRANCH   8  11
HETATM   11  O   UNL     1     -13.268   4.582 -34.262  1.00  0.00    -0.342 OA
BRANCH  11  12
HETATM   12  C   UNL     1     -13.578   5.030 -32.937  1.00  0.00     0.278 C 
BRANCH  12  13
HETATM   13  C   UNL     1     -14.315   3.977 -32.108  1.00  0.00     0.241 C 
HETATM   14  N   UNL     1     -15.493   3.535 -32.677  1.00  0.00    -0.360 N 
HETATM   15  H   UNL     1     -15.617   3.756 -33.661  1.00  0.00     0.162 HD
HETATM   16  O   UNL     1     -13.907   3.599 -31.013  1.00  0.00    -0.271 OA
BRANCH  14  17
HETATM   17  C   UNL     1     -16.231   2.432 -32.101  1.00  0.00     0.118 C 
HETATM   18  C   UNL     1     -17.685   2.795 -31.881  1.00  0.00     0.026 C 
ENDBRANCH  14  17
ENDBRANCH  12  13
ENDBRANCH  11  12
ENDBRANCH   8  11
ENDBRANCH   1   5
BRANCH   2  19
HETATM   19  C   UNL     1      -6.960   0.079 -33.190  1.00  0.00     0.157 A 
HETATM   20  N   UNL     1      -5.991   0.850 -32.649  1.00  0.00    -0.168 NA
HETATM   21  N   UNL     1      -4.866   0.139 -32.854  1.00  0.00    -0.277 N 
HETATM   22  H   UNL     1      -3.987   0.521 -32.524  1.00  0.00     0.189 HD
HETATM   23  C   UNL     1      -5.060  -1.059 -33.484  1.00  0.00     0.063 A 
HETATM   24  C   UNL     1      -6.424  -1.124 -33.736  1.00  0.00     0.029 A 
HETATM   25  C   UNL     1      -4.170  -2.077 -33.837  1.00  0.00     0.032 A 
HETATM   26  C   UNL     1      -6.941  -2.264 -34.384  1.00  0.00     0.023 A 
HETATM   27  C   UNL     1      -6.072  -3.301 -34.762  1.00  0.00    -0.061 A 
HETATM   28  C   UNL     1      -4.706  -3.202 -34.473  1.00  0.00     0.009 A 
HETATM   29  C   UNL     1      -6.630  -4.534 -35.414  1.00  0.00     0.048 C 
ENDBRANCH   2  19
TORSDOF 6
ENDMDL
MODEL 4
REMARK VINA RESULT:      -8.0      5.469      7.518
REMARK  6 active torsions:
REMARK  status: ('A' for Active; 'I' for Inactive)
REMARK    1  A    between atoms: C_2  and  N_3 
REMARK       I    between atoms: N_3  and  C_4 
REMARK    2  A    between atoms: C_4  and  C_5 
REMARK    3  A    between atoms: C_5  and  O_6 
REMARK    4  A    between atoms: O_6  and  C_7 
REMARK    5  A    between atoms: C_10  and  N_11 
REMARK       I    between atoms: N_11  and  C_12 
REMARK    6  A    between atoms: C_12  and  C_13 
ROOT
HETATM    1  N   UNL     1      -3.378   1.524 -32.450  1.00  0.00    -0.322 N 
HETATM    2  C   UNL     1      -4.306   0.534 -32.716  1.00  0.00     0.277 C 
HETATM    3  O   UNL     1      -5.468   0.704 -33.068  1.00  0.00    -0.266 OA
HETATM    4  H   UNL     1      -2.462   1.158 -32.201  1.00  0.00     0.169 HD
ENDROOT
BRANCH   1   5
HETATM    5  C   UNL     1      -3.584   2.910 -32.369  1.00  0.00     0.035 A 
HETATM    6  C   UNL     1      -3.264   3.801 -33.397  1.00  0.00     0.032 A 
HETATM    7  C   UNL     1      -3.575   5.160 -33.280  1.00  0.00     0.039 A 
HETATM    8  C   UNL     1      -4.213   5.625 -32.135  1.00  0.00     0.069 A 
HETATM    9  C   UNL     1      -4.490   4.762 -31.080  1.00  0.00     0.039 A 
HETATM   10  C   UNL     1      -4.182   3.404 -31.202  1.00  0.00     0.032 A 
BRANCH   8  11
HETATM   11  O   UNL     1      -4.538   6.948 -32.015  1.00  0.00    -0.342 OA
BRANCH  11  12
HETATM   12  C   UNL     1      -3.704   7.585 -31.040  1.00  0.00     0.278 C 
BRANCH  12  13
HETATM   13  C   UNL     1      -2.263   7.771 -31.517  1.00  0.00     0.241 C 
HETATM   14  N   UNL     1      -1.344   6.981 -30.856  1.00  0.00    -0.360 N 
HETATM   15  H   UNL     1      -1.731   6.210 -30.320  1.00  0.00     0.162 HD
HETATM   16  O   UNL     1      -1.957   8.587 -32.383  1.00  0.00    -0.271 OA
BRANCH  14  17
HETATM   17  C   UNL     1       0.035   6.921 -31.289  1.00  0.00     0.118 C 
HETATM   18  C   UNL     1       0.658   5.578 -30.963  1.00  0.00     0.026 C 
ENDBRANCH  14  17
ENDBRANCH  12  13
ENDBRANCH  11  12
ENDBRANCH   8  11
ENDBRANCH   1   5
BRANCH   2  19
HETATM   19  C   UNL     1      -3.745  -0.812 -32.492  1.00  0.00     0.157 A 
HETATM   20  N   UNL     1      -2.795  -1.034 -31.556  1.00  0.00    -0.168 NA
HETATM   21  N   UNL     1      -2.585  -2.362 -31.623  1.00  0.00    -0.277 N 
HETATM   22  H   UNL     1      -1.901  -2.774 -30.999  1.00  0.00     0.189 HD
HETATM   23  C   UNL     1      -3.364  -3.013 -32.539  1.00  0.00     0.063 A 
HETATM   24  C   UNL     1      -4.127  -2.021 -33.142  1.00  0.00     0.029 A 
HETATM   25  C   UNL     1      -3.468  -4.365 -32.875  1.00  0.00     0.032 A 
HETATM   26  C   UNL     1      -5.046  -2.388 -34.145  1.00  0.00     0.023 A 
HETATM   27  C   UNL     1      -5.168  -3.738 -34.515  1.00  0.00    -0.061 A 
HETATM   28  C   UNL     1      -4.392  -4.708 -33.870  1.00  0.00     0.009 A 
HETATM   29  C   UNL     1      -6.178  -4.134 -35.554  1.00  0.00     0.048 C 
ENDBRANCH   2  19
TORSDOF 6
ENDMDL
MODEL 5
REMARK VINA RESULT:      -8.0      5.645      8.971
REMARK  6 active torsions:
REMARK  status: ('A' for Active; 'I' for Inactive)
REMARK    1  A    between atoms: C_2  and  N_3 
REMARK       I    between atoms: N_3  and  C_4 
REMARK    2  A    between atoms: C_4  and  C_5 
REMARK    3  A    between atoms: C_5  and  O_6 
REMARK    4  A    between atoms: O_6  and  C_7 
REMARK    5  A    between atoms: C_10  and  N_11 
REMARK       I    between atoms: N_11  and  C_12 
REMARK    6  A    between atoms: C_12  and  C_13 
ROOT
HETATM    1  N   UNL     1      -4.378   3.142 -32.768  1.00  0.00    -0.322 N 
HETATM    2  C   UNL     1      -4.596   1.860 -32.295  1.00  0.00     0.277 C 
HETATM    3  O   UNL     1      -4.024   1.327 -31.351  1.00  0.00    -0.266 OA
HETATM    4  H   UNL     1      -4.986   3.391 -33.545  1.00  0.00     0.169 HD
ENDROOT
BRANCH   1   5
HETATM    5  C   UNL     1      -3.375   4.048 -32.391  1.00  0.00     0.035 A 
HETATM    6  C   UNL     1      -2.177   4.212 -33.090  1.00  0.00     0.032 A 
HETATM    7  C   UNL     1      -1.259   5.194 -32.705  1.00  0.00     0.039 A 
HETATM    8  C   UNL     1      -1.545   6.019 -31.622  1.00  0.00     0.069 A 
HETATM    9  C   UNL     1      -2.709   5.835 -30.882  1.00  0.00     0.039 A 
HETATM   10  C   UNL     1      -3.626   4.855 -31.272  1.00  0.00     0.032 A 
BRANCH   8  11
HETATM   11  O   UNL     1      -0.665   6.994 -31.245  1.00  0.00    -0.342 OA
BRANCH  11  12
HETATM   12  C   UNL     1       0.393   6.440 -30.454  1.00  0.00     0.278 C 
BRANCH  12  13
HETATM   13  C   UNL     1       0.336   6.878 -28.989  1.00  0.00     0.241 C 
HETATM   14  N   UNL     1      -0.300   5.978 -28.157  1.00  0.00    -0.360 N 
HETATM   15  H   UNL     1      -0.436   5.046 -28.538  1.00  0.00     0.162 HD
HETATM   16  O   UNL     1       0.782   7.956 -28.607  1.00  0.00    -0.271 OA
BRANCH  14  17
HETATM   17  C   UNL     1      -0.305   6.164 -26.723  1.00  0.00     0.118 C 
HETATM   18  C   UNL     1      -1.660   6.630 -26.229  1.00  0.00     0.026 C 
ENDBRANCH  14  17
ENDBRANCH  12  13
ENDBRANCH  11  12
ENDBRANCH   8  11
ENDBRANCH   1   5
BRANCH   2  19
HETATM   19  C   UNL     1      -5.608   1.149 -33.099  1.00  0.00     0.157 A 
HETATM   20  N   UNL     1      -6.717   1.776 -33.553  1.00  0.00    -0.168 NA
HETATM   21  N   UNL     1      -7.350   0.826 -34.267  1.00  0.00    -0.277 N 
HETATM   22  H   UNL     1      -8.226   1.065 -34.718  1.00  0.00     0.189 HD
HETATM   23  C   UNL     1      -6.700  -0.376 -34.314  1.00  0.00     0.063 A 
HETATM   24  C   UNL     1      -5.558  -0.205 -33.542  1.00  0.00     0.029 A 
HETATM   25  C   UNL     1      -7.007  -1.573 -34.967  1.00  0.00     0.032 A 
HETATM   26  C   UNL     1      -4.667  -1.287 -33.400  1.00  0.00     0.023 A 
HETATM   27  C   UNL     1      -4.951  -2.508 -34.034  1.00  0.00    -0.061 A 
HETATM   28  C   UNL     1      -6.105  -2.632 -34.817  1.00  0.00     0.009 A 
HETATM   29  C   UNL     1      -3.980  -3.648 -33.917  1.00  0.00     0.048 C 
ENDBRANCH   2  19
TORSDOF 6
ENDMDL
MODEL 6
REMARK VINA RESULT:      -7.9      1.826      9.591
REMARK  6 active torsions:
REMARK  status: ('A' for Active; 'I' for Inactive)
REMARK    1  A    between atoms: C_2  and  N_3 
REMARK       I    between atoms: N_3  and  C_4 
REMARK    2  A    between atoms: C_4  and  C_5 
REMARK    3  A    between atoms: C_5  and  O_6 
REMARK    4  A    between atoms: O_6  and  C_7 
REMARK    5  A    between atoms: C_10  and  N_11 
REMARK       I    between atoms: N_11  and  C_12 
REMARK    6  A    between atoms: C_12  and  C_13 
ROOT
HETATM    1  N   UNL     1     -10.597   0.436 -33.010  1.00  0.00    -0.322 N 
HETATM    2  C   UNL     1     -11.270   1.428 -33.700  1.00  0.00     0.277 C 
HETATM    3  O   UNL     1     -10.762   2.386 -34.272  1.00  0.00    -0.266 OA
HETATM    4  H   UNL     1     -11.215  -0.281 -32.637  1.00  0.00     0.169 HD
ENDROOT
BRANCH   1   5
HETATM    5  C   UNL     1      -9.234   0.378 -32.679  1.00  0.00     0.035 A 
HETATM    6  C   UNL     1      -8.671   1.057 -31.595  1.00  0.00     0.032 A 
HETATM    7  C   UNL     1      -7.321   0.886 -31.275  1.00  0.00     0.039 A 
HETATM    8  C   UNL     1      -6.535   0.028 -32.038  1.00  0.00     0.069 A 
HETATM    9  C   UNL     1      -7.065  -0.614 -33.152  1.00  0.00     0.039 A 
HETATM   10  C   UNL     1      -8.417  -0.444 -33.466  1.00  0.00     0.032 A 
BRANCH   8  11
HETATM   11  O   UNL     1      -5.217  -0.162 -31.726  1.00  0.00    -0.342 OA
BRANCH  11  12
HETATM   12  C   UNL     1      -4.474  -0.545 -32.889  1.00  0.00     0.278 C 
BRANCH  12  13
HETATM   13  C   UNL     1      -3.865  -1.943 -32.775  1.00  0.00     0.241 C 
HETATM   14  N   UNL     1      -4.362  -2.851 -33.689  1.00  0.00    -0.360 N 
HETATM   15  H   UNL     1      -4.873  -2.453 -34.472  1.00  0.00     0.162 HD
HETATM   16  O   UNL     1      -3.038  -2.232 -31.913  1.00  0.00    -0.271 OA
BRANCH  14  17
HETATM   17  C   UNL     1      -3.784  -4.171 -33.818  1.00  0.00     0.118 C 
HETATM   18  C   UNL     1      -4.783  -5.158 -34.387  1.00  0.00     0.026 C 
ENDBRANCH  14  17
ENDBRANCH  12  13
ENDBRANCH  11  12
ENDBRANCH   8  11
ENDBRANCH   1   5
BRANCH   2  19
HETATM   19  C   UNL     1     -12.731   1.231 -33.649  1.00  0.00     0.157 A 
HETATM   20  N   UNL     1     -13.312   0.120 -34.155  1.00  0.00    -0.168 NA
HETATM   21  N   UNL     1     -14.618   0.289 -33.878  1.00  0.00    -0.277 N 
HETATM   22  H   UNL     1     -15.269  -0.433 -34.165  1.00  0.00     0.189 HD
HETATM   23  C   UNL     1     -14.911   1.443 -33.204  1.00  0.00     0.063 A 
HETATM   24  C   UNL     1     -13.694   2.096 -33.052  1.00  0.00     0.029 A 
HETATM   25  C   UNL     1     -16.116   1.952 -32.715  1.00  0.00     0.032 A 
HETATM   26  C   UNL     1     -13.669   3.334 -32.380  1.00  0.00     0.023 A 
HETATM   27  C   UNL     1     -14.865   3.880 -31.885  1.00  0.00    -0.061 A 
HETATM   28  C   UNL     1     -16.066   3.180 -32.045  1.00  0.00     0.009 A 
HETATM   29  C   UNL     1     -14.831   5.179 -31.131  1.00  0.00     0.048 C 
ENDBRANCH   2  19
TORSDOF 6
ENDMDL
MODEL 7
REMARK VINA RESULT:      -7.9      6.156      9.108
REMARK  6 active torsions:
REMARK  status: ('A' for Active; 'I' for Inactive)
REMARK    1  A    between atoms: C_2  and  N_3 
REMARK       I    between atoms: N_3  and  C_4 
REMARK    2  A    between atoms: C_4  and  C_5 
REMARK    3  A    between atoms: C_5  and  O_6 
REMARK    4  A    between atoms: O_6  and  C_7 
REMARK    5  A    between atoms: C_10  and  N_11 
REMARK       I    between atoms: N_11  and  C_12 
REMARK    6  A    between atoms: C_12  and  C_13 
ROOT
HETATM    1  N   UNL     1      -2.649   3.942 -30.976  1.00  0.00    -0.322 N 
HETATM    2  C   UNL     1      -1.615   4.669 -31.537  1.00  0.00     0.277 C 
HETATM    3  O   UNL     1      -1.448   4.890 -32.732  1.00  0.00    -0.266 OA
HETATM    4  H   UNL     1      -2.609   3.909 -29.960  1.00  0.00     0.169 HD
ENDROOT
BRANCH   1   5
HETATM    5  C   UNL     1      -3.631   3.181 -31.629  1.00  0.00     0.035 A 
HETATM    6  C   UNL     1      -3.499   1.816 -31.899  1.00  0.00     0.032 A 
HETATM    7  C   UNL     1      -4.553   1.103 -32.478  1.00  0.00     0.039 A 
HETATM    8  C   UNL     1      -5.744   1.756 -32.781  1.00  0.00     0.069 A 
HETATM    9  C   UNL     1      -5.873   3.124 -32.568  1.00  0.00     0.039 A 
HETATM   10  C   UNL     1      -4.819   3.833 -31.985  1.00  0.00     0.032 A 
BRANCH   8  11
HETATM   11  O   UNL     1      -6.789   1.067 -33.331  1.00  0.00    -0.342 OA
BRANCH  11  12
HETATM   12  C   UNL     1      -6.699  -0.326 -33.011  1.00  0.00     0.278 C 
BRANCH  12  13
HETATM   13  C   UNL     1      -6.610  -1.219 -34.249  1.00  0.00     0.241 C 
HETATM   14  N   UNL     1      -5.683  -2.237 -34.145  1.00  0.00    -0.360 N 
HETATM   15  H   UNL     1      -5.350  -2.435 -33.206  1.00  0.00     0.162 HD
HETATM   16  O   UNL     1      -7.279  -1.013 -35.259  1.00  0.00    -0.271 OA
BRANCH  14  17
HETATM   17  C   UNL     1      -5.583  -3.262 -35.161  1.00  0.00     0.118 C 
HETATM   18  C   UNL     1      -6.565  -4.388 -34.910  1.00  0.00     0.026 C 
ENDBRANCH  14  17
ENDBRANCH  12  13
ENDBRANCH  11  12
ENDBRANCH   8  11
ENDBRANCH   1   5
BRANCH   2  19
HETATM   19  C   UNL     1      -0.666   5.146 -30.513  1.00  0.00     0.157 A 
HETATM   20  N   UNL     1       0.406   4.408 -30.145  1.00  0.00    -0.168 NA
HETATM   21  N   UNL     1       1.036   5.187 -29.247  1.00  0.00    -0.277 N 
HETATM   22  H   UNL     1       1.889   4.841 -28.822  1.00  0.00     0.189 HD
HETATM   23  C   UNL     1       0.438   6.397 -29.028  1.00  0.00     0.063 A 
HETATM   24  C   UNL     1      -0.694   6.397 -29.831  1.00  0.00     0.029 A 
HETATM   25  C   UNL     1       0.797   7.476 -28.215  1.00  0.00     0.032 A 
HETATM   26  C   UNL     1      -1.530   7.532 -29.827  1.00  0.00     0.023 A 
HETATM   27  C   UNL     1      -1.204   8.630 -29.013  1.00  0.00    -0.061 A 
HETATM   28  C   UNL     1      -0.044   8.595 -28.231  1.00  0.00     0.009 A 
HETATM   29  C   UNL     1      -2.072   9.856 -29.041  1.00  0.00     0.048 C 
ENDBRANCH   2  19
TORSDOF 6
ENDMDL
MODEL 8
REMARK VINA RESULT:      -7.8      1.948      2.658
REMARK  6 active torsions:
REMARK  status: ('A' for Active; 'I' for Inactive)
REMARK    1  A    between atoms: C_2  and  N_3 
REMARK       I    between atoms: N_3  and  C_4 
REMARK    2  A    between atoms: C_4  and  C_5 
REMARK    3  A    between atoms: C_5  and  O_6 
REMARK    4  A    between atoms: O_6  and  C_7 
REMARK    5  A    between atoms: C_10  and  N_11 
REMARK       I    between atoms: N_11  and  C_12 
REMARK    6  A    between atoms: C_12  and  C_13 
ROOT
HETATM    1  N   UNL     1      -7.850   2.133 -33.193  1.00  0.00    -0.322 N 
HETATM    2  C   UNL     1      -7.711   0.987 -33.956  1.00  0.00     0.277 C 
HETATM    3  O   UNL     1      -8.550   0.514 -34.714  1.00  0.00    -0.266 OA
HETATM    4  H   UNL     1      -7.016   2.359 -32.656  1.00  0.00     0.169 HD
ENDROOT
BRANCH   1   5
HETATM    5  C   UNL     1      -9.002   2.911 -32.994  1.00  0.00     0.035 A 
HETATM    6  C   UNL     1      -9.657   3.599 -34.019  1.00  0.00     0.032 A 
HETATM    7  C   UNL     1     -10.847   4.287 -33.763  1.00  0.00     0.039 A 
HETATM    8  C   UNL     1     -11.386   4.278 -32.481  1.00  0.00     0.069 A 
HETATM    9  C   UNL     1     -10.720   3.643 -31.438  1.00  0.00     0.039 A 
HETATM   10  C   UNL     1      -9.532   2.954 -31.698  1.00  0.00     0.032 A 
BRANCH   8  11
HETATM   11  O   UNL     1     -12.559   4.932 -32.220  1.00  0.00    -0.342 OA
BRANCH  11  12
HETATM   12  C   UNL     1     -13.589   4.493 -33.112  1.00  0.00     0.278 C 
BRANCH  12  13
HETATM   13  C   UNL     1     -14.144   3.114 -32.753  1.00  0.00     0.241 C 
HETATM   14  N   UNL     1     -14.236   2.248 -33.824  1.00  0.00    -0.360 N 
HETATM   15  H   UNL     1     -13.715   2.516 -34.654  1.00  0.00     0.162 HD
HETATM   16  O   UNL     1     -14.512   2.829 -31.617  1.00  0.00    -0.271 OA
BRANCH  14  17
HETATM   17  C   UNL     1     -14.593   0.859 -33.631  1.00  0.00     0.118 C 
HETATM   18  C   UNL     1     -13.378  -0.043 -33.725  1.00  0.00     0.026 C 
ENDBRANCH  14  17
ENDBRANCH  12  13
ENDBRANCH  11  12
ENDBRANCH   8  11
ENDBRANCH   1   5
BRANCH   2  19
HETATM   19  C   UNL     1      -6.405   0.339 -33.730  1.00  0.00     0.157 A 
HETATM   20  N   UNL     1      -5.393   0.987 -33.113  1.00  0.00    -0.168 NA
HETATM   21  N   UNL     1      -4.413   0.066 -33.055  1.00  0.00    -0.277 N 
HETATM   22  H   UNL     1      -3.533   0.324 -32.622  1.00  0.00     0.189 HD
HETATM   23  C   UNL     1      -4.745  -1.149 -33.587  1.00  0.00     0.063 A 
HETATM   24  C   UNL     1      -6.043  -1.001 -34.057  1.00  0.00     0.029 A 
HETATM   25  C   UNL     1      -4.031  -2.347 -33.683  1.00  0.00     0.032 A 
HETATM   26  C   UNL     1      -6.675  -2.103 -34.666  1.00  0.00     0.023 A 
HETATM   27  C   UNL     1      -5.982  -3.319 -34.789  1.00  0.00    -0.061 A 
HETATM   28  C   UNL     1      -4.680  -3.431 -34.287  1.00  0.00     0.009 A 
HETATM   29  C   UNL     1      -6.670  -4.506 -35.400  1.00  0.00     0.048 C 
ENDBRANCH   2  19
TORSDOF 6
ENDMDL
MODEL 9
REMARK VINA RESULT:      -7.5      2.531      3.385
REMARK  6 active torsions:
REMARK  status: ('A' for Active; 'I' for Inactive)
REMARK    1  A    between atoms: C_2  and  N_3 
REMARK       I    between atoms: N_3  and  C_4 
REMARK    2  A    between atoms: C_4  and  C_5 
REMARK    3  A    between atoms: C_5  and  O_6 
REMARK    4  A    between atoms: O_6  and  C_7 
REMARK    5  A    between atoms: C_10  and  N_11 
REMARK       I    between atoms: N_11  and  C_12 
REMARK    6  A    between atoms: C_12  and  C_13 
ROOT
HETATM    1  N   UNL     1      -8.589   0.629 -33.717  1.00  0.00    -0.322 N 
HETATM    2  C   UNL     1      -7.941   0.348 -32.528  1.00  0.00     0.277 C 
HETATM    3  O   UNL     1      -8.403   0.483 -31.400  1.00  0.00    -0.266 OA
HETATM    4  H   UNL     1      -8.028   0.415 -34.538  1.00  0.00     0.169 HD
ENDROOT
BRANCH   1   5
HETATM    5  C   UNL     1      -9.829   1.261 -33.904  1.00  0.00     0.035 A 
HETATM    6  C   UNL     1     -11.054   0.671 -33.582  1.00  0.00     0.032 A 
HETATM    7  C   UNL     1     -12.245   1.392 -33.717  1.00  0.00     0.039 A 
HETATM    8  C   UNL     1     -12.207   2.707 -34.167  1.00  0.00     0.069 A 
HETATM    9  C   UNL     1     -11.002   3.292 -34.543  1.00  0.00     0.039 A 
HETATM   10  C   UNL     1      -9.814   2.570 -34.403  1.00  0.00     0.032 A 
BRANCH   8  11
HETATM   11  O   UNL     1     -13.362   3.429 -34.287  1.00  0.00    -0.342 OA
BRANCH  11  12
HETATM   12  C   UNL     1     -13.444   4.424 -33.260  1.00  0.00     0.278 C 
BRANCH  12  13
HETATM   13  C   UNL     1     -13.432   5.852 -33.808  1.00  0.00     0.241 C 
HETATM   14  N   UNL     1     -14.177   6.020 -34.958  1.00  0.00    -0.360 N 
HETATM   15  H   UNL     1     -14.831   5.273 -35.173  1.00  0.00     0.162 HD
HETATM   16  O   UNL     1     -12.777   6.751 -33.287  1.00  0.00    -0.271 OA
BRANCH  14  17
HETATM   17  C   UNL     1     -14.397   7.336 -35.518  1.00  0.00     0.118 C 
HETATM   18  C   UNL     1     -13.445   7.616 -36.663  1.00  0.00     0.026 C 
ENDBRANCH  14  17
ENDBRANCH  12  13
ENDBRANCH  11  12
ENDBRANCH   8  11
ENDBRANCH   1   5
BRANCH   2  19
HETATM   19  C   UNL     1      -6.561  -0.119 -32.757  1.00  0.00     0.157 A 
HETATM   20  N   UNL     1      -5.498   0.537 -32.237  1.00  0.00    -0.168 NA
HETATM   21  N   UNL     1      -4.445  -0.209 -32.621  1.00  0.00    -0.277 N 
HETATM   22  H   UNL     1      -3.517   0.087 -32.341  1.00  0.00     0.189 HD
HETATM   23  C   UNL     1      -4.772  -1.322 -33.345  1.00  0.00     0.063 A 
HETATM   24  C   UNL     1      -6.155  -1.285 -33.470  1.00  0.00     0.029 A 
HETATM   25  C   UNL     1      -3.985  -2.344 -33.882  1.00  0.00     0.032 A 
HETATM   26  C   UNL     1      -6.801  -2.319 -34.175  1.00  0.00     0.023 A 
HETATM   27  C   UNL     1      -6.039  -3.357 -34.737  1.00  0.00    -0.061 A 
HETATM   28  C   UNL     1      -4.649  -3.365 -34.573  1.00  0.00     0.009 A 
HETATM   29  C   UNL     1      -6.731  -4.482 -35.452  1.00  0.00     0.048 C 
ENDBRANCH   2  19
TORSDOF 6
ENDMDL
MODEL 10
REMARK VINA RESULT:      -7.3      5.789      7.978
REMARK  6 active torsions:
REMARK  status: ('A' for Active; 'I' for Inactive)
REMARK    1  A    between atoms: C_2  and  N_3 
REMARK       I    between atoms: N_3  and  C_4 
REMARK    2  A    between atoms: C_4  and  C_5 
REMARK    3  A    between atoms: C_5  and  O_6 
REMARK    4  A    between atoms: O_6  and  C_7 
REMARK    5  A    between atoms: C_10  and  N_11 
REMARK       I    between atoms: N_11  and  C_12 
REMARK    6  A    between atoms: C_12  and  C_13 
ROOT
HETATM    1  N   UNL     1      -2.862   3.687 -31.225  1.00  0.00    -0.322 N 
HETATM    2  C   UNL     1      -2.060   4.518 -31.985  1.00  0.00     0.277 C 
HETATM    3  O   UNL     1      -2.155   4.712 -33.192  1.00  0.00    -0.266 OA
HETATM    4  H   UNL     1      -2.625   3.698 -30.235  1.00  0.00     0.169 HD
ENDROOT
BRANCH   1   5
HETATM    5  C   UNL     1      -3.840   2.781 -31.665  1.00  0.00     0.035 A 
HETATM    6  C   UNL     1      -3.629   1.403 -31.766  1.00  0.00     0.032 A 
HETATM    7  C   UNL     1      -4.675   0.551 -32.132  1.00  0.00     0.039 A 
HETATM    8  C   UNL     1      -5.937   1.078 -32.390  1.00  0.00     0.069 A 
HETATM    9  C   UNL     1      -6.151   2.452 -32.345  1.00  0.00     0.039 A 
HETATM   10  C   UNL     1      -5.104   3.300 -31.975  1.00  0.00     0.032 A 
BRANCH   8  11
HETATM   11  O   UNL     1      -6.973   0.254 -32.732  1.00  0.00    -0.342 OA
BRANCH  11  12
HETATM   12  C   UNL     1      -8.215   0.779 -32.247  1.00  0.00     0.278 C 
BRANCH  12  13
HETATM   13  C   UNL     1      -9.291   0.861 -33.331  1.00  0.00     0.241 C 
HETATM   14  N   UNL     1     -10.581   0.917 -32.840  1.00  0.00    -0.360 N 
HETATM   15  H   UNL     1     -10.668   1.142 -31.853  1.00  0.00     0.162 HD
HETATM   16  O   UNL     1      -9.022   0.835 -34.529  1.00  0.00    -0.271 OA
BRANCH  14  17
HETATM   17  C   UNL     1     -11.704   1.153 -33.722  1.00  0.00     0.118 C 
HETATM   18  C   UNL     1     -12.763   0.080 -33.567  1.00  0.00     0.026 C 
ENDBRANCH  14  17
ENDBRANCH  12  13
ENDBRANCH  11  12
ENDBRANCH   8  11
ENDBRANCH   1   5
BRANCH   2  19
HETATM   19  C   UNL     1      -1.006   5.151 -31.171  1.00  0.00     0.157 A 
HETATM   20  N   UNL     1       0.277   4.726 -31.221  1.00  0.00    -0.168 NA
HETATM   21  N   UNL     1       0.924   5.567 -30.393  1.00  0.00    -0.277 N 
HETATM   22  H   UNL     1       1.922   5.446 -30.266  1.00  0.00     0.189 HD
HETATM   23  C   UNL     1       0.131   6.525 -29.824  1.00  0.00     0.063 A 
HETATM   24  C   UNL     1      -1.149   6.271 -30.300  1.00  0.00     0.029 A 
HETATM   25  C   UNL     1       0.427   7.581 -28.958  1.00  0.00     0.032 A 
HETATM   26  C   UNL     1      -2.204   7.108 -29.888  1.00  0.00     0.023 A 
HETATM   27  C   UNL     1      -1.944   8.172 -29.008  1.00  0.00    -0.061 A 
HETATM   28  C   UNL     1      -0.636   8.403 -28.566  1.00  0.00     0.009 A 
HETATM   29  C   UNL     1      -3.062   9.090 -28.603  1.00  0.00     0.048 C 
ENDBRANCH   2  19
TORSDOF 6
ENDMDL
