MODEL 1
REMARK VINA RESULT:      -9.8      0.000      0.000
REMARK  8 active torsions:
REMARK  status: ('A' for Active; 'I' for Inactive)
REMARK    1  A    between atoms: C_4  and  N_5 
REMARK       I    between atoms: N_5  and  C_6 
REMARK    2  A    between atoms: C_6  and  C_7 
REMARK    3  A    between atoms: C_7  and  N_8 
REMARK    4  A    between atoms: C_7  and  C_24 
REMARK    5  A    between atoms: N_8  and  C_11 
REMARK    6  A    between atoms: C_11  and  C_12 
REMARK    7  A    between atoms: C_15  and  N_16 
REMARK    8  A    between atoms: C_31  and  O_32 
ROOT
HETATM    1  C   UNL     1      -9.713   1.128 -33.025  1.00  0.00     0.310 C 
ENDROOT
BRANCH   1   2
HETATM    2  C   UNL     1      -8.578   0.424 -33.812  1.00  0.00     0.257 C 
HETATM    3  N   UNL     1      -7.643  -0.289 -33.108  1.00  0.00    -0.323 N 
HETATM    4  H   UNL     1      -7.634  -0.267 -32.088  1.00  0.00     0.169 HD
HETATM    5  O   UNL     1      -8.701   0.439 -35.043  1.00  0.00    -0.270 OA
BRANCH   3   6
HETATM    6  C   UNL     1      -6.701  -1.215 -33.623  1.00  0.00     0.069 A 
HETATM    7  C   UNL     1      -7.049  -2.398 -34.281  1.00  0.00     0.039 A 
HETATM    8  C   UNL     1      -6.059  -3.291 -34.714  1.00  0.00    -0.060 A 
HETATM    9  C   UNL     1      -6.431  -4.549 -35.445  1.00  0.00     0.048 C 
HETATM   10  C   UNL     1      -4.714  -2.975 -34.502  1.00  0.00     0.009 A 
HETATM   11  C   UNL     1      -4.354  -1.790 -33.855  1.00  0.00     0.039 A 
HETATM   12  C   UNL     1      -5.341  -0.904 -33.416  1.00  0.00     0.095 A 
BRANCH  12  13
HETATM   13  O   UNL     1      -5.106   0.277 -32.748  1.00  0.00    -0.354 OA
HETATM   14  C   UNL     1      -3.764   0.523 -32.338  1.00  0.00     0.210 C 
ENDBRANCH  12  13
ENDBRANCH   3   6
ENDBRANCH   1   2
BRANCH   1  15
HETATM   15  N   UNL     1      -9.300   2.576 -32.939  1.00  0.00    -0.054 N 
HETATM   16  H   UNL     1      -8.706   2.731 -33.774  1.00  0.00     0.278 HD
HETATM   17  H   UNL     1     -10.109   3.182 -33.111  1.00  0.00     0.278 HD
BRANCH  15  18
HETATM   18  C   UNL     1      -8.563   3.050 -31.748  1.00  0.00     0.272 C 
BRANCH  18  19
HETATM   19  C   UNL     1      -7.130   3.258 -32.156  1.00  0.00    -0.033 A 
HETATM   20  C   UNL     1      -6.155   3.527 -31.192  1.00  0.00     0.011 A 
HETATM   21  C   UNL     1      -4.880   3.958 -31.575  1.00  0.00     0.030 A 
HETATM   22  C   UNL     1      -4.541   4.140 -32.921  1.00  0.00     0.037 A 
HETATM   23  C   UNL     1      -5.504   3.799 -33.881  1.00  0.00     0.030 A 
HETATM   24  C   UNL     1      -6.785   3.371 -33.508  1.00  0.00     0.011 A 
BRANCH  22  25
HETATM   25  N   UNL     1      -3.285   4.679 -33.310  1.00  0.00    -0.318 N 
HETATM   26  C   UNL     1      -2.999   5.294 -34.543  1.00  0.00     0.224 C 
HETATM   27  O   UNL     1      -3.753   5.532 -35.474  1.00  0.00    -0.273 OA
HETATM   28  C   UNL     1      -1.511   5.548 -34.601  1.00  0.00     0.105 C 
HETATM   29  C   UNL     1      -1.083   5.445 -33.150  1.00  0.00     0.029 C 
HETATM   30  C   UNL     1      -2.068   4.459 -32.563  1.00  0.00     0.133 C 
ENDBRANCH  22  25
ENDBRANCH  18  19
ENDBRANCH  15  18
ENDBRANCH   1  15
BRANCH   1  31
HETATM   31  C   UNL     1     -11.122   0.921 -33.530  1.00  0.00    -0.019 A 
HETATM   32  C   UNL     1     -11.720   1.921 -34.318  1.00  0.00     0.010 A 
HETATM   33  C   UNL     1     -13.027   1.774 -34.783  1.00  0.00     0.001 A 
HETATM   34  C   UNL     1     -13.755   0.632 -34.468  1.00  0.00     0.000 A 
HETATM   35  C   UNL     1     -13.182  -0.364 -33.681  1.00  0.00     0.001 A 
HETATM   36  C   UNL     1     -11.875  -0.223 -33.210  1.00  0.00     0.010 A 
ENDBRANCH   1  31
TORSDOF 8
ENDMDL
MODEL 2
REMARK VINA RESULT:      -9.5      1.455      5.323
REMARK  8 active torsions:
REMARK  status: ('A' for Active; 'I' for Inactive)
REMARK    1  A    between atoms: C_4  and  N_5 
REMARK       I    between atoms: N_5  and  C_6 
REMARK    2  A    between atoms: C_6  and  C_7 
REMARK    3  A    between atoms: C_7  and  N_8 
REMARK    4  A    between atoms: C_7  and  C_24 
REMARK    5  A    between atoms: N_8  and  C_11 
REMARK    6  A    between atoms: C_11  and  C_12 
REMARK    7  A    between atoms: C_15  and  N_16 
REMARK    8  A    between atoms: C_31  and  O_32 
ROOT
HETATM    1  C   UNL     1      -6.591  -0.028 -33.286  1.00  0.00     0.310 C 
ENDROOT
BRANCH   1   2
HETATM    2  C   UNL     1      -7.968   0.500 -33.761  1.00  0.00     0.257 C 
HETATM    3  N   UNL     1      -8.983   0.586 -32.845  1.00  0.00    -0.323 N 
HETATM    4  H   UNL     1      -8.865   0.211 -31.903  1.00  0.00     0.169 HD
HETATM    5  O   UNL     1      -7.992   0.952 -34.913  1.00  0.00    -0.270 OA
BRANCH   3   6
HETATM    6  C   UNL     1     -10.213   1.278 -32.985  1.00  0.00     0.069 A 
HETATM    7  C   UNL     1     -11.335   0.751 -33.632  1.00  0.00     0.039 A 
HETATM    8  C   UNL     1     -12.499   1.519 -33.778  1.00  0.00    -0.060 A 
HETATM    9  C   UNL     1     -13.714   0.945 -34.448  1.00  0.00     0.048 C 
HETATM   10  C   UNL     1     -12.535   2.812 -33.250  1.00  0.00     0.009 A 
HETATM   11  C   UNL     1     -11.423   3.345 -32.592  1.00  0.00     0.039 A 
HETATM   12  C   UNL     1     -10.261   2.583 -32.454  1.00  0.00     0.095 A 
BRANCH  12  13
HETATM   13  O   UNL     1      -9.100   3.011 -31.848  1.00  0.00    -0.354 OA
HETATM   14  C   UNL     1      -9.167   3.270 -30.450  1.00  0.00     0.210 C 
ENDBRANCH  12  13
ENDBRANCH   3   6
ENDBRANCH   1   2
BRANCH   1  15
HETATM   15  N   UNL     1      -6.640   0.030 -31.780  1.00  0.00    -0.054 N 
HETATM   16  H   UNL     1      -7.386   0.716 -31.566  1.00  0.00     0.278 HD
HETATM   17  H   UNL     1      -7.016  -0.848 -31.406  1.00  0.00     0.278 HD
BRANCH  15  18
HETATM   18  C   UNL     1      -5.425   0.415 -31.029  1.00  0.00     0.272 C 
BRANCH  18  19
HETATM   19  C   UNL     1      -4.899   1.684 -31.641  1.00  0.00    -0.033 A 
HETATM   20  C   UNL     1      -3.671   1.689 -32.308  1.00  0.00     0.011 A 
HETATM   21  C   UNL     1      -3.064   2.898 -32.666  1.00  0.00     0.030 A 
HETATM   22  C   UNL     1      -3.652   4.132 -32.365  1.00  0.00     0.037 A 
HETATM   23  C   UNL     1      -4.916   4.113 -31.759  1.00  0.00     0.030 A 
HETATM   24  C   UNL     1      -5.531   2.908 -31.393  1.00  0.00     0.011 A 
BRANCH  22  25
HETATM   25  N   UNL     1      -2.990   5.361 -32.629  1.00  0.00    -0.318 N 
HETATM   26  C   UNL     1      -3.000   6.055 -33.852  1.00  0.00     0.224 C 
HETATM   27  O   UNL     1      -3.599   5.786 -34.882  1.00  0.00    -0.273 OA
HETATM   28  C   UNL     1      -2.024   7.204 -33.742  1.00  0.00     0.105 C 
HETATM   29  C   UNL     1      -1.829   7.353 -32.246  1.00  0.00     0.029 C 
HETATM   30  C   UNL     1      -2.026   5.946 -31.725  1.00  0.00     0.133 C 
ENDBRANCH  22  25
ENDBRANCH  18  19
ENDBRANCH  15  18
ENDBRANCH   1  15
BRANCH   1  31
HETATM   31  C   UNL     1      -6.148  -1.365 -33.833  1.00  0.00    -0.019 A 
HETATM   32  C   UNL     1      -7.121  -2.289 -34.254  1.00  0.00     0.010 A 
HETATM   33  C   UNL     1      -6.751  -3.542 -34.744  1.00  0.00     0.001 A 
HETATM   34  C   UNL     1      -5.406  -3.890 -34.819  1.00  0.00     0.000 A 
HETATM   35  C   UNL     1      -4.429  -2.992 -34.397  1.00  0.00     0.001 A 
HETATM   36  C   UNL     1      -4.794  -1.737 -33.903  1.00  0.00     0.010 A 
ENDBRANCH   1  31
TORSDOF 8
ENDMDL
MODEL 3
REMARK VINA RESULT:      -9.4      1.296      1.711
REMARK  8 active torsions:
REMARK  status: ('A' for Active; 'I' for Inactive)
REMARK    1  A    between atoms: C_4  and  N_5 
REMARK       I    between atoms: N_5  and  C_6 
REMARK    2  A    between atoms: C_6  and  C_7 
REMARK    3  A    between atoms: C_7  and  N_8 
REMARK    4  A    between atoms: C_7  and  C_24 
REMARK    5  A    between atoms: N_8  and  C_11 
REMARK    6  A    between atoms: C_11  and  C_12 
REMARK    7  A    between atoms: C_15  and  N_16 
REMARK    8  A    between atoms: C_31  and  O_32 
ROOT
HETATM    1  C   UNL     1      -9.166   1.449 -33.017  1.00  0.00     0.310 C 
ENDROOT
BRANCH   1   2
HETATM    2  C   UNL     1      -8.103   0.635 -33.799  1.00  0.00     0.257 C 
HETATM    3  N   UNL     1      -7.291  -0.216 -33.096  1.00  0.00    -0.323 N 
HETATM    4  H   UNL     1      -7.314  -0.232 -32.076  1.00  0.00     0.169 HD
HETATM    5  O   UNL     1      -8.181   0.709 -35.031  1.00  0.00    -0.270 OA
BRANCH   3   6
HETATM    6  C   UNL     1      -6.456  -1.236 -33.619  1.00  0.00     0.069 A 
HETATM    7  C   UNL     1      -6.932  -2.372 -34.279  1.00  0.00     0.039 A 
HETATM    8  C   UNL     1      -6.046  -3.364 -34.721  1.00  0.00    -0.060 A 
HETATM    9  C   UNL     1      -6.554  -4.572 -35.455  1.00  0.00     0.048 C 
HETATM   10  C   UNL     1      -4.674  -3.195 -34.514  1.00  0.00     0.009 A 
HETATM   11  C   UNL     1      -4.186  -2.059 -33.865  1.00  0.00     0.039 A 
HETATM   12  C   UNL     1      -5.070  -1.074 -33.417  1.00  0.00     0.095 A 
BRANCH  12  13
HETATM   13  O   UNL     1      -4.706   0.071 -32.746  1.00  0.00    -0.354 OA
HETATM   14  C   UNL     1      -3.795  -0.085 -31.662  1.00  0.00     0.210 C 
ENDBRANCH  12  13
ENDBRANCH   3   6
ENDBRANCH   1   2
BRANCH   1  15
HETATM   15  N   UNL     1      -8.507   2.769 -32.704  1.00  0.00    -0.054 N 
HETATM   16  H   UNL     1      -7.743   2.853 -33.399  1.00  0.00     0.278 HD
HETATM   17  H   UNL     1      -9.134   3.542 -32.951  1.00  0.00     0.278 HD
BRANCH  15  18
HETATM   18  C   UNL     1      -7.940   2.993 -31.357  1.00  0.00     0.272 C 
BRANCH  18  19
HETATM   19  C   UNL     1      -6.523   3.466 -31.537  1.00  0.00    -0.033 A 
HETATM   20  C   UNL     1      -5.869   4.141 -30.502  1.00  0.00     0.011 A 
HETATM   21  C   UNL     1      -4.653   4.792 -30.738  1.00  0.00     0.030 A 
HETATM   22  C   UNL     1      -4.058   4.797 -32.005  1.00  0.00     0.037 A 
HETATM   23  C   UNL     1      -4.686   4.058 -33.017  1.00  0.00     0.030 A 
HETATM   24  C   UNL     1      -5.907   3.406 -32.792  1.00  0.00     0.011 A 
BRANCH  22  25
HETATM   25  N   UNL     1      -2.880   5.545 -32.275  1.00  0.00    -0.318 N 
HETATM   26  C   UNL     1      -1.584   5.229 -31.830  1.00  0.00     0.224 C 
HETATM   27  O   UNL     1      -1.208   4.258 -31.191  1.00  0.00    -0.273 OA
HETATM   28  C   UNL     1      -0.676   6.382 -32.189  1.00  0.00     0.105 C 
HETATM   29  C   UNL     1      -1.464   7.130 -33.247  1.00  0.00     0.029 C 
HETATM   30  C   UNL     1      -2.903   6.864 -32.864  1.00  0.00     0.133 C 
ENDBRANCH  22  25
ENDBRANCH  18  19
ENDBRANCH  15  18
ENDBRANCH   1  15
BRANCH   1  31
HETATM   31  C   UNL     1     -10.529   1.581 -33.658  1.00  0.00    -0.019 A 
HETATM   32  C   UNL     1     -11.484   0.570 -33.452  1.00  0.00     0.010 A 
HETATM   33  C   UNL     1     -12.744   0.648 -34.046  1.00  0.00     0.001 A 
HETATM   34  C   UNL     1     -13.067   1.733 -34.853  1.00  0.00     0.000 A 
HETATM   35  C   UNL     1     -12.131   2.739 -35.077  1.00  0.00     0.001 A 
HETATM   36  C   UNL     1     -10.867   2.666 -34.487  1.00  0.00     0.010 A 
ENDBRANCH   1  31
TORSDOF 8
ENDMDL
MODEL 4
REMARK VINA RESULT:      -9.2      1.579      5.639
REMARK  8 active torsions:
REMARK  status: ('A' for Active; 'I' for Inactive)
REMARK    1  A    between atoms: C_4  and  N_5 
REMARK       I    between atoms: N_5  and  C_6 
REMARK    2  A    between atoms: C_6  and  C_7 
REMARK    3  A    between atoms: C_7  and  N_8 
REMARK    4  A    between atoms: C_7  and  C_24 
REMARK    5  A    between atoms: N_8  and  C_11 
REMARK    6  A    between atoms: C_11  and  C_12 
REMARK    7  A    between atoms: C_15  and  N_16 
REMARK    8  A    between atoms: C_31  and  O_32 
ROOT
HETATM    1  C   UNL     1      -6.768  -0.034 -33.347  1.00  0.00     0.310 C 
ENDROOT
BRANCH   1   2
HETATM    2  C   UNL     1      -7.900   0.651 -34.155  1.00  0.00     0.257 C 
HETATM    3  N   UNL     1      -8.897   1.288 -33.464  1.00  0.00    -0.323 N 
HETATM    4  H   UNL     1      -8.949   1.221 -32.447  1.00  0.00     0.169 HD
HETATM    5  O   UNL     1      -7.723   0.697 -35.379  1.00  0.00    -0.270 OA
BRANCH   3   6
HETATM    6  C   UNL     1      -9.859   2.193 -33.981  1.00  0.00     0.069 A 
HETATM    7  C   UNL     1      -9.557   3.483 -34.427  1.00  0.00     0.039 A 
HETATM    8  C   UNL     1     -10.573   4.338 -34.875  1.00  0.00    -0.060 A 
HETATM    9  C   UNL     1     -10.246   5.714 -35.380  1.00  0.00     0.048 C 
HETATM   10  C   UNL     1     -11.893   3.880 -34.893  1.00  0.00     0.009 A 
HETATM   11  C   UNL     1     -12.205   2.589 -34.460  1.00  0.00     0.039 A 
HETATM   12  C   UNL     1     -11.194   1.739 -34.005  1.00  0.00     0.095 A 
BRANCH  12  13
HETATM   13  O   UNL     1     -11.386   0.460 -33.534  1.00  0.00    -0.354 OA
HETATM   14  C   UNL     1     -12.716  -0.048 -33.588  1.00  0.00     0.210 C 
ENDBRANCH  12  13
ENDBRANCH   3   6
ENDBRANCH   1   2
BRANCH   1  15
HETATM   15  N   UNL     1      -7.266  -0.082 -31.924  1.00  0.00    -0.054 N 
HETATM   16  H   UNL     1      -7.960   0.684 -31.862  1.00  0.00     0.278 HD
HETATM   17  H   UNL     1      -7.834  -0.924 -31.779  1.00  0.00     0.278 HD
BRANCH  15  18
HETATM   18  C   UNL     1      -6.302   0.070 -30.813  1.00  0.00     0.272 C 
BRANCH  18  19
HETATM   19  C   UNL     1      -5.414   1.239 -31.143  1.00  0.00    -0.033 A 
HETATM   20  C   UNL     1      -5.956   2.521 -31.273  1.00  0.00     0.011 A 
HETATM   21  C   UNL     1      -5.193   3.562 -31.812  1.00  0.00     0.030 A 
HETATM   22  C   UNL     1      -3.876   3.359 -32.243  1.00  0.00     0.037 A 
HETATM   23  C   UNL     1      -3.320   2.088 -32.042  1.00  0.00     0.030 A 
HETATM   24  C   UNL     1      -4.078   1.037 -31.507  1.00  0.00     0.011 A 
BRANCH  22  25
HETATM   25  N   UNL     1      -3.133   4.384 -32.888  1.00  0.00    -0.318 N 
HETATM   26  C   UNL     1      -3.499   5.042 -34.076  1.00  0.00     0.224 C 
HETATM   27  O   UNL     1      -4.515   4.915 -34.742  1.00  0.00    -0.273 OA
HETATM   28  C   UNL     1      -2.341   5.918 -34.497  1.00  0.00     0.105 C 
HETATM   29  C   UNL     1      -1.514   6.034 -33.232  1.00  0.00     0.029 C 
HETATM   30  C   UNL     1      -1.779   4.727 -32.518  1.00  0.00     0.133 C 
ENDBRANCH  22  25
ENDBRANCH  18  19
ENDBRANCH  15  18
ENDBRANCH   1  15
BRANCH   1  31
HETATM   31  C   UNL     1      -6.269  -1.363 -33.866  1.00  0.00    -0.019 A 
HETATM   32  C   UNL     1      -7.203  -2.337 -34.265  1.00  0.00     0.010 A 
HETATM   33  C   UNL     1      -6.779  -3.583 -34.729  1.00  0.00     0.001 A 
HETATM   34  C   UNL     1      -5.421  -3.875 -34.799  1.00  0.00     0.000 A 
HETATM   35  C   UNL     1      -4.483  -2.926 -34.399  1.00  0.00     0.001 A 
HETATM   36  C   UNL     1      -4.900  -1.678 -33.932  1.00  0.00     0.010 A 
ENDBRANCH   1  31
TORSDOF 8
ENDMDL
MODEL 5
REMARK VINA RESULT:      -9.2      2.337      5.836
REMARK  8 active torsions:
REMARK  status: ('A' for Active; 'I' for Inactive)
REMARK    1  A    between atoms: C_4  and  N_5 
REMARK       I    between atoms: N_5  and  C_6 
REMARK    2  A    between atoms: C_6  and  C_7 
REMARK    3  A    between atoms: C_7  and  N_8 
REMARK    4  A    between atoms: C_7  and  C_24 
REMARK    5  A    between atoms: N_8  and  C_11 
REMARK    6  A    between atoms: C_11  and  C_12 
REMARK    7  A    between atoms: C_15  and  N_16 
REMARK    8  A    between atoms: C_31  and  O_32 
ROOT
HETATM    1  C   UNL     1      -6.880   1.416 -34.223  1.00  0.00     0.310 C 
ENDROOT
BRANCH   1   2
HETATM    2  C   UNL     1      -8.347   1.620 -33.767  1.00  0.00     0.257 C 
HETATM    3  N   UNL     1      -9.272   2.001 -34.704  1.00  0.00    -0.323 N 
HETATM    4  H   UNL     1      -8.981   2.245 -35.651  1.00  0.00     0.169 HD
HETATM    5  O   UNL     1      -8.594   1.268 -32.607  1.00  0.00    -0.270 OA
BRANCH   3   6
HETATM    6  C   UNL     1     -10.684   1.981 -34.576  1.00  0.00     0.069 A 
HETATM    7  C   UNL     1     -11.413   0.868 -34.145  1.00  0.00     0.039 A 
HETATM    8  C   UNL     1     -12.813   0.909 -34.096  1.00  0.00    -0.060 A 
HETATM    9  C   UNL     1     -13.596  -0.276 -33.607  1.00  0.00     0.048 C 
HETATM   10  C   UNL     1     -13.475   2.084 -34.462  1.00  0.00     0.009 A 
HETATM   11  C   UNL     1     -12.757   3.205 -34.885  1.00  0.00     0.039 A 
HETATM   12  C   UNL     1     -11.362   3.162 -34.941  1.00  0.00     0.095 A 
BRANCH  12  13
HETATM   13  O   UNL     1     -10.554   4.194 -35.363  1.00  0.00    -0.354 OA
HETATM   14  C   UNL     1     -10.647   5.416 -34.638  1.00  0.00     0.210 C 
ENDBRANCH  12  13
ENDBRANCH   3   6
ENDBRANCH   1   2
BRANCH   1  15
HETATM   15  N   UNL     1      -6.069   2.392 -33.409  1.00  0.00    -0.054 N 
HETATM   16  H   UNL     1      -6.587   2.485 -32.516  1.00  0.00     0.278 HD
HETATM   17  H   UNL     1      -5.184   1.961 -33.122  1.00  0.00     0.278 HD
BRANCH  15  18
HETATM   18  C   UNL     1      -5.816   3.748 -33.944  1.00  0.00     0.272 C 
BRANCH  18  19
HETATM   19  C   UNL     1      -4.555   4.259 -33.303  1.00  0.00    -0.033 A 
HETATM   20  C   UNL     1      -3.945   3.535 -32.274  1.00  0.00     0.011 A 
HETATM   21  C   UNL     1      -2.922   4.111 -31.513  1.00  0.00     0.030 A 
HETATM   22  C   UNL     1      -2.482   5.419 -31.746  1.00  0.00     0.037 A 
HETATM   23  C   UNL     1      -3.052   6.110 -32.826  1.00  0.00     0.030 A 
HETATM   24  C   UNL     1      -4.080   5.543 -33.591  1.00  0.00     0.011 A 
BRANCH  22  25
HETATM   25  N   UNL     1      -1.520   6.046 -30.909  1.00  0.00    -0.318 N 
HETATM   26  C   UNL     1      -0.174   5.661 -30.770  1.00  0.00     0.224 C 
HETATM   27  O   UNL     1       0.436   4.781 -31.357  1.00  0.00    -0.273 OA
HETATM   28  C   UNL     1       0.429   6.478 -29.650  1.00  0.00     0.105 C 
HETATM   29  C   UNL     1      -0.541   7.633 -29.500  1.00  0.00     0.029 C 
HETATM   30  C   UNL     1      -1.867   7.034 -29.913  1.00  0.00     0.133 C 
ENDBRANCH  22  25
ENDBRANCH  18  19
ENDBRANCH  15  18
ENDBRANCH   1  15
BRANCH   1  31
HETATM   31  C   UNL     1      -6.347   0.001 -34.191  1.00  0.00    -0.019 A 
HETATM   32  C   UNL     1      -5.135  -0.259 -33.528  1.00  0.00     0.010 A 
HETATM   33  C   UNL     1      -4.602  -1.548 -33.497  1.00  0.00     0.001 A 
HETATM   34  C   UNL     1      -5.269  -2.593 -34.128  1.00  0.00     0.000 A 
HETATM   35  C   UNL     1      -6.466  -2.351 -34.798  1.00  0.00     0.001 A 
HETATM   36  C   UNL     1      -7.004  -1.063 -34.835  1.00  0.00     0.010 A 
ENDBRANCH   1  31
TORSDOF 8
ENDMDL
MODEL 6
REMARK VINA RESULT:      -8.8      2.049      2.695
REMARK  8 active torsions:
REMARK  status: ('A' for Active; 'I' for Inactive)
REMARK    1  A    between atoms: C_4  and  N_5 
REMARK       I    between atoms: N_5  and  C_6 
REMARK    2  A    between atoms: C_6  and  C_7 
REMARK    3  A    between atoms: C_7  and  N_8 
REMARK    4  A    between atoms: C_7  and  C_24 
REMARK    5  A    between atoms: N_8  and  C_11 
REMARK    6  A    between atoms: C_11  and  C_12 
REMARK    7  A    between atoms: C_15  and  N_16 
REMARK    8  A    between atoms: C_31  and  O_32 
ROOT
HETATM    1  C   UNL     1      -7.583   2.291 -32.944  1.00  0.00     0.310 C 
ENDROOT
BRANCH   1   2
HETATM    2  C   UNL     1      -7.334   0.767 -33.074  1.00  0.00     0.257 C 
HETATM    3  N   UNL     1      -6.446   0.333 -34.023  1.00  0.00    -0.323 N 
HETATM    4  H   UNL     1      -6.043   0.987 -34.695  1.00  0.00     0.169 HD
HETATM    5  O   UNL     1      -7.850   0.069 -32.192  1.00  0.00    -0.270 OA
BRANCH   3   6
HETATM    6  C   UNL     1      -5.870  -0.958 -34.136  1.00  0.00     0.069 A 
HETATM    7  C   UNL     1      -6.519  -2.055 -34.712  1.00  0.00     0.039 A 
HETATM    8  C   UNL     1      -5.904  -3.314 -34.737  1.00  0.00    -0.060 A 
HETATM    9  C   UNL     1      -6.589  -4.486 -35.380  1.00  0.00     0.048 C 
HETATM   10  C   UNL     1      -4.622  -3.459 -34.200  1.00  0.00     0.009 A 
HETATM   11  C   UNL     1      -3.960  -2.368 -33.632  1.00  0.00     0.039 A 
HETATM   12  C   UNL     1      -4.576  -1.115 -33.599  1.00  0.00     0.095 A 
BRANCH  12  13
HETATM   13  O   UNL     1      -4.031   0.021 -33.045  1.00  0.00    -0.354 OA
HETATM   14  C   UNL     1      -3.584  -0.077 -31.696  1.00  0.00     0.210 C 
ENDBRANCH  12  13
ENDBRANCH   3   6
ENDBRANCH   1   2
BRANCH   1  15
HETATM   15  N   UNL     1      -6.692   2.931 -33.978  1.00  0.00    -0.054 N 
HETATM   16  H   UNL     1      -5.769   2.478 -33.847  1.00  0.00     0.278 HD
HETATM   17  H   UNL     1      -6.970   2.628 -34.918  1.00  0.00     0.278 HD
BRANCH  15  18
HETATM   18  C   UNL     1      -6.499   4.397 -33.960  1.00  0.00     0.272 C 
BRANCH  18  19
HETATM   19  C   UNL     1      -5.271   4.681 -33.139  1.00  0.00    -0.033 A 
HETATM   20  C   UNL     1      -5.170   5.870 -32.412  1.00  0.00     0.011 A 
HETATM   21  C   UNL     1      -3.949   6.253 -31.846  1.00  0.00     0.030 A 
HETATM   22  C   UNL     1      -2.796   5.473 -31.993  1.00  0.00     0.037 A 
HETATM   23  C   UNL     1      -2.926   4.249 -32.664  1.00  0.00     0.030 A 
HETATM   24  C   UNL     1      -4.143   3.858 -33.237  1.00  0.00     0.011 A 
BRANCH  22  25
HETATM   25  N   UNL     1      -1.531   5.909 -31.513  1.00  0.00    -0.318 N 
HETATM   26  C   UNL     1      -0.771   6.969 -32.040  1.00  0.00     0.224 C 
HETATM   27  O   UNL     1      -1.053   7.738 -32.945  1.00  0.00    -0.273 OA
HETATM   28  C   UNL     1       0.574   6.963 -31.351  1.00  0.00     0.105 C 
HETATM   29  C   UNL     1       0.328   6.124 -30.113  1.00  0.00     0.029 C 
HETATM   30  C   UNL     1      -0.754   5.161 -30.551  1.00  0.00     0.133 C 
ENDBRANCH  22  25
ENDBRANCH  18  19
ENDBRANCH  15  18
ENDBRANCH   1  15
BRANCH   1  31
HETATM   31  C   UNL     1      -9.021   2.753 -33.004  1.00  0.00    -0.019 A 
HETATM   32  C   UNL     1      -9.781   2.480 -34.155  1.00  0.00     0.010 A 
HETATM   33  C   UNL     1     -11.104   2.910 -34.255  1.00  0.00     0.001 A 
HETATM   34  C   UNL     1     -11.686   3.620 -33.210  1.00  0.00     0.000 A 
HETATM   35  C   UNL     1     -10.946   3.909 -32.066  1.00  0.00     0.001 A 
HETATM   36  C   UNL     1      -9.620   3.483 -31.961  1.00  0.00     0.010 A 
ENDBRANCH   1  31
TORSDOF 8
ENDMDL
MODEL 7
REMARK VINA RESULT:      -8.7      2.551      8.051
REMARK  8 active torsions:
REMARK  status: ('A' for Active; 'I' for Inactive)
REMARK    1  A    between atoms: C_4  and  N_5 
REMARK       I    between atoms: N_5  and  C_6 
REMARK    2  A    between atoms: C_6  and  C_7 
REMARK    3  A    between atoms: C_7  and  N_8 
REMARK    4  A    between atoms: C_7  and  C_24 
REMARK    5  A    between atoms: N_8  and  C_11 
REMARK    6  A    between atoms: C_11  and  C_12 
REMARK    7  A    between atoms: C_15  and  N_16 
REMARK    8  A    between atoms: C_31  and  O_32 
ROOT
HETATM    1  C   UNL     1      -3.524   4.212 -31.524  1.00  0.00     0.310 C 
ENDROOT
BRANCH   1   2
HETATM    2  C   UNL     1      -5.054   4.085 -31.741  1.00  0.00     0.257 C 
HETATM    3  N   UNL     1      -5.518   3.933 -33.022  1.00  0.00    -0.323 N 
HETATM    4  H   UNL     1      -4.882   4.010 -33.816  1.00  0.00     0.169 HD
HETATM    5  O   UNL     1      -5.728   3.976 -30.709  1.00  0.00    -0.270 OA
BRANCH   3   6
HETATM    6  C   UNL     1      -6.817   3.534 -33.424  1.00  0.00     0.069 A 
HETATM    7  C   UNL     1      -7.171   2.214 -33.719  1.00  0.00     0.039 A 
HETATM    8  C   UNL     1      -8.465   1.905 -34.163  1.00  0.00    -0.060 A 
HETATM    9  C   UNL     1      -8.854   0.484 -34.455  1.00  0.00     0.048 C 
HETATM   10  C   UNL     1      -9.407   2.929 -34.286  1.00  0.00     0.009 A 
HETATM   11  C   UNL     1      -9.068   4.251 -33.983  1.00  0.00     0.039 A 
HETATM   12  C   UNL     1      -7.777   4.559 -33.549  1.00  0.00     0.095 A 
BRANCH  12  13
HETATM   13  O   UNL     1      -7.324   5.824 -33.246  1.00  0.00    -0.354 OA
HETATM   14  C   UNL     1      -8.206   6.657 -32.499  1.00  0.00     0.210 C 
ENDBRANCH  12  13
ENDBRANCH   3   6
ENDBRANCH   1   2
BRANCH   1  15
HETATM   15  N   UNL     1      -2.971   2.830 -31.764  1.00  0.00    -0.054 N 
HETATM   16  H   UNL     1      -3.191   2.627 -32.756  1.00  0.00     0.278 HD
HETATM   17  H   UNL     1      -1.946   2.855 -31.752  1.00  0.00     0.278 HD
BRANCH  15  18
HETATM   18  C   UNL     1      -3.455   1.702 -30.939  1.00  0.00     0.272 C 
BRANCH  18  19
HETATM   19  C   UNL     1      -4.078   0.697 -31.868  1.00  0.00    -0.033 A 
HETATM   20  C   UNL     1      -5.328   0.145 -31.573  1.00  0.00     0.011 A 
HETATM   21  C   UNL     1      -5.804  -0.957 -32.292  1.00  0.00     0.030 A 
HETATM   22  C   UNL     1      -5.052  -1.544 -33.317  1.00  0.00     0.037 A 
HETATM   23  C   UNL     1      -3.833  -0.937 -33.652  1.00  0.00     0.030 A 
HETATM   24  C   UNL     1      -3.345   0.164 -32.934  1.00  0.00     0.011 A 
BRANCH  22  25
HETATM   25  N   UNL     1      -5.481  -2.726 -33.978  1.00  0.00    -0.318 N 
HETATM   26  C   UNL     1      -4.716  -3.892 -34.160  1.00  0.00     0.224 C 
HETATM   27  O   UNL     1      -3.590  -4.141 -33.757  1.00  0.00    -0.273 OA
HETATM   28  C   UNL     1      -5.491  -4.819 -35.068  1.00  0.00     0.105 C 
HETATM   29  C   UNL     1      -6.904  -4.276 -34.996  1.00  0.00     0.029 C 
HETATM   30  C   UNL     1      -6.699  -2.797 -34.753  1.00  0.00     0.133 C 
ENDBRANCH  22  25
ENDBRANCH  18  19
ENDBRANCH  15  18
ENDBRANCH   1  15
BRANCH   1  31
HETATM   31  C   UNL     1      -2.815   5.300 -32.297  1.00  0.00    -0.019 A 
HETATM   32  C   UNL     1      -2.019   4.946 -33.401  1.00  0.00     0.010 A 
HETATM   33  C   UNL     1      -1.331   5.921 -34.126  1.00  0.00     0.001 A 
HETATM   34  C   UNL     1      -1.426   7.258 -33.758  1.00  0.00     0.000 A 
HETATM   35  C   UNL     1      -2.202   7.626 -32.661  1.00  0.00     0.001 A 
HETATM   36  C   UNL     1      -2.891   6.655 -31.930  1.00  0.00     0.010 A 
ENDBRANCH   1  31
TORSDOF 8
ENDMDL
MODEL 8
REMARK VINA RESULT:      -8.7      3.052      5.023
REMARK  8 active torsions:
REMARK  status: ('A' for Active; 'I' for Inactive)
REMARK    1  A    between atoms: C_4  and  N_5 
REMARK       I    between atoms: N_5  and  C_6 
REMARK    2  A    between atoms: C_6  and  C_7 
REMARK    3  A    between atoms: C_7  and  N_8 
REMARK    4  A    between atoms: C_7  and  C_24 
REMARK    5  A    between atoms: N_8  and  C_11 
REMARK    6  A    between atoms: C_11  and  C_12 
REMARK    7  A    between atoms: C_15  and  N_16 
REMARK    8  A    between atoms: C_31  and  O_32 
ROOT
HETATM    1  C   UNL     1      -7.195   2.376 -33.022  1.00  0.00     0.310 C 
ENDROOT
BRANCH   1   2
HETATM    2  C   UNL     1      -7.031   0.835 -33.085  1.00  0.00     0.257 C 
HETATM    3  N   UNL     1      -6.257   0.305 -34.084  1.00  0.00    -0.323 N 
HETATM    4  H   UNL     1      -5.887   0.900 -34.825  1.00  0.00     0.169 HD
HETATM    5  O   UNL     1      -7.497   0.214 -32.122  1.00  0.00    -0.270 OA
BRANCH   3   6
HETATM    6  C   UNL     1      -5.756  -1.018 -34.172  1.00  0.00     0.069 A 
HETATM    7  C   UNL     1      -6.453  -2.079 -34.759  1.00  0.00     0.039 A 
HETATM    8  C   UNL     1      -5.914  -3.373 -34.760  1.00  0.00    -0.060 A 
HETATM    9  C   UNL     1      -6.650  -4.507 -35.414  1.00  0.00     0.048 C 
HETATM   10  C   UNL     1      -4.658  -3.590 -34.187  1.00  0.00     0.009 A 
HETATM   11  C   UNL     1      -3.947  -2.535 -33.608  1.00  0.00     0.039 A 
HETATM   12  C   UNL     1      -4.488  -1.248 -33.599  1.00  0.00     0.095 A 
BRANCH  12  13
HETATM   13  O   UNL     1      -3.892  -0.141 -33.037  1.00  0.00    -0.354 OA
HETATM   14  C   UNL     1      -3.181  -0.347 -31.820  1.00  0.00     0.210 C 
ENDBRANCH  12  13
ENDBRANCH   3   6
ENDBRANCH   1   2
BRANCH   1  15
HETATM   15  N   UNL     1      -8.008   2.639 -31.779  1.00  0.00    -0.054 N 
HETATM   16  H   UNL     1      -8.763   1.929 -31.803  1.00  0.00     0.278 HD
HETATM   17  H   UNL     1      -7.470   2.381 -30.945  1.00  0.00     0.278 HD
BRANCH  15  18
HETATM   18  C   UNL     1      -8.626   3.969 -31.586  1.00  0.00     0.272 C 
BRANCH  18  19
HETATM   19  C   UNL     1      -7.693   4.780 -30.730  1.00  0.00    -0.033 A 
HETATM   20  C   UNL     1      -7.229   6.022 -31.174  1.00  0.00     0.011 A 
HETATM   21  C   UNL     1      -6.184   6.669 -30.506  1.00  0.00     0.030 A 
HETATM   22  C   UNL     1      -5.565   6.099 -29.387  1.00  0.00     0.037 A 
HETATM   23  C   UNL     1      -6.085   4.888 -28.908  1.00  0.00     0.030 A 
HETATM   24  C   UNL     1      -7.129   4.230 -29.573  1.00  0.00     0.011 A 
BRANCH  22  25
HETATM   25  N   UNL     1      -4.434   6.699 -28.770  1.00  0.00    -0.318 N 
HETATM   26  C   UNL     1      -4.404   7.271 -27.486  1.00  0.00     0.224 C 
HETATM   27  O   UNL     1      -5.290   7.321 -26.647  1.00  0.00    -0.273 OA
HETATM   28  C   UNL     1      -3.064   7.949 -27.311  1.00  0.00     0.105 C 
HETATM   29  C   UNL     1      -2.213   7.323 -28.399  1.00  0.00     0.029 C 
HETATM   30  C   UNL     1      -3.215   6.999 -29.485  1.00  0.00     0.133 C 
ENDBRANCH  22  25
ENDBRANCH  18  19
ENDBRANCH  15  18
ENDBRANCH   1  15
BRANCH   1  31
HETATM   31  C   UNL     1      -5.931   3.199 -33.112  1.00  0.00    -0.019 A 
HETATM   32  C   UNL     1      -5.788   4.121 -34.164  1.00  0.00     0.010 A 
HETATM   33  C   UNL     1      -4.626   4.882 -34.292  1.00  0.00     0.001 A 
HETATM   34  C   UNL     1      -3.591   4.734 -33.375  1.00  0.00     0.000 A 
HETATM   35  C   UNL     1      -3.711   3.819 -32.331  1.00  0.00     0.001 A 
HETATM   36  C   UNL     1      -4.871   3.052 -32.199  1.00  0.00     0.010 A 
ENDBRANCH   1  31
TORSDOF 8
ENDMDL
MODEL 9
REMARK VINA RESULT:      -8.6      2.123      8.428
REMARK  8 active torsions:
REMARK  status: ('A' for Active; 'I' for Inactive)
REMARK    1  A    between atoms: C_4  and  N_5 
REMARK       I    between atoms: N_5  and  C_6 
REMARK    2  A    between atoms: C_6  and  C_7 
REMARK    3  A    between atoms: C_7  and  N_8 
REMARK    4  A    between atoms: C_7  and  C_24 
REMARK    5  A    between atoms: N_8  and  C_11 
REMARK    6  A    between atoms: C_11  and  C_12 
REMARK    7  A    between atoms: C_15  and  N_16 
REMARK    8  A    between atoms: C_31  and  O_32 
ROOT
HETATM    1  C   UNL     1      -5.307   2.251 -32.341  1.00  0.00     0.310 C 
ENDROOT
BRANCH   1   2
HETATM    2  C   UNL     1      -4.300   3.341 -31.891  1.00  0.00     0.257 C 
HETATM    3  N   UNL     1      -3.334   3.738 -32.778  1.00  0.00    -0.323 N 
HETATM    4  H   UNL     1      -3.216   3.254 -33.668  1.00  0.00     0.169 HD
HETATM    5  O   UNL     1      -4.553   3.878 -30.806  1.00  0.00    -0.270 OA
BRANCH   3   6
HETATM    6  C   UNL     1      -2.500   4.881 -32.686  1.00  0.00     0.069 A 
HETATM    7  C   UNL     1      -1.362   4.954 -31.876  1.00  0.00     0.039 A 
HETATM    8  C   UNL     1      -0.619   6.140 -31.797  1.00  0.00    -0.060 A 
HETATM    9  C   UNL     1       0.619   6.211 -30.949  1.00  0.00     0.048 C 
HETATM   10  C   UNL     1      -1.014   7.245 -32.555  1.00  0.00     0.009 A 
HETATM   11  C   UNL     1      -2.142   7.181 -33.376  1.00  0.00     0.039 A 
HETATM   12  C   UNL     1      -2.888   6.002 -33.448  1.00  0.00     0.095 A 
BRANCH  12  13
HETATM   13  O   UNL     1      -4.028   5.831 -34.201  1.00  0.00    -0.354 OA
HETATM   14  C   UNL     1      -3.874   5.168 -35.453  1.00  0.00     0.210 C 
ENDBRANCH  12  13
ENDBRANCH   3   6
ENDBRANCH   1   2
BRANCH   1  15
HETATM   15  N   UNL     1      -5.887   2.756 -33.639  1.00  0.00    -0.054 N 
HETATM   16  H   UNL     1      -5.075   3.129 -34.163  1.00  0.00     0.278 HD
HETATM   17  H   UNL     1      -6.196   1.967 -34.216  1.00  0.00     0.278 HD
BRANCH  15  18
HETATM   18  C   UNL     1      -6.938   3.796 -33.607  1.00  0.00     0.272 C 
BRANCH  18  19
HETATM   19  C   UNL     1      -8.258   3.099 -33.421  1.00  0.00    -0.033 A 
HETATM   20  C   UNL     1      -8.579   1.981 -34.196  1.00  0.00     0.011 A 
HETATM   21  C   UNL     1      -9.884   1.476 -34.205  1.00  0.00     0.030 A 
HETATM   22  C   UNL     1     -10.905   2.069 -33.453  1.00  0.00     0.037 A 
HETATM   23  C   UNL     1     -10.555   3.146 -32.625  1.00  0.00     0.030 A 
HETATM   24  C   UNL     1      -9.252   3.662 -32.613  1.00  0.00     0.011 A 
BRANCH  22  25
HETATM   25  N   UNL     1     -12.253   1.628 -33.541  1.00  0.00    -0.318 N 
HETATM   26  C   UNL     1     -13.395   2.435 -33.389  1.00  0.00     0.224 C 
HETATM   27  O   UNL     1     -13.463   3.641 -33.212  1.00  0.00    -0.273 OA
HETATM   28  C   UNL     1     -14.605   1.529 -33.376  1.00  0.00     0.105 C 
HETATM   29  C   UNL     1     -14.082   0.240 -33.979  1.00  0.00     0.029 C 
HETATM   30  C   UNL     1     -12.623   0.232 -33.577  1.00  0.00     0.133 C 
ENDBRANCH  22  25
ENDBRANCH  18  19
ENDBRANCH  15  18
ENDBRANCH   1  15
BRANCH   1  31
HETATM   31  C   UNL     1      -4.790   0.833 -32.412  1.00  0.00    -0.019 A 
HETATM   32  C   UNL     1      -5.330  -0.046 -33.368  1.00  0.00     0.010 A 
HETATM   33  C   UNL     1      -4.893  -1.368 -33.448  1.00  0.00     0.001 A 
HETATM   34  C   UNL     1      -3.915  -1.832 -32.576  1.00  0.00     0.000 A 
HETATM   35  C   UNL     1      -3.375  -0.979 -31.616  1.00  0.00     0.001 A 
HETATM   36  C   UNL     1      -3.810   0.346 -31.529  1.00  0.00     0.010 A 
ENDBRANCH   1  31
TORSDOF 8
ENDMDL
MODEL 10
REMARK VINA RESULT:      -8.6      2.281      8.210
REMARK  8 active torsions:
REMARK  status: ('A' for Active; 'I' for Inactive)
REMARK    1  A    between atoms: C_4  and  N_5 
REMARK       I    between atoms: N_5  and  C_6 
REMARK    2  A    between atoms: C_6  and  C_7 
REMARK    3  A    between atoms: C_7  and  N_8 
REMARK    4  A    between atoms: C_7  and  C_24 
REMARK    5  A    between atoms: N_8  and  C_11 
REMARK    6  A    between atoms: C_11  and  C_12 
REMARK    7  A    between atoms: C_15  and  N_16 
REMARK    8  A    between atoms: C_31  and  O_32 
ROOT
HETATM    1  C   UNL     1      -4.211   1.799 -31.154  1.00  0.00     0.310 C 
ENDROOT
BRANCH   1   2
HETATM    2  C   UNL     1      -3.435   2.971 -31.808  1.00  0.00     0.257 C 
HETATM    3  N   UNL     1      -3.561   4.220 -31.258  1.00  0.00    -0.323 N 
HETATM    4  H   UNL     1      -4.229   4.392 -30.507  1.00  0.00     0.169 HD
HETATM    5  O   UNL     1      -2.634   2.646 -32.693  1.00  0.00    -0.270 OA
BRANCH   3   6
HETATM    6  C   UNL     1      -2.752   5.357 -31.514  1.00  0.00     0.069 A 
HETATM    7  C   UNL     1      -1.418   5.472 -31.112  1.00  0.00     0.039 A 
HETATM    8  C   UNL     1      -0.700   6.651 -31.354  1.00  0.00    -0.060 A 
HETATM    9  C   UNL     1       0.741   6.766 -30.947  1.00  0.00     0.048 C 
HETATM   10  C   UNL     1      -1.325   7.706 -32.024  1.00  0.00     0.009 A 
HETATM   11  C   UNL     1      -2.655   7.598 -32.440  1.00  0.00     0.039 A 
HETATM   12  C   UNL     1      -3.373   6.426 -32.191  1.00  0.00     0.095 A 
BRANCH  12  13
HETATM   13  O   UNL     1      -4.691   6.217 -32.532  1.00  0.00    -0.354 OA
HETATM   14  C   UNL     1      -5.652   7.077 -31.927  1.00  0.00     0.210 C 
ENDBRANCH  12  13
ENDBRANCH   3   6
ENDBRANCH   1   2
BRANCH   1  15
HETATM   15  N   UNL     1      -5.611   2.318 -30.940  1.00  0.00    -0.054 N 
HETATM   16  H   UNL     1      -5.486   3.218 -30.442  1.00  0.00     0.278 HD
HETATM   17  H   UNL     1      -6.022   2.602 -31.836  1.00  0.00     0.278 HD
BRANCH  15  18
HETATM   18  C   UNL     1      -6.580   1.497 -30.182  1.00  0.00     0.272 C 
BRANCH  18  19
HETATM   19  C   UNL     1      -7.876   1.506 -30.947  1.00  0.00    -0.033 A 
HETATM   20  C   UNL     1      -8.190   0.456 -31.814  1.00  0.00     0.011 A 
HETATM   21  C   UNL     1      -9.264   0.568 -32.704  1.00  0.00     0.030 A 
HETATM   22  C   UNL     1     -10.049   1.726 -32.763  1.00  0.00     0.037 A 
HETATM   23  C   UNL     1      -9.769   2.744 -31.840  1.00  0.00     0.030 A 
HETATM   24  C   UNL     1      -8.692   2.643 -30.948  1.00  0.00     0.011 A 
BRANCH  22  25
HETATM   25  N   UNL     1     -11.072   1.888 -33.736  1.00  0.00    -0.318 N 
HETATM   26  C   UNL     1     -11.107   2.876 -34.737  1.00  0.00     0.224 C 
HETATM   27  O   UNL     1     -10.274   3.729 -35.001  1.00  0.00    -0.273 OA
HETATM   28  C   UNL     1     -12.451   2.794 -35.423  1.00  0.00     0.105 C 
HETATM   29  C   UNL     1     -12.956   1.418 -35.036  1.00  0.00     0.029 C 
HETATM   30  C   UNL     1     -12.333   1.185 -33.677  1.00  0.00     0.133 C 
ENDBRANCH  22  25
ENDBRANCH  18  19
ENDBRANCH  15  18
ENDBRANCH   1  15
BRANCH   1  31
HETATM   31  C   UNL     1      -4.154   0.465 -31.862  1.00  0.00    -0.019 A 
HETATM   32  C   UNL     1      -4.915   0.277 -33.030  1.00  0.00     0.010 A 
HETATM   33  C   UNL     1      -4.904  -0.948 -33.698  1.00  0.00     0.001 A 
HETATM   34  C   UNL     1      -4.137  -2.001 -33.210  1.00  0.00     0.000 A 
HETATM   35  C   UNL     1      -3.385  -1.835 -32.049  1.00  0.00     0.001 A 
HETATM   36  C   UNL     1      -3.393  -0.612 -31.374  1.00  0.00     0.010 A 
ENDBRANCH   1  31
TORSDOF 8
ENDMDL
