MODEL 1
REMARK VINA RESULT:      -8.8      0.000      0.000
REMARK  7 active torsions:
REMARK  status: ('A' for Active; 'I' for Inactive)
REMARK    1  A    between atoms: O_2  and  C_3 
REMARK    2  A    between atoms: C_6  and  C_7 
REMARK    3  A    between atoms: C_11  and  C_12 
REMARK       I    between atoms: C_12  and  N_13 
REMARK    4  A    between atoms: N_13  and  N_14 
REMARK       I    between atoms: N_14  and  C_15 
REMARK    5  A    between atoms: C_15  and  C_16 
REMARK    6  A    between atoms: C_16  and  C_17 
REMARK    7  A    between atoms: C_17  and  C_18 
ROOT
HETATM    1  C   UNL     1      -3.785   4.075 -31.318  1.00  0.00     0.288 C 
HETATM    2  N   UNL     1      -2.423   3.910 -31.181  1.00  0.00    -0.262 N 
HETATM    3  O   UNL     1      -4.337   5.139 -31.042  1.00  0.00    -0.264 OA
HETATM    4  H   UNL     1      -1.922   3.062 -31.435  1.00  0.00     0.190 HD
ENDROOT
BRANCH   1   5
HETATM    5  C   UNL     1      -4.502   2.937 -31.818  1.00  0.00     0.121 A 
HETATM    6  N   UNL     1      -5.866   2.919 -31.880  1.00  0.00    -0.272 N 
HETATM    7  N   UNL     1      -6.379   1.802 -32.412  1.00  0.00    -0.174 NA
HETATM    8  H   UNL     1      -6.500   3.656 -31.584  1.00  0.00     0.189 HD
HETATM    9  C   UNL     1      -5.312   1.038 -32.696  1.00  0.00     0.089 A 
HETATM   10  C   UNL     1      -4.114   1.713 -32.326  1.00  0.00     0.071 A 
BRANCH   9  11
HETATM   11  C   UNL     1      -5.451  -0.275 -33.332  1.00  0.00    -0.005 A 
HETATM   12  C   UNL     1      -6.668  -0.653 -33.919  1.00  0.00     0.016 A 
HETATM   13  C   UNL     1      -6.805  -1.886 -34.569  1.00  0.00     0.037 A 
HETATM   14  C   UNL     1      -5.724  -2.763 -34.640  1.00  0.00     0.068 A 
HETATM   15  C   UNL     1      -4.517  -2.406 -34.035  1.00  0.00     0.037 A 
HETATM   16  C   UNL     1      -4.377  -1.172 -33.389  1.00  0.00     0.016 A 
BRANCH  14  17
HETATM   17  O   UNL     1      -5.719  -3.985 -35.253  1.00  0.00    -0.356 OA
HETATM   18  C   UNL     1      -5.096  -5.050 -34.546  1.00  0.00     0.210 C 
ENDBRANCH  14  17
ENDBRANCH   9  11
ENDBRANCH   1   5
BRANCH   2  19
HETATM   19  N   UNL     1      -1.647   5.000 -30.776  1.00  0.00    -0.267 N 
HETATM   20  C   UNL     1      -0.928   5.678 -31.736  1.00  0.00     0.236 C 
HETATM   21  O   UNL     1      -0.866   5.305 -32.906  1.00  0.00    -0.272 OA
HETATM   22  H   UNL     1      -1.831   5.368 -29.843  1.00  0.00     0.190 HD
BRANCH  20  23
HETATM   23  C   UNL     1      -0.222   6.910 -31.227  1.00  0.00     0.109 C 
BRANCH  23  24
HETATM   24  C   UNL     1       0.455   6.637 -29.888  1.00  0.00     0.048 C 
BRANCH  24  25
HETATM   25  C   UNL     1       0.267   7.782 -28.921  1.00  0.00    -0.058 A 
HETATM   26  C   UNL     1       1.304   8.166 -28.061  1.00  0.00     0.009 A 
HETATM   27  C   UNL     1       1.124   9.221 -27.162  1.00  0.00     0.024 A 
HETATM   28  C   UNL     1      -0.095   9.892 -27.119  1.00  0.00     0.034 A 
HETATM   29 CL   UNL     1      -0.316  11.190 -26.011  1.00  0.00    -0.084 Cl
HETATM   30  C   UNL     1      -1.135   9.520 -27.966  1.00  0.00     0.024 A 
HETATM   31  C   UNL     1      -0.954   8.468 -28.866  1.00  0.00     0.009 A 
ENDBRANCH  24  25
ENDBRANCH  23  24
ENDBRANCH  20  23
ENDBRANCH   2  19
TORSDOF 7
ENDMDL
MODEL 2
REMARK VINA RESULT:      -8.7      4.369     11.723
REMARK  7 active torsions:
REMARK  status: ('A' for Active; 'I' for Inactive)
REMARK    1  A    between atoms: O_2  and  C_3 
REMARK    2  A    between atoms: C_6  and  C_7 
REMARK    3  A    between atoms: C_11  and  C_12 
REMARK       I    between atoms: C_12  and  N_13 
REMARK    4  A    between atoms: N_13  and  N_14 
REMARK       I    between atoms: N_14  and  C_15 
REMARK    5  A    between atoms: C_15  and  C_16 
REMARK    6  A    between atoms: C_16  and  C_17 
REMARK    7  A    between atoms: C_17  and  C_18 
ROOT
HETATM    1  C   UNL     1      -1.769   4.785 -31.895  1.00  0.00     0.288 C 
HETATM    2  N   UNL     1      -2.829   4.193 -31.243  1.00  0.00    -0.262 N 
HETATM    3  O   UNL     1      -1.573   4.613 -33.097  1.00  0.00    -0.264 OA
HETATM    4  H   UNL     1      -3.049   4.340 -30.261  1.00  0.00     0.190 HD
ENDROOT
BRANCH   1   5
HETATM    5  C   UNL     1      -0.930   5.623 -31.086  1.00  0.00     0.121 A 
HETATM    6  N   UNL     1      -0.083   6.540 -31.641  1.00  0.00    -0.272 N 
HETATM    7  N   UNL     1       0.597   7.272 -30.748  1.00  0.00    -0.174 NA
HETATM    8  H   UNL     1       0.059   6.719 -32.631  1.00  0.00     0.189 HD
HETATM    9  C   UNL     1       0.200   6.808 -29.553  1.00  0.00     0.089 A 
HETATM   10  C   UNL     1      -0.751   5.762 -29.724  1.00  0.00     0.071 A 
BRANCH   9  11
HETATM   11  C   UNL     1       0.698   7.381 -28.299  1.00  0.00    -0.005 A 
HETATM   12  C   UNL     1       1.442   8.570 -28.310  1.00  0.00     0.016 A 
HETATM   13  C   UNL     1       1.888   9.155 -27.118  1.00  0.00     0.037 A 
HETATM   14  C   UNL     1       1.598   8.556 -25.894  1.00  0.00     0.068 A 
HETATM   15  C   UNL     1       0.880   7.359 -25.876  1.00  0.00     0.037 A 
HETATM   16  C   UNL     1       0.429   6.775 -27.066  1.00  0.00     0.016 A 
BRANCH  14  17
HETATM   17  O   UNL     1       1.960   9.027 -24.663  1.00  0.00    -0.356 OA
HETATM   18  C   UNL     1       3.345   9.268 -24.455  1.00  0.00     0.210 C 
ENDBRANCH  14  17
ENDBRANCH   9  11
ENDBRANCH   1   5
BRANCH   2  19
HETATM   19  N   UNL     1      -3.735   3.427 -31.982  1.00  0.00    -0.267 N 
HETATM   20  C   UNL     1      -3.707   2.058 -31.825  1.00  0.00     0.236 C 
HETATM   21  O   UNL     1      -2.861   1.485 -31.143  1.00  0.00    -0.272 OA
HETATM   22  H   UNL     1      -4.507   3.930 -32.418  1.00  0.00     0.190 HD
BRANCH  20  23
HETATM   23  C   UNL     1      -4.799   1.327 -32.565  1.00  0.00     0.109 C 
BRANCH  23  24
HETATM   24  C   UNL     1      -5.140   0.011 -31.873  1.00  0.00     0.048 C 
BRANCH  24  25
HETATM   25  C   UNL     1      -5.400  -1.094 -32.869  1.00  0.00    -0.058 A 
HETATM   26  C   UNL     1      -6.666  -1.248 -33.449  1.00  0.00     0.009 A 
HETATM   27  C   UNL     1      -6.904  -2.278 -34.364  1.00  0.00     0.024 A 
HETATM   28  C   UNL     1      -5.879  -3.158 -34.698  1.00  0.00     0.034 A 
HETATM   29 CL   UNL     1      -6.174  -4.427 -35.822  1.00  0.00    -0.084 Cl
HETATM   30  C   UNL     1      -4.616  -3.019 -34.126  1.00  0.00     0.024 A 
HETATM   31  C   UNL     1      -4.377  -1.989 -33.215  1.00  0.00     0.009 A 
ENDBRANCH  24  25
ENDBRANCH  23  24
ENDBRANCH  20  23
ENDBRANCH   2  19
TORSDOF 7
ENDMDL
MODEL 3
REMARK VINA RESULT:      -8.3      1.720      2.088
REMARK  7 active torsions:
REMARK  status: ('A' for Active; 'I' for Inactive)
REMARK    1  A    between atoms: O_2  and  C_3 
REMARK    2  A    between atoms: C_6  and  C_7 
REMARK    3  A    between atoms: C_11  and  C_12 
REMARK       I    between atoms: C_12  and  N_13 
REMARK    4  A    between atoms: N_13  and  N_14 
REMARK       I    between atoms: N_14  and  C_15 
REMARK    5  A    between atoms: C_15  and  C_16 
REMARK    6  A    between atoms: C_16  and  C_17 
REMARK    7  A    between atoms: C_17  and  C_18 
ROOT
HETATM    1  C   UNL     1      -3.404   3.738 -31.334  1.00  0.00     0.288 C 
HETATM    2  N   UNL     1      -2.088   4.030 -31.042  1.00  0.00    -0.262 N 
HETATM    3  O   UNL     1      -4.280   4.601 -31.297  1.00  0.00    -0.264 OA
HETATM    4  H   UNL     1      -1.328   3.357 -31.098  1.00  0.00     0.190 HD
ENDROOT
BRANCH   1   5
HETATM    5  C   UNL     1      -3.673   2.377 -31.697  1.00  0.00     0.121 A 
HETATM    6  N   UNL     1      -3.099   1.330 -31.033  1.00  0.00    -0.272 N 
HETATM    7  N   UNL     1      -3.488   0.123 -31.465  1.00  0.00    -0.174 NA
HETATM    8  H   UNL     1      -2.440   1.384 -30.261  1.00  0.00     0.189 HD
HETATM    9  C   UNL     1      -4.340   0.379 -32.470  1.00  0.00     0.089 A 
HETATM   10  C   UNL     1      -4.473   1.785 -32.654  1.00  0.00     0.071 A 
BRANCH   9  11
HETATM   11  C   UNL     1      -5.021  -0.696 -33.197  1.00  0.00    -0.005 A 
HETATM   12  C   UNL     1      -4.287  -1.767 -33.729  1.00  0.00     0.016 A 
HETATM   13  C   UNL     1      -4.926  -2.825 -34.388  1.00  0.00     0.037 A 
HETATM   14  C   UNL     1      -6.312  -2.826 -34.528  1.00  0.00     0.068 A 
HETATM   15  C   UNL     1      -7.048  -1.751 -34.025  1.00  0.00     0.037 A 
HETATM   16  C   UNL     1      -6.412  -0.695 -33.361  1.00  0.00     0.016 A 
BRANCH  14  17
HETATM   17  O   UNL     1      -7.058  -3.798 -35.134  1.00  0.00    -0.356 OA
HETATM   18  C   UNL     1      -6.352  -4.932 -35.622  1.00  0.00     0.210 C 
ENDBRANCH  14  17
ENDBRANCH   9  11
ENDBRANCH   1   5
BRANCH   2  19
HETATM   19  N   UNL     1      -1.736   5.353 -30.757  1.00  0.00    -0.267 N 
HETATM   20  C   UNL     1      -0.405   5.699 -30.827  1.00  0.00     0.236 C 
HETATM   21  O   UNL     1       0.486   4.877 -31.032  1.00  0.00    -0.272 OA
HETATM   22  H   UNL     1      -2.496   6.032 -30.735  1.00  0.00     0.190 HD
BRANCH  20  23
HETATM   23  C   UNL     1      -0.135   7.169 -30.626  1.00  0.00     0.109 C 
BRANCH  23  24
HETATM   24  C   UNL     1       0.670   7.407 -29.352  1.00  0.00     0.048 C 
BRANCH  24  25
HETATM   25  C   UNL     1      -0.223   7.568 -28.146  1.00  0.00    -0.058 A 
HETATM   26  C   UNL     1      -0.840   8.796 -27.874  1.00  0.00     0.009 A 
HETATM   27  C   UNL     1      -1.659   8.943 -26.751  1.00  0.00     0.024 A 
HETATM   28  C   UNL     1      -1.862   7.863 -25.896  1.00  0.00     0.034 A 
HETATM   29 CL   UNL     1      -2.870   8.045 -24.514  1.00  0.00    -0.084 Cl
HETATM   30  C   UNL     1      -1.254   6.637 -26.153  1.00  0.00     0.024 A 
HETATM   31  C   UNL     1      -0.437   6.489 -27.276  1.00  0.00     0.009 A 
ENDBRANCH  24  25
ENDBRANCH  23  24
ENDBRANCH  20  23
ENDBRANCH   2  19
TORSDOF 7
ENDMDL
MODEL 4
REMARK VINA RESULT:      -8.1      1.426      2.007
REMARK  7 active torsions:
REMARK  status: ('A' for Active; 'I' for Inactive)
REMARK    1  A    between atoms: O_2  and  C_3 
REMARK    2  A    between atoms: C_6  and  C_7 
REMARK    3  A    between atoms: C_11  and  C_12 
REMARK       I    between atoms: C_12  and  N_13 
REMARK    4  A    between atoms: N_13  and  N_14 
REMARK       I    between atoms: N_14  and  C_15 
REMARK    5  A    between atoms: C_15  and  C_16 
REMARK    6  A    between atoms: C_16  and  C_17 
REMARK    7  A    between atoms: C_17  and  C_18 
ROOT
HETATM    1  C   UNL     1      -3.028   4.016 -31.402  1.00  0.00     0.288 C 
HETATM    2  N   UNL     1      -3.648   4.993 -30.653  1.00  0.00    -0.262 N 
HETATM    3  O   UNL     1      -1.830   4.074 -31.673  1.00  0.00    -0.264 OA
HETATM    4  H   UNL     1      -4.626   4.964 -30.374  1.00  0.00     0.190 HD
ENDROOT
BRANCH   1   5
HETATM    5  C   UNL     1      -3.865   2.929 -31.822  1.00  0.00     0.121 A 
HETATM    6  N   UNL     1      -5.223   2.970 -31.676  1.00  0.00    -0.272 N 
HETATM    7  N   UNL     1      -5.862   1.897 -32.159  1.00  0.00    -0.174 NA
HETATM    8  H   UNL     1      -5.769   3.720 -31.262  1.00  0.00     0.189 HD
HETATM    9  C   UNL     1      -4.887   1.101 -32.628  1.00  0.00     0.089 A 
HETATM   10  C   UNL     1      -3.617   1.711 -32.423  1.00  0.00     0.071 A 
BRANCH   9  11
HETATM   11  C   UNL     1      -5.182  -0.179 -33.277  1.00  0.00    -0.005 A 
HETATM   12  C   UNL     1      -6.481  -0.465 -33.722  1.00  0.00     0.016 A 
HETATM   13  C   UNL     1      -6.771  -1.665 -34.384  1.00  0.00     0.037 A 
HETATM   14  C   UNL     1      -5.763  -2.601 -34.608  1.00  0.00     0.068 A 
HETATM   15  C   UNL     1      -4.473  -2.335 -34.145  1.00  0.00     0.037 A 
HETATM   16  C   UNL     1      -4.180  -1.135 -33.488  1.00  0.00     0.016 A 
BRANCH  14  17
HETATM   17  O   UNL     1      -5.908  -3.799 -35.250  1.00  0.00    -0.356 OA
HETATM   18  C   UNL     1      -5.313  -4.931 -34.628  1.00  0.00     0.210 C 
ENDBRANCH  14  17
ENDBRANCH   9  11
ENDBRANCH   1   5
BRANCH   2  19
HETATM   19  N   UNL     1      -2.880   6.042 -30.141  1.00  0.00    -0.267 N 
HETATM   20  C   UNL     1      -3.532   7.060 -29.479  1.00  0.00     0.236 C 
HETATM   21  O   UNL     1      -4.757   7.130 -29.408  1.00  0.00    -0.272 OA
HETATM   22  H   UNL     1      -1.874   5.887 -30.087  1.00  0.00     0.190 HD
BRANCH  20  23
HETATM   23  C   UNL     1      -2.613   8.081 -28.855  1.00  0.00     0.109 C 
BRANCH  23  24
HETATM   24  C   UNL     1      -1.171   7.866 -29.306  1.00  0.00     0.048 C 
BRANCH  24  25
HETATM   25  C   UNL     1      -0.188   8.166 -28.200  1.00  0.00    -0.058 A 
HETATM   26  C   UNL     1       0.760   7.211 -27.810  1.00  0.00     0.009 A 
HETATM   27  C   UNL     1       1.663   7.490 -26.781  1.00  0.00     0.024 A 
HETATM   28  C   UNL     1       1.619   8.723 -26.136  1.00  0.00     0.034 A 
HETATM   29 CL   UNL     1       2.730   9.065 -24.868  1.00  0.00    -0.084 Cl
HETATM   30  C   UNL     1       0.680   9.681 -26.511  1.00  0.00     0.024 A 
HETATM   31  C   UNL     1      -0.220   9.404 -27.542  1.00  0.00     0.009 A 
ENDBRANCH  24  25
ENDBRANCH  23  24
ENDBRANCH  20  23
ENDBRANCH   2  19
TORSDOF 7
ENDMDL
MODEL 5
REMARK VINA RESULT:      -8.0      1.809      2.224
REMARK  7 active torsions:
REMARK  status: ('A' for Active; 'I' for Inactive)
REMARK    1  A    between atoms: O_2  and  C_3 
REMARK    2  A    between atoms: C_6  and  C_7 
REMARK    3  A    between atoms: C_11  and  C_12 
REMARK       I    between atoms: C_12  and  N_13 
REMARK    4  A    between atoms: N_13  and  N_14 
REMARK       I    between atoms: N_14  and  C_15 
REMARK    5  A    between atoms: C_15  and  C_16 
REMARK    6  A    between atoms: C_16  and  C_17 
REMARK    7  A    between atoms: C_17  and  C_18 
ROOT
HETATM    1  C   UNL     1      -5.736   3.948 -29.986  1.00  0.00     0.288 C 
HETATM    2  N   UNL     1      -4.505   4.471 -30.318  1.00  0.00    -0.262 N 
HETATM    3  O   UNL     1      -6.504   4.537 -29.227  1.00  0.00    -0.264 OA
HETATM    4  H   UNL     1      -3.857   4.037 -30.970  1.00  0.00     0.190 HD
ENDROOT
BRANCH   1   5
HETATM    5  C   UNL     1      -6.062   2.690 -30.594  1.00  0.00     0.121 A 
HETATM    6  N   UNL     1      -7.250   2.062 -30.352  1.00  0.00    -0.272 N 
HETATM    7  N   UNL     1      -7.419   0.919 -31.032  1.00  0.00    -0.174 NA
HETATM    8  H   UNL     1      -7.994   2.380 -29.738  1.00  0.00     0.189 HD
HETATM    9  C   UNL     1      -6.287   0.773 -31.739  1.00  0.00     0.089 A 
HETATM   10  C   UNL     1      -5.404   1.860 -31.481  1.00  0.00     0.071 A 
BRANCH   9  11
HETATM   11  C   UNL     1      -6.087  -0.356 -32.651  1.00  0.00    -0.005 A 
HETATM   12  C   UNL     1      -7.166  -0.873 -33.384  1.00  0.00     0.016 A 
HETATM   13  C   UNL     1      -6.985  -1.923 -34.294  1.00  0.00     0.037 A 
HETATM   14  C   UNL     1      -5.720  -2.476 -34.481  1.00  0.00     0.068 A 
HETATM   15  C   UNL     1      -4.646  -1.985 -33.736  1.00  0.00     0.037 A 
HETATM   16  C   UNL     1      -4.824  -0.932 -32.830  1.00  0.00     0.016 A 
BRANCH  14  17
HETATM   17  O   UNL     1      -5.405  -3.490 -35.342  1.00  0.00    -0.356 OA
HETATM   18  C   UNL     1      -6.340  -4.557 -35.439  1.00  0.00     0.210 C 
ENDBRANCH  14  17
ENDBRANCH   9  11
ENDBRANCH   1   5
BRANCH   2  19
HETATM   19  N   UNL     1      -4.151   5.731 -29.827  1.00  0.00    -0.267 N 
HETATM   20  C   UNL     1      -3.810   6.710 -30.735  1.00  0.00     0.236 C 
HETATM   21  O   UNL     1      -3.712   6.492 -31.941  1.00  0.00    -0.272 OA
HETATM   22  H   UNL     1      -4.379   5.921 -28.852  1.00  0.00     0.190 HD
BRANCH  20  23
HETATM   23  C   UNL     1      -3.565   8.066 -30.123  1.00  0.00     0.109 C 
BRANCH  23  24
HETATM   24  C   UNL     1      -2.203   8.614 -30.539  1.00  0.00     0.048 C 
BRANCH  24  25
HETATM   25  C   UNL     1      -1.171   8.437 -29.452  1.00  0.00    -0.058 A 
HETATM   26  C   UNL     1      -1.168   9.275 -28.328  1.00  0.00     0.009 A 
HETATM   27  C   UNL     1      -0.206   9.113 -27.328  1.00  0.00     0.024 A 
HETATM   28  C   UNL     1       0.759   8.116 -27.450  1.00  0.00     0.034 A 
HETATM   29 CL   UNL     1       1.944   7.919 -26.219  1.00  0.00    -0.084 Cl
HETATM   30  C   UNL     1       0.769   7.278 -28.562  1.00  0.00     0.024 A 
HETATM   31  C   UNL     1      -0.194   7.437 -29.560  1.00  0.00     0.009 A 
ENDBRANCH  24  25
ENDBRANCH  23  24
ENDBRANCH  20  23
ENDBRANCH   2  19
TORSDOF 7
ENDMDL
MODEL 6
REMARK VINA RESULT:      -8.0      8.368     11.962
REMARK  7 active torsions:
REMARK  status: ('A' for Active; 'I' for Inactive)
REMARK    1  A    between atoms: O_2  and  C_3 
REMARK    2  A    between atoms: C_6  and  C_7 
REMARK    3  A    between atoms: C_11  and  C_12 
REMARK       I    between atoms: C_12  and  N_13 
REMARK    4  A    between atoms: N_13  and  N_14 
REMARK       I    between atoms: N_14  and  C_15 
REMARK    5  A    between atoms: C_15  and  C_16 
REMARK    6  A    between atoms: C_16  and  C_17 
REMARK    7  A    between atoms: C_17  and  C_18 
ROOT
HETATM    1  C   UNL     1     -10.805   1.920 -33.582  1.00  0.00     0.288 C 
HETATM    2  N   UNL     1     -10.057   1.138 -32.728  1.00  0.00    -0.262 N 
HETATM    3  O   UNL     1     -10.297   2.495 -34.543  1.00  0.00    -0.264 OA
HETATM    4  H   UNL     1     -10.444   0.615 -31.946  1.00  0.00     0.190 HD
ENDROOT
BRANCH   1   5
HETATM    5  C   UNL     1     -12.207   2.000 -33.284  1.00  0.00     0.121 A 
HETATM    6  N   UNL     1     -13.019   0.904 -33.352  1.00  0.00    -0.272 N 
HETATM    7  N   UNL     1     -14.291   1.138 -33.000  1.00  0.00    -0.174 NA
HETATM    8  H   UNL     1     -12.751  -0.038 -33.619  1.00  0.00     0.189 HD
HETATM    9  C   UNL     1     -14.329   2.448 -32.707  1.00  0.00     0.089 A 
HETATM   10  C   UNL     1     -13.040   3.027 -32.885  1.00  0.00     0.071 A 
BRANCH   9  11
HETATM   11  C   UNL     1     -15.556   3.099 -32.241  1.00  0.00    -0.005 A 
HETATM   12  C   UNL     1     -15.550   4.460 -31.903  1.00  0.00     0.016 A 
HETATM   13  C   UNL     1     -16.724   5.110 -31.498  1.00  0.00     0.037 A 
HETATM   14  C   UNL     1     -17.923   4.404 -31.424  1.00  0.00     0.068 A 
HETATM   15  C   UNL     1     -17.932   3.043 -31.734  1.00  0.00     0.037 A 
HETATM   16  C   UNL     1     -16.761   2.393 -32.143  1.00  0.00     0.016 A 
BRANCH  14  17
HETATM   17  O   UNL     1     -19.136   4.918 -31.058  1.00  0.00    -0.356 OA
HETATM   18  C   UNL     1     -19.281   5.304 -29.698  1.00  0.00     0.210 C 
ENDBRANCH  14  17
ENDBRANCH   9  11
ENDBRANCH   1   5
BRANCH   2  19
HETATM   19  N   UNL     1      -8.700   0.947 -33.000  1.00  0.00    -0.267 N 
HETATM   20  C   UNL     1      -7.784   1.387 -32.069  1.00  0.00     0.236 C 
HETATM   21  O   UNL     1      -8.107   2.020 -31.066  1.00  0.00    -0.272 OA
HETATM   22  H   UNL     1      -8.472   0.301 -33.754  1.00  0.00     0.190 HD
BRANCH  20  23
HETATM   23  C   UNL     1      -6.354   1.028 -32.389  1.00  0.00     0.109 C 
BRANCH  23  24
HETATM   24  C   UNL     1      -6.207   0.625 -33.853  1.00  0.00     0.048 C 
BRANCH  24  25
HETATM   25  C   UNL     1      -5.829  -0.830 -33.998  1.00  0.00    -0.058 A 
HETATM   26  C   UNL     1      -4.600  -1.298 -33.515  1.00  0.00     0.009 A 
HETATM   27  C   UNL     1      -4.249  -2.643 -33.659  1.00  0.00     0.024 A 
HETATM   28  C   UNL     1      -5.125  -3.523 -34.290  1.00  0.00     0.034 A 
HETATM   29 CL   UNL     1      -4.692  -5.178 -34.468  1.00  0.00    -0.084 Cl
HETATM   30  C   UNL     1      -6.349  -3.071 -34.778  1.00  0.00     0.024 A 
HETATM   31  C   UNL     1      -6.700  -1.727 -34.631  1.00  0.00     0.009 A 
ENDBRANCH  24  25
ENDBRANCH  23  24
ENDBRANCH  20  23
ENDBRANCH   2  19
TORSDOF 7
ENDMDL
MODEL 7
REMARK VINA RESULT:      -7.9      4.030     10.961
REMARK  7 active torsions:
REMARK  status: ('A' for Active; 'I' for Inactive)
REMARK    1  A    between atoms: O_2  and  C_3 
REMARK    2  A    between atoms: C_6  and  C_7 
REMARK    3  A    between atoms: C_11  and  C_12 
REMARK       I    between atoms: C_12  and  N_13 
REMARK    4  A    between atoms: N_13  and  N_14 
REMARK       I    between atoms: N_14  and  C_15 
REMARK    5  A    between atoms: C_15  and  C_16 
REMARK    6  A    between atoms: C_16  and  C_17 
REMARK    7  A    between atoms: C_17  and  C_18 
ROOT
HETATM    1  C   UNL     1      -4.322   2.951 -32.673  1.00  0.00     0.288 C 
HETATM    2  N   UNL     1      -5.635   3.070 -33.076  1.00  0.00    -0.262 N 
HETATM    3  O   UNL     1      -3.729   1.875 -32.717  1.00  0.00    -0.264 OA
HETATM    4  H   UNL     1      -6.150   3.947 -33.093  1.00  0.00     0.190 HD
ENDROOT
BRANCH   1   5
HETATM    5  C   UNL     1      -3.698   4.162 -32.221  1.00  0.00     0.121 A 
HETATM    6  N   UNL     1      -3.990   5.373 -32.782  1.00  0.00    -0.272 N 
HETATM    7  N   UNL     1      -3.357   6.409 -32.216  1.00  0.00    -0.174 NA
HETATM    8  H   UNL     1      -4.631   5.551 -33.549  1.00  0.00     0.189 HD
HETATM    9  C   UNL     1      -2.598   5.861 -31.253  1.00  0.00     0.089 A 
HETATM   10  C   UNL     1      -2.777   4.449 -31.233  1.00  0.00     0.071 A 
BRANCH   9  11
HETATM   11  C   UNL     1      -1.763   6.680 -30.369  1.00  0.00    -0.005 A 
HETATM   12  C   UNL     1      -2.343   7.679 -29.573  1.00  0.00     0.016 A 
HETATM   13  C   UNL     1      -1.567   8.441 -28.690  1.00  0.00     0.037 A 
HETATM   14  C   UNL     1      -0.195   8.215 -28.593  1.00  0.00     0.068 A 
HETATM   15  C   UNL     1       0.393   7.240 -29.400  1.00  0.00     0.037 A 
HETATM   16  C   UNL     1      -0.381   6.474 -30.279  1.00  0.00     0.016 A 
BRANCH  14  17
HETATM   17  O   UNL     1       0.671   8.875 -27.766  1.00  0.00    -0.356 OA
HETATM   18  C   UNL     1       1.504   8.070 -26.942  1.00  0.00     0.210 C 
ENDBRANCH  14  17
ENDBRANCH   9  11
ENDBRANCH   1   5
BRANCH   2  19
HETATM   19  N   UNL     1      -6.284   1.951 -33.604  1.00  0.00    -0.267 N 
HETATM   20  C   UNL     1      -7.078   1.204 -32.761  1.00  0.00     0.236 C 
HETATM   21  O   UNL     1      -7.157   1.424 -31.554  1.00  0.00    -0.272 OA
HETATM   22  H   UNL     1      -6.317   1.879 -34.620  1.00  0.00     0.190 HD
BRANCH  20  23
HETATM   23  C   UNL     1      -7.834   0.092 -33.444  1.00  0.00     0.109 C 
BRANCH  23  24
HETATM   24  C   UNL     1      -7.141  -0.323 -34.739  1.00  0.00     0.048 C 
BRANCH  24  25
HETATM   25  C   UNL     1      -6.195  -1.479 -34.522  1.00  0.00    -0.058 A 
HETATM   26  C   UNL     1      -6.522  -2.764 -34.976  1.00  0.00     0.009 A 
HETATM   27  C   UNL     1      -5.647  -3.833 -34.766  1.00  0.00     0.024 A 
HETATM   28  C   UNL     1      -4.444  -3.622 -34.098  1.00  0.00     0.034 A 
HETATM   29 CL   UNL     1      -3.368  -4.939 -33.839  1.00  0.00    -0.084 Cl
HETATM   30  C   UNL     1      -4.106  -2.351 -33.639  1.00  0.00     0.024 A 
HETATM   31  C   UNL     1      -4.979  -1.282 -33.851  1.00  0.00     0.009 A 
ENDBRANCH  24  25
ENDBRANCH  23  24
ENDBRANCH  20  23
ENDBRANCH   2  19
TORSDOF 7
ENDMDL
MODEL 8
REMARK VINA RESULT:      -7.8      8.096     10.139
REMARK  7 active torsions:
REMARK  status: ('A' for Active; 'I' for Inactive)
REMARK    1  A    between atoms: O_2  and  C_3 
REMARK    2  A    between atoms: C_6  and  C_7 
REMARK    3  A    between atoms: C_11  and  C_12 
REMARK       I    between atoms: C_12  and  N_13 
REMARK    4  A    between atoms: N_13  and  N_14 
REMARK       I    between atoms: N_14  and  C_15 
REMARK    5  A    between atoms: C_15  and  C_16 
REMARK    6  A    between atoms: C_16  and  C_17 
REMARK    7  A    between atoms: C_17  and  C_18 
ROOT
HETATM    1  C   UNL     1     -10.663   1.850 -34.133  1.00  0.00     0.288 C 
HETATM    2  N   UNL     1     -10.524   2.751 -35.168  1.00  0.00    -0.262 N 
HETATM    3  O   UNL     1     -11.740   1.686 -33.561  1.00  0.00    -0.264 OA
HETATM    4  H   UNL     1      -9.663   2.889 -35.692  1.00  0.00     0.190 HD
ENDROOT
BRANCH   1   5
HETATM    5  C   UNL     1      -9.481   1.114 -33.786  1.00  0.00     0.121 A 
HETATM    6  N   UNL     1      -8.965   1.140 -32.522  1.00  0.00    -0.272 N 
HETATM    7  N   UNL     1      -7.887   0.363 -32.351  1.00  0.00    -0.174 NA
HETATM    8  H   UNL     1      -9.322   1.663 -31.727  1.00  0.00     0.189 HD
HETATM    9  C   UNL     1      -7.666  -0.185 -33.556  1.00  0.00     0.089 A 
HETATM   10  C   UNL     1      -8.641   0.272 -34.488  1.00  0.00     0.071 A 
BRANCH   9  11
HETATM   11  C   UNL     1      -6.576  -1.137 -33.783  1.00  0.00    -0.005 A 
HETATM   12  C   UNL     1      -5.293  -0.879 -33.276  1.00  0.00     0.016 A 
HETATM   13  C   UNL     1      -4.250  -1.799 -33.445  1.00  0.00     0.037 A 
HETATM   14  C   UNL     1      -4.475  -2.992 -34.128  1.00  0.00     0.068 A 
HETATM   15  C   UNL     1      -5.741  -3.245 -34.659  1.00  0.00     0.037 A 
HETATM   16  C   UNL     1      -6.786  -2.330 -34.487  1.00  0.00     0.016 A 
BRANCH  14  17
HETATM   17  O   UNL     1      -3.553  -3.977 -34.351  1.00  0.00    -0.356 OA
HETATM   18  C   UNL     1      -3.677  -5.156 -33.566  1.00  0.00     0.210 C 
ENDBRANCH  14  17
ENDBRANCH   9  11
ENDBRANCH   1   5
BRANCH   2  19
HETATM   19  N   UNL     1     -11.650   3.447 -35.615  1.00  0.00    -0.267 N 
HETATM   20  C   UNL     1     -11.817   4.749 -35.195  1.00  0.00     0.236 C 
HETATM   21  O   UNL     1     -11.074   5.283 -34.374  1.00  0.00    -0.272 OA
HETATM   22  H   UNL     1     -12.160   3.036 -36.395  1.00  0.00     0.190 HD
BRANCH  20  23
HETATM   23  C   UNL     1     -12.990   5.458 -35.825  1.00  0.00     0.109 C 
BRANCH  23  24
HETATM   24  C   UNL     1     -12.985   6.942 -35.469  1.00  0.00     0.048 C 
BRANCH  24  25
HETATM   25  C   UNL     1     -12.520   7.794 -36.626  1.00  0.00    -0.058 A 
HETATM   26  C   UNL     1     -11.225   8.329 -36.641  1.00  0.00     0.009 A 
HETATM   27  C   UNL     1     -10.801   9.124 -37.709  1.00  0.00     0.024 A 
HETATM   28  C   UNL     1     -11.671   9.389 -38.763  1.00  0.00     0.034 A 
HETATM   29 CL   UNL     1     -11.149  10.369 -40.077  1.00  0.00    -0.084 Cl
HETATM   30  C   UNL     1     -12.962   8.866 -38.760  1.00  0.00     0.024 A 
HETATM   31  C   UNL     1     -13.385   8.069 -37.694  1.00  0.00     0.009 A 
ENDBRANCH  24  25
ENDBRANCH  23  24
ENDBRANCH  20  23
ENDBRANCH   2  19
TORSDOF 7
ENDMDL
MODEL 9
REMARK VINA RESULT:      -7.7      4.111      5.149
REMARK  7 active torsions:
REMARK  status: ('A' for Active; 'I' for Inactive)
REMARK    1  A    between atoms: O_2  and  C_3 
REMARK    2  A    between atoms: C_6  and  C_7 
REMARK    3  A    between atoms: C_11  and  C_12 
REMARK       I    between atoms: C_12  and  N_13 
REMARK    4  A    between atoms: N_13  and  N_14 
REMARK       I    between atoms: N_14  and  C_15 
REMARK    5  A    between atoms: C_15  and  C_16 
REMARK    6  A    between atoms: C_16  and  C_17 
REMARK    7  A    between atoms: C_17  and  C_18 
ROOT
HETATM    1  C   UNL     1      -5.513   4.391 -32.963  1.00  0.00     0.288 C 
HETATM    2  N   UNL     1      -4.303   3.959 -33.461  1.00  0.00    -0.262 N 
HETATM    3  O   UNL     1      -5.614   5.442 -32.332  1.00  0.00    -0.264 OA
HETATM    4  H   UNL     1      -4.182   3.118 -34.020  1.00  0.00     0.190 HD
ENDROOT
BRANCH   1   5
HETATM    5  C   UNL     1      -6.638   3.545 -33.243  1.00  0.00     0.121 A 
HETATM    6  N   UNL     1      -6.574   2.190 -33.088  1.00  0.00    -0.272 N 
HETATM    7  N   UNL     1      -7.722   1.550 -33.348  1.00  0.00    -0.174 NA
HETATM    8  H   UNL     1      -5.768   1.647 -32.791  1.00  0.00     0.189 HD
HETATM    9  C   UNL     1      -8.578   2.519 -33.710  1.00  0.00     0.089 A 
HETATM   10  C   UNL     1      -7.930   3.786 -33.668  1.00  0.00     0.071 A 
BRANCH   9  11
HETATM   11  C   UNL     1      -9.974   2.228 -34.048  1.00  0.00    -0.005 A 
HETATM   12  C   UNL     1     -10.637   1.146 -33.450  1.00  0.00     0.016 A 
HETATM   13  C   UNL     1     -11.984   0.880 -33.728  1.00  0.00     0.037 A 
HETATM   14  C   UNL     1     -12.689   1.694 -34.613  1.00  0.00     0.068 A 
HETATM   15  C   UNL     1     -12.029   2.757 -35.232  1.00  0.00     0.037 A 
HETATM   16  C   UNL     1     -10.685   3.028 -34.952  1.00  0.00     0.016 A 
BRANCH  14  17
HETATM   17  O   UNL     1     -14.004   1.553 -34.960  1.00  0.00    -0.356 OA
HETATM   18  C   UNL     1     -14.764   0.614 -34.210  1.00  0.00     0.210 C 
ENDBRANCH  14  17
ENDBRANCH   9  11
ENDBRANCH   1   5
BRANCH   2  19
HETATM   19  N   UNL     1      -3.176   4.770 -33.296  1.00  0.00    -0.267 N 
HETATM   20  C   UNL     1      -2.743   5.506 -34.377  1.00  0.00     0.236 C 
HETATM   21  O   UNL     1      -3.244   5.404 -35.495  1.00  0.00    -0.272 OA
HETATM   22  H   UNL     1      -2.876   4.944 -32.338  1.00  0.00     0.190 HD
BRANCH  20  23
HETATM   23  C   UNL     1      -1.600   6.442 -34.072  1.00  0.00     0.109 C 
BRANCH  23  24
HETATM   24  C   UNL     1      -2.042   7.552 -33.123  1.00  0.00     0.048 C 
BRANCH  24  25
HETATM   25  C   UNL     1      -1.297   7.498 -31.811  1.00  0.00    -0.058 A 
HETATM   26  C   UNL     1      -1.824   8.108 -30.665  1.00  0.00     0.009 A 
HETATM   27  C   UNL     1      -1.127   8.063 -29.455  1.00  0.00     0.024 A 
HETATM   28  C   UNL     1       0.101   7.410 -29.387  1.00  0.00     0.034 A 
HETATM   29 CL   UNL     1       0.959   7.356 -27.897  1.00  0.00    -0.084 Cl
HETATM   30  C   UNL     1       0.639   6.801 -30.518  1.00  0.00     0.024 A 
HETATM   31  C   UNL     1      -0.059   6.844 -31.727  1.00  0.00     0.009 A 
ENDBRANCH  24  25
ENDBRANCH  23  24
ENDBRANCH  20  23
ENDBRANCH   2  19
TORSDOF 7
ENDMDL
MODEL 10
REMARK VINA RESULT:      -7.5      3.031      3.807
REMARK  7 active torsions:
REMARK  status: ('A' for Active; 'I' for Inactive)
REMARK    1  A    between atoms: O_2  and  C_3 
REMARK    2  A    between atoms: C_6  and  C_7 
REMARK    3  A    between atoms: C_11  and  C_12 
REMARK       I    between atoms: C_12  and  N_13 
REMARK    4  A    between atoms: N_13  and  N_14 
REMARK       I    between atoms: N_14  and  C_15 
REMARK    5  A    between atoms: C_15  and  C_16 
REMARK    6  A    between atoms: C_16  and  C_17 
REMARK    7  A    between atoms: C_17  and  C_18 
ROOT
HETATM    1  C   UNL     1      -4.574   4.744 -31.298  1.00  0.00     0.288 C 
HETATM    2  N   UNL     1      -3.319   4.279 -30.966  1.00  0.00    -0.262 N 
HETATM    3  O   UNL     1      -4.875   5.930 -31.178  1.00  0.00    -0.264 OA
HETATM    4  H   UNL     1      -3.017   3.315 -31.087  1.00  0.00     0.190 HD
ENDROOT
BRANCH   1   5
HETATM    5  C   UNL     1      -5.488   3.760 -31.804  1.00  0.00     0.121 A 
HETATM    6  N   UNL     1      -5.064   2.523 -32.199  1.00  0.00    -0.272 N 
HETATM    7  N   UNL     1      -6.048   1.707 -32.604  1.00  0.00    -0.174 NA
HETATM    8  H   UNL     1      -4.110   2.176 -32.199  1.00  0.00     0.189 HD
HETATM    9  C   UNL     1      -7.167   2.440 -32.492  1.00  0.00     0.089 A 
HETATM   10  C   UNL     1      -6.854   3.740 -32.003  1.00  0.00     0.071 A 
BRANCH   9  11
HETATM   11  C   UNL     1      -8.486   1.888 -32.813  1.00  0.00    -0.005 A 
HETATM   12  C   UNL     1      -8.736   0.516 -32.658  1.00  0.00     0.016 A 
HETATM   13  C   UNL     1     -10.003  -0.021 -32.918  1.00  0.00     0.037 A 
HETATM   14  C   UNL     1     -11.041   0.807 -33.341  1.00  0.00     0.068 A 
HETATM   15  C   UNL     1     -10.793   2.169 -33.522  1.00  0.00     0.037 A 
HETATM   16  C   UNL     1      -9.529   2.709 -33.258  1.00  0.00     0.016 A 
BRANCH  14  17
HETATM   17  O   UNL     1     -12.322   0.415 -33.615  1.00  0.00    -0.356 OA
HETATM   18  C   UNL     1     -12.996   1.119 -34.649  1.00  0.00     0.210 C 
ENDBRANCH  14  17
ENDBRANCH   9  11
ENDBRANCH   1   5
BRANCH   2  19
HETATM   19  N   UNL     1      -2.350   5.192 -30.542  1.00  0.00    -0.267 N 
HETATM   20  C   UNL     1      -1.224   5.352 -31.320  1.00  0.00     0.236 C 
HETATM   21  O   UNL     1      -0.996   4.659 -32.309  1.00  0.00    -0.272 OA
HETATM   22  H   UNL     1      -2.629   5.845 -29.811  1.00  0.00     0.190 HD
BRANCH  20  23
HETATM   23  C   UNL     1      -0.296   6.444 -30.850  1.00  0.00     0.109 C 
BRANCH  23  24
HETATM   24  C   UNL     1       0.589   5.954 -29.708  1.00  0.00     0.048 C 
BRANCH  24  25
HETATM   25  C   UNL     1       0.482   6.845 -28.494  1.00  0.00    -0.058 A 
HETATM   26  C   UNL     1      -0.329   6.480 -27.411  1.00  0.00     0.009 A 
HETATM   27  C   UNL     1      -0.432   7.311 -26.292  1.00  0.00     0.024 A 
HETATM   28  C   UNL     1       0.272   8.512 -26.255  1.00  0.00     0.034 A 
HETATM   29 CL   UNL     1       0.144   9.535 -24.878  1.00  0.00    -0.084 Cl
HETATM   30  C   UNL     1       1.080   8.889 -27.325  1.00  0.00     0.024 A 
HETATM   31  C   UNL     1       1.185   8.057 -28.441  1.00  0.00     0.009 A 
ENDBRANCH  24  25
ENDBRANCH  23  24
ENDBRANCH  20  23
ENDBRANCH   2  19
TORSDOF 7
ENDMDL
