MODEL 1
REMARK VINA RESULT:      -9.2      0.000      0.000
REMARK  3 active torsions:
REMARK  status: ('A' for Active; 'I' for Inactive)
REMARK    1  A    between atoms: C_6  and  C_7 
REMARK    2  A    between atoms: C_14  and  N_15 
REMARK    3  A    between atoms: N_15  and  C_16 
ROOT
HETATM    1  C   UNL     1      -5.923   2.786 -30.533  1.00  0.00     0.001 A 
HETATM    2  C   UNL     1      -6.095   2.098 -31.733  1.00  0.00     0.018 A 
HETATM    3  C   UNL     1      -7.389   1.905 -32.282  1.00  0.00     0.039 A 
HETATM    4  C   UNL     1      -8.507   2.402 -31.602  1.00  0.00     0.073 A 
HETATM    5  N   UNL     1      -9.756   2.246 -32.050  1.00  0.00    -0.228 NA
HETATM    6  C   UNL     1      -9.925   1.575 -33.199  1.00  0.00     0.164 A 
HETATM    7  N   UNL     1      -8.925   1.056 -33.927  1.00  0.00    -0.210 NA
HETATM    8  C   UNL     1      -7.669   1.224 -33.479  1.00  0.00     0.143 A 
HETATM    9  C   UNL     1      -8.310   3.085 -30.408  1.00  0.00     0.032 A 
HETATM   10  C   UNL     1      -7.036   3.284 -29.870  1.00  0.00     0.002 A 
ENDROOT
BRANCH   8  11
HETATM   11  N   UNL     1      -6.591   0.719 -34.257  1.00  0.00    -0.340 N 
HETATM   12  H   UNL     1      -6.644   1.120 -35.187  1.00  0.00     0.167 HD
BRANCH  11  13
HETATM   13  C   UNL     1      -6.106  -0.609 -34.280  1.00  0.00     0.036 A 
HETATM   14  C   UNL     1      -4.987  -0.949 -33.505  1.00  0.00     0.069 A 
HETATM   15  C   UNL     1      -4.523  -2.266 -33.463  1.00  0.00     0.104 A 
HETATM   16  C   UNL     1      -5.172  -3.263 -34.195  1.00  0.00     0.102 A 
HETATM   17  O   UNL     1      -3.419  -2.504 -32.683  1.00  0.00    -0.346 OA
HETATM   18  O   UNL     1      -4.755  -4.569 -34.224  1.00  0.00    -0.346 OA
HETATM   19  C   UNL     1      -6.310  -2.951 -34.929  1.00  0.00     0.042 A 
HETATM   20  C   UNL     1      -3.417  -4.697 -33.732  1.00  0.00     0.202 C 
HETATM   21  C   UNL     1      -3.240  -3.905 -32.447  1.00  0.00     0.202 C 
HETATM   22  C   UNL     1      -6.776  -1.634 -34.964  1.00  0.00     0.032 A 
ENDBRANCH  11  13
ENDBRANCH   8  11
BRANCH   6  23
HETATM   23  C   UNL     1     -11.292   1.410 -33.711  1.00  0.00     0.029 A 
HETATM   24  C   UNL     1     -11.898   2.372 -34.519  1.00  0.00     0.131 A 
HETATM   25  N   UNL     1     -13.155   2.287 -35.032  1.00  0.00    -0.272 NA
HETATM   26  C   UNL     1     -13.856   1.176 -34.729  1.00  0.00     0.116 A 
HETATM   27  C   UNL     1     -13.364   0.154 -33.939  1.00  0.00     0.020 A 
HETATM   28  C   UNL     1     -12.072   0.277 -33.428  1.00  0.00     0.018 A 
ENDBRANCH   6  23
TORSDOF 3
ENDMDL
MODEL 2
REMARK VINA RESULT:      -9.1      3.586      6.809
REMARK  3 active torsions:
REMARK  status: ('A' for Active; 'I' for Inactive)
REMARK    1  A    between atoms: C_6  and  C_7 
REMARK    2  A    between atoms: C_14  and  N_15 
REMARK    3  A    between atoms: N_15  and  C_16 
ROOT
HETATM    1  C   UNL     1     -10.154   2.878 -32.478  1.00  0.00     0.001 A 
HETATM    2  C   UNL     1      -8.783   2.749 -32.269  1.00  0.00     0.018 A 
HETATM    3  C   UNL     1      -8.089   1.584 -32.685  1.00  0.00     0.039 A 
HETATM    4  C   UNL     1      -8.796   0.545 -33.302  1.00  0.00     0.073 A 
HETATM    5  N   UNL     1      -8.214  -0.588 -33.707  1.00  0.00    -0.228 NA
HETATM    6  C   UNL     1      -6.895  -0.717 -33.498  1.00  0.00     0.164 A 
HETATM    7  N   UNL     1      -6.125   0.213 -32.915  1.00  0.00    -0.210 NA
HETATM    8  C   UNL     1      -6.712   1.356 -32.518  1.00  0.00     0.143 A 
HETATM    9  C   UNL     1     -10.163   0.696 -33.499  1.00  0.00     0.032 A 
HETATM   10  C   UNL     1     -10.847   1.847 -33.098  1.00  0.00     0.002 A 
ENDROOT
BRANCH   8  11
HETATM   11  N   UNL     1      -5.907   2.374 -31.936  1.00  0.00    -0.340 N 
HETATM   12  H   UNL     1      -6.379   2.731 -31.112  1.00  0.00     0.167 HD
BRANCH  11  13
HETATM   13  C   UNL     1      -5.189   3.384 -32.615  1.00  0.00     0.036 A 
HETATM   14  C   UNL     1      -3.944   3.799 -32.119  1.00  0.00     0.069 A 
HETATM   15  C   UNL     1      -3.187   4.753 -32.803  1.00  0.00     0.104 A 
HETATM   16  C   UNL     1      -3.663   5.306 -33.994  1.00  0.00     0.102 A 
HETATM   17  O   UNL     1      -1.985   5.102 -32.240  1.00  0.00    -0.346 OA
HETATM   18  O   UNL     1      -2.988   6.267 -34.701  1.00  0.00    -0.346 OA
HETATM   19  C   UNL     1      -4.872   4.870 -34.524  1.00  0.00     0.042 A 
HETATM   20  C   UNL     1      -1.962   6.871 -33.907  1.00  0.00     0.202 C 
HETATM   21  C   UNL     1      -1.159   5.811 -33.171  1.00  0.00     0.202 C 
HETATM   22  C   UNL     1      -5.624   3.910 -33.840  1.00  0.00     0.032 A 
ENDBRANCH  11  13
ENDBRANCH   8  11
BRANCH   6  23
HETATM   23  C   UNL     1      -6.240  -1.951 -33.953  1.00  0.00     0.029 A 
HETATM   24  C   UNL     1      -4.866  -2.151 -33.813  1.00  0.00     0.131 A 
HETATM   25  N   UNL     1      -4.192  -3.266 -34.205  1.00  0.00    -0.272 NA
HETATM   26  C   UNL     1      -4.925  -4.246 -34.770  1.00  0.00     0.116 A 
HETATM   27  C   UNL     1      -6.291  -4.165 -34.963  1.00  0.00     0.020 A 
HETATM   28  C   UNL     1      -6.949  -3.007 -34.550  1.00  0.00     0.018 A 
ENDBRANCH   6  23
TORSDOF 3
ENDMDL
MODEL 3
REMARK VINA RESULT:      -9.1      3.507      5.741
REMARK  3 active torsions:
REMARK  status: ('A' for Active; 'I' for Inactive)
REMARK    1  A    between atoms: C_6  and  C_7 
REMARK    2  A    between atoms: C_14  and  N_15 
REMARK    3  A    between atoms: N_15  and  C_16 
ROOT
HETATM    1  C   UNL     1      -4.647  -1.713 -33.848  1.00  0.00     0.001 A 
HETATM    2  C   UNL     1      -4.928  -0.462 -33.303  1.00  0.00     0.018 A 
HETATM    3  C   UNL     1      -6.255   0.039 -33.277  1.00  0.00     0.039 A 
HETATM    4  C   UNL     1      -7.293  -0.729 -33.818  1.00  0.00     0.073 A 
HETATM    5  N   UNL     1      -8.564  -0.318 -33.842  1.00  0.00    -0.228 NA
HETATM    6  C   UNL     1      -8.835   0.891 -33.327  1.00  0.00     0.164 A 
HETATM    7  N   UNL     1      -7.917   1.708 -32.789  1.00  0.00    -0.210 NA
HETATM    8  C   UNL     1      -6.642   1.287 -32.756  1.00  0.00     0.143 A 
HETATM    9  C   UNL     1      -6.987  -1.974 -34.355  1.00  0.00     0.032 A 
HETATM   10  C   UNL     1      -5.683  -2.474 -34.373  1.00  0.00     0.002 A 
ENDROOT
BRANCH   8  11
HETATM   11  N   UNL     1      -5.660   2.118 -32.151  1.00  0.00    -0.340 N 
HETATM   12  H   UNL     1      -5.936   2.304 -31.193  1.00  0.00     0.167 HD
BRANCH  11  13
HETATM   13  C   UNL     1      -5.002   3.224 -32.736  1.00  0.00     0.036 A 
HETATM   14  C   UNL     1      -3.722   3.583 -32.288  1.00  0.00     0.069 A 
HETATM   15  C   UNL     1      -3.025   4.634 -32.890  1.00  0.00     0.104 A 
HETATM   16  C   UNL     1      -3.598   5.341 -33.949  1.00  0.00     0.102 A 
HETATM   17  O   UNL     1      -1.782   4.917 -32.382  1.00  0.00    -0.346 OA
HETATM   18  O   UNL     1      -2.985   6.401 -34.566  1.00  0.00    -0.346 OA
HETATM   19  C   UNL     1      -4.845   4.967 -34.436  1.00  0.00     0.042 A 
HETATM   20  C   UNL     1      -1.900   6.902 -33.779  1.00  0.00     0.202 C 
HETATM   21  C   UNL     1      -1.037   5.761 -33.267  1.00  0.00     0.202 C 
HETATM   22  C   UNL     1      -5.537   3.910 -33.836  1.00  0.00     0.032 A 
ENDBRANCH  11  13
ENDBRANCH   8  11
BRANCH   6  23
HETATM   23  C   UNL     1     -10.230   1.350 -33.333  1.00  0.00     0.029 A 
HETATM   24  C   UNL     1     -10.570   2.683 -33.102  1.00  0.00     0.131 A 
HETATM   25  N   UNL     1     -11.836   3.180 -33.096  1.00  0.00    -0.272 NA
HETATM   26  C   UNL     1     -12.830   2.302 -33.338  1.00  0.00     0.116 A 
HETATM   27  C   UNL     1     -12.620   0.958 -33.580  1.00  0.00     0.020 A 
HETATM   28  C   UNL     1     -11.308   0.482 -33.576  1.00  0.00     0.018 A 
ENDBRANCH   6  23
TORSDOF 3
ENDMDL
MODEL 4
REMARK VINA RESULT:      -9.0      3.299      7.203
REMARK  3 active torsions:
REMARK  status: ('A' for Active; 'I' for Inactive)
REMARK    1  A    between atoms: C_6  and  C_7 
REMARK    2  A    between atoms: C_14  and  N_15 
REMARK    3  A    between atoms: N_15  and  C_16 
ROOT
HETATM    1  C   UNL     1      -4.544   3.681 -30.977  1.00  0.00     0.001 A 
HETATM    2  C   UNL     1      -5.719   2.934 -31.019  1.00  0.00     0.018 A 
HETATM    3  C   UNL     1      -5.761   1.680 -31.681  1.00  0.00     0.039 A 
HETATM    4  C   UNL     1      -4.610   1.194 -32.310  1.00  0.00     0.073 A 
HETATM    5  N   UNL     1      -4.577   0.029 -32.964  1.00  0.00    -0.228 NA
HETATM    6  C   UNL     1      -5.710  -0.687 -33.014  1.00  0.00     0.164 A 
HETATM    7  N   UNL     1      -6.868  -0.313 -32.449  1.00  0.00    -0.210 NA
HETATM    8  C   UNL     1      -6.894   0.853 -31.783  1.00  0.00     0.143 A 
HETATM    9  C   UNL     1      -3.449   1.957 -32.254  1.00  0.00     0.032 A 
HETATM   10  C   UNL     1      -3.403   3.188 -31.595  1.00  0.00     0.002 A 
ENDROOT
BRANCH   8  11
HETATM   11  N   UNL     1      -8.100   1.249 -31.140  1.00  0.00    -0.340 N 
HETATM   12  H   UNL     1      -8.401   0.500 -30.525  1.00  0.00     0.167 HD
BRANCH  11  13
HETATM   13  C   UNL     1      -9.194   1.927 -31.724  1.00  0.00     0.036 A 
HETATM   14  C   UNL     1      -9.831   1.373 -32.845  1.00  0.00     0.069 A 
HETATM   15  C   UNL     1     -10.951   1.992 -33.405  1.00  0.00     0.104 A 
HETATM   16  C   UNL     1     -11.451   3.174 -32.853  1.00  0.00     0.102 A 
HETATM   17  O   UNL     1     -11.505   1.382 -34.503  1.00  0.00    -0.346 OA
HETATM   18  O   UNL     1     -12.526   3.850 -33.368  1.00  0.00    -0.346 OA
HETATM   19  C   UNL     1     -10.860   3.708 -31.714  1.00  0.00     0.042 A 
HETATM   20  C   UNL     1     -12.825   3.414 -34.699  1.00  0.00     0.202 C 
HETATM   21  C   UNL     1     -12.812   1.896 -34.781  1.00  0.00     0.202 C 
HETATM   22  C   UNL     1      -9.743   3.083 -31.151  1.00  0.00     0.032 A 
ENDBRANCH  11  13
ENDBRANCH   8  11
BRANCH   6  23
HETATM   23  C   UNL     1      -5.684  -1.976 -33.717  1.00  0.00     0.029 A 
HETATM   24  C   UNL     1      -4.511  -2.718 -33.856  1.00  0.00     0.131 A 
HETATM   25  N   UNL     1      -4.411  -3.918 -34.488  1.00  0.00    -0.272 NA
HETATM   26  C   UNL     1      -5.547  -4.420 -35.013  1.00  0.00     0.116 A 
HETATM   27  C   UNL     1      -6.770  -3.780 -34.939  1.00  0.00     0.020 A 
HETATM   28  C   UNL     1      -6.834  -2.549 -34.286  1.00  0.00     0.018 A 
ENDBRANCH   6  23
TORSDOF 3
ENDMDL
MODEL 5
REMARK VINA RESULT:      -8.7      2.832      5.814
REMARK  3 active torsions:
REMARK  status: ('A' for Active; 'I' for Inactive)
REMARK    1  A    between atoms: C_6  and  C_7 
REMARK    2  A    between atoms: C_14  and  N_15 
REMARK    3  A    between atoms: N_15  and  C_16 
ROOT
HETATM    1  C   UNL     1      -9.294   2.421 -31.133  1.00  0.00     0.001 A 
HETATM    2  C   UNL     1      -8.437   1.989 -32.143  1.00  0.00     0.018 A 
HETATM    3  C   UNL     1      -7.125   2.516 -32.260  1.00  0.00     0.039 A 
HETATM    4  C   UNL     1      -6.692   3.491 -31.355  1.00  0.00     0.073 A 
HETATM    5  N   UNL     1      -5.476   4.043 -31.411  1.00  0.00    -0.228 NA
HETATM    6  C   UNL     1      -4.654   3.636 -32.389  1.00  0.00     0.164 A 
HETATM    7  N   UNL     1      -4.969   2.712 -33.308  1.00  0.00    -0.210 NA
HETATM    8  C   UNL     1      -6.189   2.150 -33.243  1.00  0.00     0.143 A 
HETATM    9  C   UNL     1      -7.564   3.905 -30.356  1.00  0.00     0.032 A 
HETATM   10  C   UNL     1      -8.854   3.381 -30.233  1.00  0.00     0.002 A 
ENDROOT
BRANCH   8  11
HETATM   11  N   UNL     1      -6.529   1.138 -34.181  1.00  0.00    -0.340 N 
HETATM   12  H   UNL     1      -7.523   1.194 -34.376  1.00  0.00     0.167 HD
BRANCH  11  13
HETATM   13  C   UNL     1      -6.060  -0.196 -34.203  1.00  0.00     0.036 A 
HETATM   14  C   UNL     1      -4.974  -0.559 -33.392  1.00  0.00     0.069 A 
HETATM   15  C   UNL     1      -4.528  -1.882 -33.349  1.00  0.00     0.104 A 
HETATM   16  C   UNL     1      -5.162  -2.862 -34.116  1.00  0.00     0.102 A 
HETATM   17  O   UNL     1      -3.456  -2.143 -32.532  1.00  0.00    -0.346 OA
HETATM   18  O   UNL     1      -4.760  -4.172 -34.145  1.00  0.00    -0.346 OA
HETATM   19  C   UNL     1      -6.269  -2.528 -34.887  1.00  0.00     0.042 A 
HETATM   20  C   UNL     1      -3.443  -4.323 -33.607  1.00  0.00     0.202 C 
HETATM   21  C   UNL     1      -3.303  -3.549 -32.307  1.00  0.00     0.202 C 
HETATM   22  C   UNL     1      -6.717  -1.204 -34.922  1.00  0.00     0.032 A 
ENDBRANCH  11  13
ENDBRANCH   8  11
BRANCH   6  23
HETATM   23  C   UNL     1      -3.309   4.223 -32.453  1.00  0.00     0.029 A 
HETATM   24  C   UNL     1      -2.406   4.115 -31.395  1.00  0.00     0.131 A 
HETATM   25  N   UNL     1      -1.146   4.628 -31.384  1.00  0.00    -0.272 NA
HETATM   26  C   UNL     1      -0.753   5.287 -32.492  1.00  0.00     0.116 A 
HETATM   27  C   UNL     1      -1.556   5.461 -33.603  1.00  0.00     0.020 A 
HETATM   28  C   UNL     1      -2.843   4.924 -33.578  1.00  0.00     0.018 A 
ENDBRANCH   6  23
TORSDOF 3
ENDMDL
MODEL 6
REMARK VINA RESULT:      -8.7      3.580      7.983
REMARK  3 active torsions:
REMARK  status: ('A' for Active; 'I' for Inactive)
REMARK    1  A    between atoms: C_6  and  C_7 
REMARK    2  A    between atoms: C_14  and  N_15 
REMARK    3  A    between atoms: N_15  and  C_16 
ROOT
HETATM    1  C   UNL     1      -6.380  -3.846 -34.797  1.00  0.00     0.001 A 
HETATM    2  C   UNL     1      -7.149  -2.750 -34.413  1.00  0.00     0.018 A 
HETATM    3  C   UNL     1      -6.538  -1.562 -33.935  1.00  0.00     0.039 A 
HETATM    4  C   UNL     1      -5.143  -1.497 -33.836  1.00  0.00     0.073 A 
HETATM    5  N   UNL     1      -4.497  -0.419 -33.382  1.00  0.00    -0.228 NA
HETATM    6  C   UNL     1      -5.237   0.634 -33.003  1.00  0.00     0.164 A 
HETATM    7  N   UNL     1      -6.577   0.676 -33.053  1.00  0.00    -0.210 NA
HETATM    8  C   UNL     1      -7.223  -0.406 -33.520  1.00  0.00     0.143 A 
HETATM    9  C   UNL     1      -4.397  -2.603 -34.226  1.00  0.00     0.032 A 
HETATM   10  C   UNL     1      -4.997  -3.770 -34.705  1.00  0.00     0.002 A 
ENDROOT
BRANCH   8  11
HETATM   11  N   UNL     1      -8.641  -0.368 -33.622  1.00  0.00    -0.340 N 
HETATM   12  H   UNL     1      -8.946  -1.140 -34.205  1.00  0.00     0.167 HD
BRANCH  11  13
HETATM   13  C   UNL     1      -9.451   0.778 -33.792  1.00  0.00     0.036 A 
HETATM   14  C   UNL     1     -10.804   0.727 -33.425  1.00  0.00     0.069 A 
HETATM   15  C   UNL     1     -11.613   1.861 -33.526  1.00  0.00     0.104 A 
HETATM   16  C   UNL     1     -11.081   3.064 -33.997  1.00  0.00     0.102 A 
HETATM   17  O   UNL     1     -12.925   1.716 -33.149  1.00  0.00    -0.346 OA
HETATM   18  O   UNL     1     -11.822   4.207 -34.150  1.00  0.00    -0.346 OA
HETATM   19  C   UNL     1      -9.731   3.143 -34.320  1.00  0.00     0.042 A 
HETATM   20  C   UNL     1     -13.225   3.923 -34.123  1.00  0.00     0.202 C 
HETATM   21  C   UNL     1     -13.561   2.988 -32.974  1.00  0.00     0.202 C 
HETATM   22  C   UNL     1      -8.923   2.008 -34.210  1.00  0.00     0.032 A 
ENDBRANCH  11  13
ENDBRANCH   8  11
BRANCH   6  23
HETATM   23  C   UNL     1      -4.540   1.831 -32.516  1.00  0.00     0.029 A 
HETATM   24  C   UNL     1      -3.385   1.748 -31.738  1.00  0.00     0.131 A 
HETATM   25  N   UNL     1      -2.685   2.810 -31.256  1.00  0.00    -0.272 NA
HETATM   26  C   UNL     1      -3.156   4.034 -31.568  1.00  0.00     0.116 A 
HETATM   27  C   UNL     1      -4.289   4.245 -32.331  1.00  0.00     0.020 A 
HETATM   28  C   UNL     1      -4.983   3.133 -32.806  1.00  0.00     0.018 A 
ENDBRANCH   6  23
TORSDOF 3
ENDMDL
MODEL 7
REMARK VINA RESULT:      -8.6     14.215     15.891
REMARK  3 active torsions:
REMARK  status: ('A' for Active; 'I' for Inactive)
REMARK    1  A    between atoms: C_6  and  C_7 
REMARK    2  A    between atoms: C_14  and  N_15 
REMARK    3  A    between atoms: N_15  and  C_16 
ROOT
HETATM    1  C   UNL     1      -6.429 -12.061 -40.805  1.00  0.00     0.001 A 
HETATM    2  C   UNL     1      -5.220 -12.095 -40.113  1.00  0.00     0.018 A 
HETATM    3  C   UNL     1      -5.165 -12.541 -38.767  1.00  0.00     0.039 A 
HETATM    4  C   UNL     1      -6.343 -12.940 -38.124  1.00  0.00     0.073 A 
HETATM    5  N   UNL     1      -6.371 -13.358 -36.856  1.00  0.00    -0.228 NA
HETATM    6  C   UNL     1      -5.210 -13.382 -36.184  1.00  0.00     0.164 A 
HETATM    7  N   UNL     1      -4.028 -13.018 -36.702  1.00  0.00    -0.210 NA
HETATM    8  C   UNL     1      -4.001 -12.609 -37.982  1.00  0.00     0.143 A 
HETATM    9  C   UNL     1      -7.535 -12.898 -38.837  1.00  0.00     0.032 A 
HETATM   10  C   UNL     1      -7.591 -12.468 -40.165  1.00  0.00     0.002 A 
ENDROOT
BRANCH   8  11
HETATM   11  N   UNL     1      -2.751 -12.260 -38.564  1.00  0.00    -0.340 N 
HETATM   12  H   UNL     1      -2.909 -11.553 -39.275  1.00  0.00     0.167 HD
BRANCH  11  13
HETATM   13  C   UNL     1      -1.700 -13.138 -38.915  1.00  0.00     0.036 A 
HETATM   14  C   UNL     1      -1.013 -13.830 -37.906  1.00  0.00     0.069 A 
HETATM   15  C   UNL     1      -0.011 -14.748 -38.228  1.00  0.00     0.104 A 
HETATM   16  C   UNL     1       0.319 -14.988 -39.563  1.00  0.00     0.102 A 
HETATM   17  O   UNL     1       0.611 -15.373 -37.175  1.00  0.00    -0.346 OA
HETATM   18  O   UNL     1       1.311 -15.852 -39.951  1.00  0.00    -0.346 OA
HETATM   19  C   UNL     1      -0.385 -14.347 -40.575  1.00  0.00     0.042 A 
HETATM   20  C   UNL     1       2.173 -16.177 -38.855  1.00  0.00     0.202 C 
HETATM   21  C   UNL     1       1.361 -16.511 -37.615  1.00  0.00     0.202 C 
HETATM   22  C   UNL     1      -1.393 -13.434 -40.250  1.00  0.00     0.032 A 
ENDBRANCH  11  13
ENDBRANCH   8  11
BRANCH   6  23
HETATM   23  C   UNL     1      -5.224 -13.853 -34.793  1.00  0.00     0.029 A 
HETATM   24  C   UNL     1      -4.844 -15.151 -34.450  1.00  0.00     0.131 A 
HETATM   25  N   UNL     1      -4.828 -15.656 -33.187  1.00  0.00    -0.272 NA
HETATM   26  C   UNL     1      -5.209 -14.822 -32.199  1.00  0.00     0.116 A 
HETATM   27  C   UNL     1      -5.607 -13.516 -32.413  1.00  0.00     0.020 A 
HETATM   28  C   UNL     1      -5.614 -13.033 -33.721  1.00  0.00     0.018 A 
ENDBRANCH   6  23
TORSDOF 3
ENDMDL
MODEL 8
REMARK VINA RESULT:      -8.5      3.972      7.102
REMARK  3 active torsions:
REMARK  status: ('A' for Active; 'I' for Inactive)
REMARK    1  A    between atoms: C_6  and  C_7 
REMARK    2  A    between atoms: C_14  and  N_15 
REMARK    3  A    between atoms: N_15  and  C_16 
ROOT
HETATM    1  C   UNL     1      -8.657   3.713 -30.231  1.00  0.00     0.001 A 
HETATM    2  C   UNL     1      -7.314   3.378 -30.387  1.00  0.00     0.018 A 
HETATM    3  C   UNL     1      -6.931   2.242 -31.145  1.00  0.00     0.039 A 
HETATM    4  C   UNL     1      -7.916   1.441 -31.733  1.00  0.00     0.073 A 
HETATM    5  N   UNL     1      -7.633   0.348 -32.448  1.00  0.00    -0.228 NA
HETATM    6  C   UNL     1      -6.340   0.018 -32.591  1.00  0.00     0.164 A 
HETATM    7  N   UNL     1      -5.319   0.713 -32.069  1.00  0.00    -0.210 NA
HETATM    8  C   UNL     1      -5.607   1.817 -31.359  1.00  0.00     0.143 A 
HETATM    9  C   UNL     1      -9.249   1.795 -31.563  1.00  0.00     0.032 A 
HETATM   10  C   UNL     1      -9.629   2.919 -30.824  1.00  0.00     0.002 A 
ENDROOT
BRANCH   8  11
HETATM   11  N   UNL     1      -4.538   2.593 -30.832  1.00  0.00    -0.340 N 
HETATM   12  H   UNL     1      -4.773   2.872 -29.886  1.00  0.00     0.167 HD
BRANCH  11  13
HETATM   13  C   UNL     1      -3.793   3.587 -31.508  1.00  0.00     0.036 A 
HETATM   14  C   UNL     1      -3.722   4.881 -30.970  1.00  0.00     0.069 A 
HETATM   15  C   UNL     1      -2.945   5.865 -31.585  1.00  0.00     0.104 A 
HETATM   16  C   UNL     1      -2.228   5.571 -32.747  1.00  0.00     0.102 A 
HETATM   17  O   UNL     1      -2.939   7.103 -30.992  1.00  0.00    -0.346 OA
HETATM   18  O   UNL     1      -1.470   6.495 -33.419  1.00  0.00    -0.346 OA
HETATM   19  C   UNL     1      -2.250   4.281 -33.265  1.00  0.00     0.042 A 
HETATM   20  C   UNL     1      -1.792   7.827 -33.008  1.00  0.00     0.202 C 
HETATM   21  C   UNL     1      -1.873   7.917 -31.493  1.00  0.00     0.202 C 
HETATM   22  C   UNL     1      -3.023   3.296 -32.643  1.00  0.00     0.032 A 
ENDBRANCH  11  13
ENDBRANCH   8  11
BRANCH   6  23
HETATM   23  C   UNL     1      -6.013  -1.171 -33.388  1.00  0.00     0.029 A 
HETATM   24  C   UNL     1      -6.998  -1.928 -34.023  1.00  0.00     0.131 A 
HETATM   25  N   UNL     1      -6.771  -3.036 -34.779  1.00  0.00    -0.272 NA
HETATM   26  C   UNL     1      -5.486  -3.418 -34.918  1.00  0.00     0.116 A 
HETATM   27  C   UNL     1      -4.424  -2.752 -34.337  1.00  0.00     0.020 A 
HETATM   28  C   UNL     1      -4.694  -1.621 -33.567  1.00  0.00     0.018 A 
ENDBRANCH   6  23
TORSDOF 3
ENDMDL
MODEL 9
REMARK VINA RESULT:      -8.5      3.623      7.922
REMARK  3 active torsions:
REMARK  status: ('A' for Active; 'I' for Inactive)
REMARK    1  A    between atoms: C_6  and  C_7 
REMARK    2  A    between atoms: C_14  and  N_15 
REMARK    3  A    between atoms: N_15  and  C_16 
ROOT
HETATM    1  C   UNL     1      -6.247  -2.721 -34.756  1.00  0.00     0.001 A 
HETATM    2  C   UNL     1      -6.920  -1.503 -34.806  1.00  0.00     0.018 A 
HETATM    3  C   UNL     1      -6.364  -0.339 -34.215  1.00  0.00     0.039 A 
HETATM    4  C   UNL     1      -5.128  -0.421 -33.564  1.00  0.00     0.073 A 
HETATM    5  N   UNL     1      -4.549   0.628 -32.972  1.00  0.00    -0.228 NA
HETATM    6  C   UNL     1      -5.201   1.800 -33.010  1.00  0.00     0.164 A 
HETATM    7  N   UNL     1      -6.388   1.987 -33.604  1.00  0.00    -0.210 NA
HETATM    8  C   UNL     1      -6.963   0.933 -34.207  1.00  0.00     0.143 A 
HETATM    9  C   UNL     1      -4.475  -1.647 -33.528  1.00  0.00     0.032 A 
HETATM   10  C   UNL     1      -5.017  -2.793 -34.117  1.00  0.00     0.002 A 
ENDROOT
BRANCH   8  11
HETATM   11  N   UNL     1      -8.203   1.119 -34.879  1.00  0.00    -0.340 N 
HETATM   12  H   UNL     1      -8.021   1.533 -35.787  1.00  0.00     0.167 HD
BRANCH  11  13
HETATM   13  C   UNL     1      -9.415   1.582 -34.318  1.00  0.00     0.036 A 
HETATM   14  C   UNL     1      -9.722   2.950 -34.371  1.00  0.00     0.069 A 
HETATM   15  C   UNL     1     -10.939   3.426 -33.878  1.00  0.00     0.104 A 
HETATM   16  C   UNL     1     -11.867   2.541 -33.325  1.00  0.00     0.102 A 
HETATM   17  O   UNL     1     -11.150   4.779 -33.965  1.00  0.00    -0.346 OA
HETATM   18  O   UNL     1     -13.067   2.941 -32.796  1.00  0.00    -0.346 OA
HETATM   19  C   UNL     1     -11.599   1.177 -33.310  1.00  0.00     0.042 A 
HETATM   20  C   UNL     1     -13.083   4.352 -32.555  1.00  0.00     0.202 C 
HETATM   21  C   UNL     1     -12.528   5.107 -33.751  1.00  0.00     0.202 C 
HETATM   22  C   UNL     1     -10.383   0.703 -33.811  1.00  0.00     0.032 A 
ENDBRANCH  11  13
ENDBRANCH   8  11
BRANCH   6  23
HETATM   23  C   UNL     1      -4.568   2.965 -32.378  1.00  0.00     0.029 A 
HETATM   24  C   UNL     1      -5.317   4.030 -31.876  1.00  0.00     0.131 A 
HETATM   25  N   UNL     1      -4.803   5.137 -31.275  1.00  0.00    -0.272 NA
HETATM   26  C   UNL     1      -3.461   5.192 -31.161  1.00  0.00     0.116 A 
HETATM   27  C   UNL     1      -2.613   4.201 -31.619  1.00  0.00     0.020 A 
HETATM   28  C   UNL     1      -3.175   3.081 -32.231  1.00  0.00     0.018 A 
ENDBRANCH   6  23
TORSDOF 3
ENDMDL
MODEL 10
REMARK VINA RESULT:      -8.3      3.179      6.200
REMARK  3 active torsions:
REMARK  status: ('A' for Active; 'I' for Inactive)
REMARK    1  A    between atoms: C_6  and  C_7 
REMARK    2  A    between atoms: C_14  and  N_15 
REMARK    3  A    between atoms: N_15  and  C_16 
ROOT
HETATM    1  C   UNL     1      -4.490  -2.559 -33.925  1.00  0.00     0.001 A 
HETATM    2  C   UNL     1      -4.618  -1.412 -33.145  1.00  0.00     0.018 A 
HETATM    3  C   UNL     1      -5.844  -0.699 -33.094  1.00  0.00     0.039 A 
HETATM    4  C   UNL     1      -6.934  -1.149 -33.847  1.00  0.00     0.073 A 
HETATM    5  N   UNL     1      -8.114  -0.523 -33.861  1.00  0.00    -0.228 NA
HETATM    6  C   UNL     1      -8.236   0.588 -33.118  1.00  0.00     0.164 A 
HETATM    7  N   UNL     1      -7.256   1.106 -32.364  1.00  0.00    -0.210 NA
HETATM    8  C   UNL     1      -6.073   0.468 -32.344  1.00  0.00     0.143 A 
HETATM    9  C   UNL     1      -6.782  -2.297 -34.617  1.00  0.00     0.032 A 
HETATM   10  C   UNL     1      -5.579  -3.005 -34.662  1.00  0.00     0.002 A 
ENDROOT
BRANCH   8  11
HETATM   11  N   UNL     1      -5.033   0.976 -31.518  1.00  0.00    -0.340 N 
HETATM   12  H   UNL     1      -5.165   0.624 -30.576  1.00  0.00     0.167 HD
BRANCH  11  13
HETATM   13  C   UNL     1      -4.503   2.286 -31.525  1.00  0.00     0.036 A 
HETATM   14  C   UNL     1      -5.112   3.281 -30.745  1.00  0.00     0.069 A 
HETATM   15  C   UNL     1      -4.573   4.569 -30.688  1.00  0.00     0.104 A 
HETATM   16  C   UNL     1      -3.418   4.881 -31.408  1.00  0.00     0.102 A 
HETATM   17  O   UNL     1      -5.239   5.478 -29.904  1.00  0.00    -0.346 OA
HETATM   18  O   UNL     1      -2.853   6.130 -31.422  1.00  0.00    -0.346 OA
HETATM   19  C   UNL     1      -2.777   3.893 -32.147  1.00  0.00     0.042 A 
HETATM   20  C   UNL     1      -3.764   7.117 -30.927  1.00  0.00     0.202 C 
HETATM   21  C   UNL     1      -4.435   6.636 -29.651  1.00  0.00     0.202 C 
HETATM   22  C   UNL     1      -3.314   2.604 -32.197  1.00  0.00     0.032 A 
ENDBRANCH  11  13
ENDBRANCH   8  11
BRANCH   6  23
HETATM   23  C   UNL     1      -9.533   1.277 -33.111  1.00  0.00     0.029 A 
HETATM   24  C   UNL     1     -10.698   0.663 -33.571  1.00  0.00     0.131 A 
HETATM   25  N   UNL     1     -11.931   1.236 -33.591  1.00  0.00    -0.272 NA
HETATM   26  C   UNL     1     -12.019   2.497 -33.123  1.00  0.00     0.116 A 
HETATM   27  C   UNL     1     -10.937   3.210 -32.642  1.00  0.00     0.020 A 
HETATM   28  C   UNL     1      -9.686   2.592 -32.638  1.00  0.00     0.018 A 
ENDBRANCH   6  23
TORSDOF 3
ENDMDL
