MODEL 1
REMARK VINA RESULT:      -7.4      0.000      0.000
REMARK  9 active torsions:
REMARK  status: ('A' for Active; 'I' for Inactive)
REMARK    1  A    between atoms: C_2  and  C_3 
REMARK    2  A    between atoms: C_7  and  C_8 
REMARK    3  A    between atoms: C_8  and  C_9 
REMARK       I    between atoms: C_9  and  N_10 
REMARK    4  A    between atoms: N_10  and  C_11 
REMARK    5  A    between atoms: C_11  and  C_12 
REMARK    6  A    between atoms: C_12  and  C_13 
REMARK    7  A    between atoms: C_21  and  C_22 
REMARK    8  A    between atoms: C_32  and  C_33 
REMARK    9  A    between atoms: C_33  and  O_34 
ROOT
HETATM    1  C   UNL     1      -1.535   6.816 -30.830  1.00  0.00     0.051 C 
HETATM    2  N   UNL     1      -2.166   6.911 -29.606  1.00  0.00    -0.228 NA
HETATM    3  C   UNL     1      -3.450   6.925 -29.570  1.00  0.00     0.170 C 
HETATM    4  N   UNL     1      -4.382   6.686 -30.781  1.00  0.00    -0.318 N 
HETATM    5  C   UNL     1      -5.627   6.773 -30.443  1.00  0.00     0.011 C 
HETATM    6  C   UNL     1      -3.678   6.224 -32.005  1.00  0.00     0.166 C 
HETATM    7  S   UNL     1      -4.335   7.169 -28.102  1.00  0.00    -0.086 SA
HETATM    8  C   UNL     1      -5.899   7.197 -29.015  1.00  0.00     0.135 C 
HETATM    9  C   UNL     1      -2.214   6.590 -31.976  1.00  0.00     0.069 C 
ENDROOT
BRANCH   5  10
HETATM   10  C   UNL     1      -6.734   6.366 -31.373  1.00  0.00     0.156 C 
BRANCH  10  11
HETATM   11  C   UNL     1      -7.635   5.305 -30.785  1.00  0.00     0.222 C 
HETATM   12  N   UNL     1      -7.057   4.073 -30.612  1.00  0.00    -0.361 N 
HETATM   13  H   UNL     1      -6.089   3.919 -30.884  1.00  0.00     0.162 HD
HETATM   14  O   UNL     1      -8.797   5.566 -30.494  1.00  0.00    -0.273 OA
BRANCH  12  15
HETATM   15  C   UNL     1      -7.778   2.949 -30.030  1.00  0.00     0.124 C 
BRANCH  15  16
HETATM   16  C   UNL     1      -7.804   1.750 -30.982  1.00  0.00     0.053 C 
BRANCH  16  17
HETATM   17  C   UNL     1      -8.471   2.078 -32.328  1.00  0.00     0.189 C 
HETATM   18  N   UNL     1      -9.988   1.884 -32.184  1.00  0.00    -0.071 N 
HETATM   19  H   UNL     1     -10.207   1.634 -31.210  1.00  0.00     0.279 HD
HETATM   20  C   UNL     1     -10.789   3.116 -32.500  1.00  0.00     0.270 C 
HETATM   21  C   UNL     1     -10.392   0.694 -33.042  1.00  0.00     0.235 C 
HETATM   22  C   UNL     1      -9.087  -0.013 -33.336  1.00  0.00     0.030 C 
HETATM   23  C   UNL     1      -8.100   1.131 -33.467  1.00  0.00     0.035 C 
ENDBRANCH  16  17
ENDBRANCH  15  16
ENDBRANCH  12  15
ENDBRANCH  10  11
ENDBRANCH   5  10
BRANCH   6  24
HETATM   24  C   UNL     1      -3.925   4.717 -32.173  1.00  0.00    -0.024 A 
HETATM   25  C   UNL     1      -4.695   4.171 -33.228  1.00  0.00    -0.053 A 
HETATM   26  C   UNL     1      -5.230   4.959 -34.398  1.00  0.00     0.049 C 
HETATM   27  C   UNL     1      -4.905   2.776 -33.278  1.00  0.00     0.014 A 
HETATM   28  C   UNL     1      -4.394   1.915 -32.304  1.00  0.00    -0.061 A 
HETATM   29  C   UNL     1      -4.598   0.431 -32.405  1.00  0.00     0.048 C 
HETATM   30  C   UNL     1      -3.609   2.447 -31.285  1.00  0.00     0.007 A 
HETATM   31  C   UNL     1      -3.373   3.820 -31.224  1.00  0.00     0.011 A 
ENDBRANCH   6  24
BRANCH   9  32
HETATM   32  C   UNL     1      -1.635   6.744 -33.337  1.00  0.00     0.293 C 
HETATM   33  O   UNL     1      -1.525   7.827 -33.884  1.00  0.00    -0.259 OA
BRANCH  32  34
HETATM   34  O   UNL     1      -1.072   5.586 -33.747  1.00  0.00    -0.323 OA
HETATM   35  C   UNL     1      -1.553   5.089 -35.000  1.00  0.00     0.213 C 
ENDBRANCH  32  34
ENDBRANCH   9  32
BRANCH   1  36
HETATM   36  C   UNL     1      -0.021   6.973 -30.720  1.00  0.00     0.056 C 
HETATM   37  C   UNL     1       0.730   5.645 -30.727  1.00  0.00     0.011 C 
ENDBRANCH   1  36
TORSDOF 9
ENDMDL
MODEL 2
REMARK VINA RESULT:      -7.3      2.454      7.197
REMARK  9 active torsions:
REMARK  status: ('A' for Active; 'I' for Inactive)
REMARK    1  A    between atoms: C_2  and  C_3 
REMARK    2  A    between atoms: C_7  and  C_8 
REMARK    3  A    between atoms: C_8  and  C_9 
REMARK       I    between atoms: C_9  and  N_10 
REMARK    4  A    between atoms: N_10  and  C_11 
REMARK    5  A    between atoms: C_11  and  C_12 
REMARK    6  A    between atoms: C_12  and  C_13 
REMARK    7  A    between atoms: C_21  and  C_22 
REMARK    8  A    between atoms: C_32  and  C_33 
REMARK    9  A    between atoms: C_33  and  O_34 
ROOT
HETATM    1  C   UNL     1      -7.870   1.327 -33.003  1.00  0.00     0.051 C 
HETATM    2  N   UNL     1      -8.721   2.408 -32.889  1.00  0.00    -0.228 NA
HETATM    3  C   UNL     1      -8.440   3.329 -32.039  1.00  0.00     0.170 C 
HETATM    4  N   UNL     1      -7.132   3.422 -31.218  1.00  0.00    -0.318 N 
HETATM    5  C   UNL     1      -7.139   4.451 -30.434  1.00  0.00     0.011 C 
HETATM    6  C   UNL     1      -6.087   2.451 -31.632  1.00  0.00     0.166 C 
HETATM    7  S   UNL     1      -9.504   4.660 -31.727  1.00  0.00    -0.086 SA
HETATM    8  C   UNL     1      -8.426   5.247 -30.395  1.00  0.00     0.135 C 
HETATM    9  C   UNL     1      -6.682   1.271 -32.362  1.00  0.00     0.069 C 
ENDROOT
BRANCH   5  10
HETATM   10  C   UNL     1      -5.908   4.898 -29.698  1.00  0.00     0.156 C 
BRANCH  10  11
HETATM   11  C   UNL     1      -5.482   6.300 -30.063  1.00  0.00     0.222 C 
HETATM   12  N   UNL     1      -4.515   6.388 -31.034  1.00  0.00    -0.361 N 
HETATM   13  H   UNL     1      -4.128   5.543 -31.447  1.00  0.00     0.162 HD
HETATM   14  O   UNL     1      -5.989   7.269 -29.509  1.00  0.00    -0.273 OA
BRANCH  12  15
HETATM   15  C   UNL     1      -4.015   7.665 -31.521  1.00  0.00     0.124 C 
BRANCH  15  16
HETATM   16  C   UNL     1      -2.485   7.679 -31.583  1.00  0.00     0.053 C 
BRANCH  16  17
HETATM   17  C   UNL     1      -1.845   6.700 -30.583  1.00  0.00     0.189 C 
HETATM   18  N   UNL     1      -1.159   7.512 -29.474  1.00  0.00    -0.071 N 
HETATM   19  H   UNL     1      -1.335   8.514 -29.628  1.00  0.00     0.279 HD
HETATM   20  C   UNL     1      -1.664   7.197 -28.093  1.00  0.00     0.270 C 
HETATM   21  C   UNL     1       0.343   7.307 -29.602  1.00  0.00     0.235 C 
HETATM   22  C   UNL     1       0.522   6.729 -30.989  1.00  0.00     0.030 C 
HETATM   23  C   UNL     1      -0.708   5.859 -31.158  1.00  0.00     0.035 C 
ENDBRANCH  16  17
ENDBRANCH  15  16
ENDBRANCH  12  15
ENDBRANCH  10  11
ENDBRANCH   5  10
BRANCH   6  24
HETATM   24  C   UNL     1      -5.021   3.196 -32.450  1.00  0.00    -0.024 A 
HETATM   25  C   UNL     1      -3.633   3.092 -32.191  1.00  0.00    -0.053 A 
HETATM   26  C   UNL     1      -3.013   2.129 -31.209  1.00  0.00     0.049 C 
HETATM   27  C   UNL     1      -2.728   3.848 -32.967  1.00  0.00     0.014 A 
HETATM   28  C   UNL     1      -3.161   4.717 -33.971  1.00  0.00    -0.061 A 
HETATM   29  C   UNL     1      -2.173   5.479 -34.808  1.00  0.00     0.048 C 
HETATM   30  C   UNL     1      -4.522   4.796 -34.248  1.00  0.00     0.007 A 
HETATM   31  C   UNL     1      -5.435   4.045 -33.507  1.00  0.00     0.011 A 
ENDBRANCH   6  24
BRANCH   9  32
HETATM   32  C   UNL     1      -5.858   0.041 -32.230  1.00  0.00     0.293 C 
HETATM   33  O   UNL     1      -6.055  -0.790 -31.361  1.00  0.00    -0.259 OA
BRANCH  32  34
HETATM   34  O   UNL     1      -5.055  -0.110 -33.306  1.00  0.00    -0.323 OA
HETATM   35  C   UNL     1      -4.871  -1.461 -33.740  1.00  0.00     0.213 C 
ENDBRANCH  32  34
ENDBRANCH   9  32
BRANCH   1  36
HETATM   36  C   UNL     1      -8.419   0.248 -33.933  1.00  0.00     0.056 C 
HETATM   37  C   UNL     1      -7.799   0.274 -35.327  1.00  0.00     0.011 C 
ENDBRANCH   1  36
TORSDOF 9
ENDMDL
MODEL 3
REMARK VINA RESULT:      -6.5      2.866      8.060
REMARK  9 active torsions:
REMARK  status: ('A' for Active; 'I' for Inactive)
REMARK    1  A    between atoms: C_2  and  C_3 
REMARK    2  A    between atoms: C_7  and  C_8 
REMARK    3  A    between atoms: C_8  and  C_9 
REMARK       I    between atoms: C_9  and  N_10 
REMARK    4  A    between atoms: N_10  and  C_11 
REMARK    5  A    between atoms: C_11  and  C_12 
REMARK    6  A    between atoms: C_12  and  C_13 
REMARK    7  A    between atoms: C_21  and  C_22 
REMARK    8  A    between atoms: C_32  and  C_33 
REMARK    9  A    between atoms: C_33  and  O_34 
ROOT
HETATM    1  C   UNL     1     -10.976   3.641 -34.653  1.00  0.00     0.051 C 
HETATM    2  N   UNL     1     -10.030   4.647 -34.657  1.00  0.00    -0.228 NA
HETATM    3  C   UNL     1      -9.169   4.691 -33.706  1.00  0.00     0.170 C 
HETATM    4  N   UNL     1      -8.989   3.613 -32.611  1.00  0.00    -0.318 N 
HETATM    5  C   UNL     1      -8.051   3.937 -31.780  1.00  0.00     0.011 C 
HETATM    6  C   UNL     1      -9.770   2.373 -32.847  1.00  0.00     0.166 C 
HETATM    7  S   UNL     1      -8.024   5.981 -33.549  1.00  0.00    -0.086 SA
HETATM    8  C   UNL     1      -7.437   5.307 -31.974  1.00  0.00     0.135 C 
HETATM    9  C   UNL     1     -10.940   2.620 -33.769  1.00  0.00     0.069 C 
ENDROOT
BRANCH   5  10
HETATM   10  C   UNL     1      -7.523   2.968 -30.761  1.00  0.00     0.156 C 
BRANCH  10  11
HETATM   11  C   UNL     1      -6.035   3.103 -30.539  1.00  0.00     0.222 C 
HETATM   12  N   UNL     1      -5.242   2.525 -31.498  1.00  0.00    -0.361 N 
HETATM   13  H   UNL     1      -5.664   2.037 -32.284  1.00  0.00     0.162 HD
HETATM   14  O   UNL     1      -5.603   3.696 -29.557  1.00  0.00    -0.273 OA
BRANCH  12  15
HETATM   15  C   UNL     1      -3.788   2.589 -31.449  1.00  0.00     0.124 C 
BRANCH  15  16
HETATM   16  C   UNL     1      -3.222   3.363 -32.642  1.00  0.00     0.053 C 
BRANCH  16  17
HETATM   17  C   UNL     1      -2.656   4.736 -32.240  1.00  0.00     0.189 C 
HETATM   18  N   UNL     1      -3.461   5.828 -32.961  1.00  0.00    -0.071 N 
HETATM   19  H   UNL     1      -4.222   5.391 -33.498  1.00  0.00     0.279 HD
HETATM   20  C   UNL     1      -4.108   6.817 -32.032  1.00  0.00     0.270 C 
HETATM   21  C   UNL     1      -2.542   6.498 -33.972  1.00  0.00     0.235 C 
HETATM   22  C   UNL     1      -1.377   5.542 -34.106  1.00  0.00     0.030 C 
HETATM   23  C   UNL     1      -1.224   4.991 -32.702  1.00  0.00     0.035 C 
ENDBRANCH  16  17
ENDBRANCH  15  16
ENDBRANCH  12  15
ENDBRANCH  10  11
ENDBRANCH   5  10
BRANCH   6  24
HETATM   24  C   UNL     1      -8.816   1.281 -33.356  1.00  0.00    -0.024 A 
HETATM   25  C   UNL     1      -8.441   0.157 -32.580  1.00  0.00    -0.053 A 
HETATM   26  C   UNL     1      -9.040  -0.201 -31.242  1.00  0.00     0.049 C 
HETATM   27  C   UNL     1      -7.524  -0.774 -33.113  1.00  0.00     0.014 A 
HETATM   28  C   UNL     1      -6.955  -0.610 -34.378  1.00  0.00    -0.061 A 
HETATM   29  C   UNL     1      -6.013  -1.638 -34.937  1.00  0.00     0.048 C 
HETATM   30  C   UNL     1      -7.348   0.476 -35.155  1.00  0.00     0.007 A 
HETATM   31  C   UNL     1      -8.266   1.400 -34.656  1.00  0.00     0.011 A 
ENDBRANCH   6  24
BRANCH   9  32
HETATM   32  C   UNL     1     -12.060   1.669 -33.541  1.00  0.00     0.293 C 
HETATM   33  O   UNL     1     -11.944   0.468 -33.708  1.00  0.00    -0.259 OA
BRANCH  32  34
HETATM   34  O   UNL     1     -13.095   2.292 -32.934  1.00  0.00    -0.323 OA
HETATM   35  C   UNL     1     -14.379   1.708 -33.176  1.00  0.00     0.213 C 
ENDBRANCH  32  34
ENDBRANCH   9  32
BRANCH   1  36
HETATM   36  C   UNL     1     -12.021   3.817 -35.753  1.00  0.00     0.056 C 
HETATM   37  C   UNL     1     -12.804   5.122 -35.643  1.00  0.00     0.011 C 
ENDBRANCH   1  36
TORSDOF 9
ENDMDL
MODEL 4
REMARK VINA RESULT:      -6.3      3.241      8.826
REMARK  9 active torsions:
REMARK  status: ('A' for Active; 'I' for Inactive)
REMARK    1  A    between atoms: C_2  and  C_3 
REMARK    2  A    between atoms: C_7  and  C_8 
REMARK    3  A    between atoms: C_8  and  C_9 
REMARK       I    between atoms: C_9  and  N_10 
REMARK    4  A    between atoms: N_10  and  C_11 
REMARK    5  A    between atoms: C_11  and  C_12 
REMARK    6  A    between atoms: C_12  and  C_13 
REMARK    7  A    between atoms: C_21  and  C_22 
REMARK    8  A    between atoms: C_32  and  C_33 
REMARK    9  A    between atoms: C_33  and  O_34 
ROOT
HETATM    1  C   UNL     1     -11.894   1.367 -34.171  1.00  0.00     0.051 C 
HETATM    2  N   UNL     1     -11.046   0.480 -33.537  1.00  0.00    -0.228 NA
HETATM    3  C   UNL     1      -9.790   0.742 -33.505  1.00  0.00     0.170 C 
HETATM    4  N   UNL     1      -9.136   2.059 -33.985  1.00  0.00    -0.318 N 
HETATM    5  C   UNL     1      -7.851   2.028 -33.841  1.00  0.00     0.011 C 
HETATM    6  C   UNL     1     -10.108   3.131 -34.319  1.00  0.00     0.166 C 
HETATM    7  S   UNL     1      -8.628  -0.363 -32.850  1.00  0.00    -0.086 SA
HETATM    8  C   UNL     1      -7.268   0.715 -33.367  1.00  0.00     0.135 C 
HETATM    9  C   UNL     1     -11.474   2.567 -34.629  1.00  0.00     0.069 C 
ENDROOT
BRANCH   5  10
HETATM   10  C   UNL     1      -7.002   3.254 -34.018  1.00  0.00     0.156 C 
BRANCH  10  11
HETATM   11  C   UNL     1      -6.236   3.624 -32.770  1.00  0.00     0.222 C 
HETATM   12  N   UNL     1      -4.937   3.182 -32.724  1.00  0.00    -0.361 N 
HETATM   13  H   UNL     1      -4.556   2.635 -33.492  1.00  0.00     0.162 HD
HETATM   14  O   UNL     1      -6.771   4.277 -31.881  1.00  0.00    -0.273 OA
BRANCH  12  15
HETATM   15  C   UNL     1      -4.054   3.478 -31.605  1.00  0.00     0.124 C 
BRANCH  15  16
HETATM   16  C   UNL     1      -2.632   3.787 -32.082  1.00  0.00     0.053 C 
BRANCH  16  17
HETATM   17  C   UNL     1      -2.267   5.272 -31.926  1.00  0.00     0.189 C 
HETATM   18  N   UNL     1      -3.236   6.107 -32.777  1.00  0.00    -0.071 N 
HETATM   19  H   UNL     1      -3.933   5.485 -33.206  1.00  0.00     0.279 HD
HETATM   20  C   UNL     1      -4.004   7.132 -31.990  1.00  0.00     0.270 C 
HETATM   21  C   UNL     1      -2.443   6.728 -33.918  1.00  0.00     0.235 C 
HETATM   22  C   UNL     1      -1.153   5.938 -33.947  1.00  0.00     0.030 C 
HETATM   23  C   UNL     1      -0.895   5.650 -32.481  1.00  0.00     0.035 C 
ENDBRANCH  16  17
ENDBRANCH  15  16
ENDBRANCH  12  15
ENDBRANCH  10  11
ENDBRANCH   5  10
BRANCH   6  24
HETATM   24  C   UNL     1     -10.120   4.156 -33.174  1.00  0.00    -0.024 A 
HETATM   25  C   UNL     1      -9.875   5.537 -33.369  1.00  0.00    -0.053 A 
HETATM   26  C   UNL     1      -9.737   6.203 -34.715  1.00  0.00     0.049 C 
HETATM   27  C   UNL     1      -9.864   6.399 -32.251  1.00  0.00     0.014 A 
HETATM   28  C   UNL     1     -10.064   5.929 -30.951  1.00  0.00    -0.061 A 
HETATM   29  C   UNL     1     -10.086   6.875 -29.785  1.00  0.00     0.048 C 
HETATM   30  C   UNL     1     -10.337   4.577 -30.762  1.00  0.00     0.007 A 
HETATM   31  C   UNL     1     -10.372   3.708 -31.853  1.00  0.00     0.011 A 
ENDBRANCH   6  24
BRANCH   9  32
HETATM   32  C   UNL     1     -12.259   3.436 -35.544  1.00  0.00     0.293 C 
HETATM   33  O   UNL     1     -12.447   3.155 -36.714  1.00  0.00    -0.259 OA
BRANCH  32  34
HETATM   34  O   UNL     1     -12.886   4.411 -34.849  1.00  0.00    -0.323 OA
HETATM   35  C   UNL     1     -13.244   5.566 -35.615  1.00  0.00     0.213 C 
ENDBRANCH  32  34
ENDBRANCH   9  32
BRANCH   1  36
HETATM   36  C   UNL     1     -13.325   0.842 -34.265  1.00  0.00     0.056 C 
HETATM   37  C   UNL     1     -13.527  -0.497 -33.561  1.00  0.00     0.011 C 
ENDBRANCH   1  36
TORSDOF 9
ENDMDL
MODEL 5
REMARK VINA RESULT:      -6.3      5.831      8.941
REMARK  9 active torsions:
REMARK  status: ('A' for Active; 'I' for Inactive)
REMARK    1  A    between atoms: C_2  and  C_3 
REMARK    2  A    between atoms: C_7  and  C_8 
REMARK    3  A    between atoms: C_8  and  C_9 
REMARK       I    between atoms: C_9  and  N_10 
REMARK    4  A    between atoms: N_10  and  C_11 
REMARK    5  A    between atoms: C_11  and  C_12 
REMARK    6  A    between atoms: C_12  and  C_13 
REMARK    7  A    between atoms: C_21  and  C_22 
REMARK    8  A    between atoms: C_32  and  C_33 
REMARK    9  A    between atoms: C_33  and  O_34 
ROOT
HETATM    1  C   UNL     1     -14.431   5.313 -31.924  1.00  0.00     0.051 C 
HETATM    2  N   UNL     1     -14.899   4.016 -31.873  1.00  0.00    -0.228 NA
HETATM    3  C   UNL     1     -14.384   3.140 -32.658  1.00  0.00     0.170 C 
HETATM    4  N   UNL     1     -13.156   3.368 -33.571  1.00  0.00    -0.318 N 
HETATM    5  C   UNL     1     -12.875   2.308 -34.258  1.00  0.00     0.011 C 
HETATM    6  C   UNL     1     -12.454   4.655 -33.331  1.00  0.00     0.166 C 
HETATM    7  S   UNL     1     -14.985   1.519 -32.763  1.00  0.00    -0.086 SA
HETATM    8  C   UNL     1     -13.844   1.153 -34.121  1.00  0.00     0.135 C 
HETATM    9  C   UNL     1     -13.355   5.664 -32.663  1.00  0.00     0.069 C 
ENDROOT
BRANCH   5  10
HETATM   10  C   UNL     1     -11.604   2.188 -35.049  1.00  0.00     0.156 C 
BRANCH  10  11
HETATM   11  C   UNL     1     -10.500   1.497 -34.284  1.00  0.00     0.222 C 
HETATM   12  N   UNL     1      -9.232   1.701 -34.769  1.00  0.00    -0.361 N 
HETATM   13  H   UNL     1      -9.087   2.274 -35.597  1.00  0.00     0.162 HD
HETATM   14  O   UNL     1     -10.757   0.811 -33.302  1.00  0.00    -0.273 OA
BRANCH  12  15
HETATM   15  C   UNL     1      -8.054   1.130 -34.132  1.00  0.00     0.124 C 
BRANCH  15  16
HETATM   16  C   UNL     1      -7.636  -0.181 -34.803  1.00  0.00     0.053 C 
BRANCH  16  17
HETATM   17  C   UNL     1      -7.133  -1.227 -33.793  1.00  0.00     0.189 C 
HETATM   18  N   UNL     1      -5.685  -0.883 -33.412  1.00  0.00    -0.071 N 
HETATM   19  H   UNL     1      -5.410  -0.007 -33.876  1.00  0.00     0.279 HD
HETATM   20  C   UNL     1      -5.482  -0.668 -31.938  1.00  0.00     0.270 C 
HETATM   21  C   UNL     1      -4.781  -1.974 -33.967  1.00  0.00     0.235 C 
HETATM   22  C   UNL     1      -5.646  -2.692 -34.981  1.00  0.00     0.030 C 
HETATM   23  C   UNL     1      -7.024  -2.645 -34.349  1.00  0.00     0.035 C 
ENDBRANCH  16  17
ENDBRANCH  15  16
ENDBRANCH  12  15
ENDBRANCH  10  11
ENDBRANCH   5  10
BRANCH   6  24
HETATM   24  C   UNL     1     -11.167   4.371 -32.540  1.00  0.00    -0.024 A 
HETATM   25  C   UNL     1      -9.875   4.697 -33.020  1.00  0.00    -0.053 A 
HETATM   26  C   UNL     1      -9.600   5.497 -34.269  1.00  0.00     0.049 C 
HETATM   27  C   UNL     1      -8.746   4.359 -32.243  1.00  0.00     0.014 A 
HETATM   28  C   UNL     1      -8.861   3.692 -31.021  1.00  0.00    -0.061 A 
HETATM   29  C   UNL     1      -7.645   3.381 -30.196  1.00  0.00     0.048 C 
HETATM   30  C   UNL     1     -10.132   3.400 -30.534  1.00  0.00     0.007 A 
HETATM   31  C   UNL     1     -11.264   3.740 -31.275  1.00  0.00     0.011 A 
ENDBRANCH   6  24
BRANCH   9  32
HETATM   32  C   UNL     1     -12.971   7.067 -32.970  1.00  0.00     0.293 C 
HETATM   33  O   UNL     1     -12.112   7.663 -32.344  1.00  0.00    -0.259 OA
BRANCH  32  34
HETATM   34  O   UNL     1     -13.532   7.470 -34.131  1.00  0.00    -0.323 OA
HETATM   35  C   UNL     1     -12.604   7.818 -35.164  1.00  0.00     0.213 C 
ENDBRANCH  32  34
ENDBRANCH   9  32
BRANCH   1  36
HETATM   36  C   UNL     1     -15.247   6.264 -31.052  1.00  0.00     0.056 C 
HETATM   37  C   UNL     1     -14.637   6.497 -29.673  1.00  0.00     0.011 C 
ENDBRANCH   1  36
TORSDOF 9
ENDMDL
MODEL 6
REMARK VINA RESULT:      -6.3      2.343      8.048
REMARK  9 active torsions:
REMARK  status: ('A' for Active; 'I' for Inactive)
REMARK    1  A    between atoms: C_2  and  C_3 
REMARK    2  A    between atoms: C_7  and  C_8 
REMARK    3  A    between atoms: C_8  and  C_9 
REMARK       I    between atoms: C_9  and  N_10 
REMARK    4  A    between atoms: N_10  and  C_11 
REMARK    5  A    between atoms: C_11  and  C_12 
REMARK    6  A    between atoms: C_12  and  C_13 
REMARK    7  A    between atoms: C_21  and  C_22 
REMARK    8  A    between atoms: C_32  and  C_33 
REMARK    9  A    between atoms: C_33  and  O_34 
ROOT
HETATM    1  C   UNL     1      -7.989   1.439 -31.759  1.00  0.00     0.051 C 
HETATM    2  N   UNL     1      -6.914   0.699 -31.308  1.00  0.00    -0.228 NA
HETATM    3  C   UNL     1      -5.726   1.130 -31.536  1.00  0.00     0.170 C 
HETATM    4  N   UNL     1      -5.375   2.507 -32.147  1.00  0.00    -0.318 N 
HETATM    5  C   UNL     1      -4.096   2.657 -32.269  1.00  0.00     0.011 C 
HETATM    6  C   UNL     1      -6.535   3.424 -32.280  1.00  0.00     0.166 C 
HETATM    7  S   UNL     1      -4.313   0.216 -31.127  1.00  0.00    -0.086 SA
HETATM    8  C   UNL     1      -3.250   1.451 -31.918  1.00  0.00     0.135 C 
HETATM    9  C   UNL     1      -7.842   2.669 -32.300  1.00  0.00     0.069 C 
ENDROOT
BRANCH   5  10
HETATM   10  C   UNL     1      -3.481   3.980 -32.624  1.00  0.00     0.156 C 
BRANCH  10  11
HETATM   11  C   UNL     1      -2.613   4.539 -31.521  1.00  0.00     0.222 C 
HETATM   12  N   UNL     1      -3.092   5.672 -30.912  1.00  0.00    -0.361 N 
HETATM   13  H   UNL     1      -3.970   6.084 -31.219  1.00  0.00     0.162 HD
HETATM   14  O   UNL     1      -1.560   3.990 -31.218  1.00  0.00    -0.273 OA
BRANCH  12  15
HETATM   15  C   UNL     1      -2.392   6.320 -29.812  1.00  0.00     0.124 C 
BRANCH  15  16
HETATM   16  C   UNL     1      -1.303   7.266 -30.324  1.00  0.00     0.053 C 
BRANCH  16  17
HETATM   17  C   UNL     1       0.071   6.982 -29.693  1.00  0.00     0.189 C 
HETATM   18  N   UNL     1      -0.027   5.689 -28.870  1.00  0.00    -0.071 N 
HETATM   19  H   UNL     1      -0.968   5.287 -28.978  1.00  0.00     0.279 HD
HETATM   20  C   UNL     1       0.943   4.623 -29.299  1.00  0.00     0.270 C 
HETATM   21  C   UNL     1       0.127   6.054 -27.401  1.00  0.00     0.235 C 
HETATM   22  C   UNL     1      -0.094   7.551 -27.366  1.00  0.00     0.030 C 
HETATM   23  C   UNL     1       0.525   8.019 -28.669  1.00  0.00     0.035 C 
ENDBRANCH  16  17
ENDBRANCH  15  16
ENDBRANCH  12  15
ENDBRANCH  10  11
ENDBRANCH   5  10
BRANCH   6  24
HETATM   24  C   UNL     1      -6.459   4.477 -31.162  1.00  0.00    -0.024 A 
HETATM   25  C   UNL     1      -6.580   5.867 -31.399  1.00  0.00    -0.053 A 
HETATM   26  C   UNL     1      -6.958   6.484 -32.723  1.00  0.00     0.049 C 
HETATM   27  C   UNL     1      -6.454   6.764 -30.316  1.00  0.00     0.014 A 
HETATM   28  C   UNL     1      -6.189   6.324 -29.017  1.00  0.00    -0.061 A 
HETATM   29  C   UNL     1      -6.099   7.298 -27.877  1.00  0.00     0.048 C 
HETATM   30  C   UNL     1      -6.102   4.956 -28.778  1.00  0.00     0.007 A 
HETATM   31  C   UNL     1      -6.241   4.048 -29.829  1.00  0.00     0.011 A 
ENDBRANCH   6  24
BRANCH   9  32
HETATM   32  C   UNL     1      -8.911   3.392 -33.038  1.00  0.00     0.293 C 
HETATM   33  O   UNL     1      -9.118   3.219 -34.226  1.00  0.00    -0.259 OA
BRANCH  32  34
HETATM   34  O   UNL     1      -9.714   4.058 -32.180  1.00  0.00    -0.323 OA
HETATM   35  C   UNL     1     -11.031   4.331 -32.670  1.00  0.00     0.213 C 
ENDBRANCH  32  34
ENDBRANCH   9  32
BRANCH   1  36
HETATM   36  C   UNL     1      -9.320   0.721 -31.554  1.00  0.00     0.056 C 
HETATM   37  C   UNL     1      -9.769  -0.084 -32.771  1.00  0.00     0.011 C 
ENDBRANCH   1  36
TORSDOF 9
ENDMDL
MODEL 7
REMARK VINA RESULT:      -6.2      2.752      4.826
REMARK  9 active torsions:
REMARK  status: ('A' for Active; 'I' for Inactive)
REMARK    1  A    between atoms: C_2  and  C_3 
REMARK    2  A    between atoms: C_7  and  C_8 
REMARK    3  A    between atoms: C_8  and  C_9 
REMARK       I    between atoms: C_9  and  N_10 
REMARK    4  A    between atoms: N_10  and  C_11 
REMARK    5  A    between atoms: C_11  and  C_12 
REMARK    6  A    between atoms: C_12  and  C_13 
REMARK    7  A    between atoms: C_21  and  C_22 
REMARK    8  A    between atoms: C_32  and  C_33 
REMARK    9  A    between atoms: C_33  and  O_34 
ROOT
HETATM    1  C   UNL     1      -2.813   8.940 -30.689  1.00  0.00     0.051 C 
HETATM    2  N   UNL     1      -2.333   8.557 -31.926  1.00  0.00    -0.228 NA
HETATM    3  C   UNL     1      -2.253   7.305 -32.199  1.00  0.00     0.170 C 
HETATM    4  N   UNL     1      -2.797   6.159 -31.313  1.00  0.00    -0.318 N 
HETATM    5  C   UNL     1      -2.559   5.002 -31.840  1.00  0.00     0.011 C 
HETATM    6  C   UNL     1      -3.630   6.618 -30.173  1.00  0.00     0.166 C 
HETATM    7  S   UNL     1      -1.548   6.718 -33.667  1.00  0.00    -0.086 SA
HETATM    8  C   UNL     1      -1.722   5.007 -33.101  1.00  0.00     0.135 C 
HETATM    9  C   UNL     1      -3.337   8.055 -29.813  1.00  0.00     0.069 C 
ENDROOT
BRANCH   5  10
HETATM   10  C   UNL     1      -3.173   3.742 -31.301  1.00  0.00     0.156 C 
BRANCH  10  11
HETATM   11  C   UNL     1      -3.929   2.962 -32.351  1.00  0.00     0.222 C 
HETATM   12  N   UNL     1      -5.090   3.545 -32.795  1.00  0.00    -0.361 N 
HETATM   13  H   UNL     1      -5.393   4.436 -32.411  1.00  0.00     0.162 HD
HETATM   14  O   UNL     1      -3.503   1.885 -32.754  1.00  0.00    -0.273 OA
BRANCH  12  15
HETATM   15  C   UNL     1      -5.921   2.938 -33.825  1.00  0.00     0.124 C 
BRANCH  15  16
HETATM   16  C   UNL     1      -7.340   2.677 -33.314  1.00  0.00     0.053 C 
BRANCH  16  17
HETATM   17  C   UNL     1      -7.639   1.178 -33.138  1.00  0.00     0.189 C 
HETATM   18  N   UNL     1      -6.332   0.393 -33.328  1.00  0.00    -0.071 N 
HETATM   19  H   UNL     1      -5.557   1.053 -33.474  1.00  0.00     0.279 HD
HETATM   20  C   UNL     1      -5.956  -0.453 -32.144  1.00  0.00     0.270 C 
HETATM   21  C   UNL     1      -6.456  -0.423 -34.607  1.00  0.00     0.235 C 
HETATM   22  C   UNL     1      -7.632   0.198 -35.330  1.00  0.00     0.030 C 
HETATM   23  C   UNL     1      -8.563   0.586 -34.199  1.00  0.00     0.035 C 
ENDBRANCH  16  17
ENDBRANCH  15  16
ENDBRANCH  12  15
ENDBRANCH  10  11
ENDBRANCH   5  10
BRANCH   6  24
HETATM   24  C   UNL     1      -5.107   6.366 -30.511  1.00  0.00    -0.024 A 
HETATM   25  C   UNL     1      -5.990   5.667 -29.653  1.00  0.00    -0.053 A 
HETATM   26  C   UNL     1      -5.655   5.228 -28.249  1.00  0.00     0.049 C 
HETATM   27  C   UNL     1      -7.321   5.444 -30.066  1.00  0.00     0.014 A 
HETATM   28  C   UNL     1      -7.792   5.873 -31.309  1.00  0.00    -0.061 A 
HETATM   29  C   UNL     1      -9.224   5.658 -31.706  1.00  0.00     0.048 C 
HETATM   30  C   UNL     1      -6.935   6.589 -32.140  1.00  0.00     0.007 A 
HETATM   31  C   UNL     1      -5.619   6.837 -31.746  1.00  0.00     0.011 A 
ENDBRANCH   6  24
BRANCH   9  32
HETATM   32  C   UNL     1      -3.617   8.357 -28.384  1.00  0.00     0.293 C 
HETATM   33  O   UNL     1      -4.699   8.762 -28.000  1.00  0.00    -0.259 OA
BRANCH  32  34
HETATM   34  O   UNL     1      -2.610   7.914 -27.600  1.00  0.00    -0.323 OA
HETATM   35  C   UNL     1      -3.019   7.333 -26.358  1.00  0.00     0.213 C 
ENDBRANCH  32  34
ENDBRANCH   9  32
BRANCH   1  36
HETATM   36  C   UNL     1      -2.697  10.444 -30.458  1.00  0.00     0.056 C 
HETATM   37  C   UNL     1      -4.044  11.163 -30.452  1.00  0.00     0.011 C 
ENDBRANCH   1  36
TORSDOF 9
ENDMDL
MODEL 8
REMARK VINA RESULT:      -6.2      2.897      7.795
REMARK  9 active torsions:
REMARK  status: ('A' for Active; 'I' for Inactive)
REMARK    1  A    between atoms: C_2  and  C_3 
REMARK    2  A    between atoms: C_7  and  C_8 
REMARK    3  A    between atoms: C_8  and  C_9 
REMARK       I    between atoms: C_9  and  N_10 
REMARK    4  A    between atoms: N_10  and  C_11 
REMARK    5  A    between atoms: C_11  and  C_12 
REMARK    6  A    between atoms: C_12  and  C_13 
REMARK    7  A    between atoms: C_21  and  C_22 
REMARK    8  A    between atoms: C_32  and  C_33 
REMARK    9  A    between atoms: C_33  and  O_34 
ROOT
HETATM    1  C   UNL     1      -8.282   2.695 -33.396  1.00  0.00     0.051 C 
HETATM    2  N   UNL     1      -8.825   3.925 -33.082  1.00  0.00    -0.228 NA
HETATM    3  C   UNL     1      -8.321   4.593 -32.108  1.00  0.00     0.170 C 
HETATM    4  N   UNL     1      -7.038   4.215 -31.331  1.00  0.00    -0.318 N 
HETATM    5  C   UNL     1      -6.783   5.071 -30.395  1.00  0.00     0.011 C 
HETATM    6  C   UNL     1      -6.277   3.090 -31.930  1.00  0.00     0.166 C 
HETATM    7  S   UNL     1      -9.007   6.084 -31.552  1.00  0.00    -0.086 SA
HETATM    8  C   UNL     1      -7.822   6.152 -30.185  1.00  0.00     0.135 C 
HETATM    9  C   UNL     1      -7.152   2.235 -32.815  1.00  0.00     0.069 C 
ENDROOT
BRANCH   5  10
HETATM   10  C   UNL     1      -5.484   5.064 -29.644  1.00  0.00     0.156 C 
BRANCH  10  11
HETATM   11  C   UNL     1      -4.695   6.340 -29.821  1.00  0.00     0.222 C 
HETATM   12  N   UNL     1      -4.645   7.159 -28.721  1.00  0.00    -0.361 N 
HETATM   13  H   UNL     1      -5.130   6.897 -27.867  1.00  0.00     0.162 HD
HETATM   14  O   UNL     1      -4.149   6.591 -30.890  1.00  0.00    -0.273 OA
BRANCH  12  15
HETATM   15  C   UNL     1      -3.903   8.412 -28.717  1.00  0.00     0.124 C 
BRANCH  15  16
HETATM   16  C   UNL     1      -3.041   8.545 -27.458  1.00  0.00     0.053 C 
BRANCH  16  17
HETATM   17  C   UNL     1      -1.582   8.121 -27.695  1.00  0.00     0.189 C 
HETATM   18  N   UNL     1      -1.015   7.562 -26.381  1.00  0.00    -0.071 N 
HETATM   19  H   UNL     1      -1.757   7.551 -25.668  1.00  0.00     0.279 HD
HETATM   20  C   UNL     1      -0.508   6.151 -26.492  1.00  0.00     0.270 C 
HETATM   21  C   UNL     1       0.054   8.524 -25.884  1.00  0.00     0.235 C 
HETATM   22  C   UNL     1      -0.190   9.791 -26.675  1.00  0.00     0.030 C 
HETATM   23  C   UNL     1      -0.633   9.270 -28.028  1.00  0.00     0.035 C 
ENDBRANCH  16  17
ENDBRANCH  15  16
ENDBRANCH  12  15
ENDBRANCH  10  11
ENDBRANCH   5  10
BRANCH   6  24
HETATM   24  C   UNL     1      -5.050   3.660 -32.659  1.00  0.00    -0.024 A 
HETATM   25  C   UNL     1      -3.719   3.325 -32.312  1.00  0.00    -0.053 A 
HETATM   26  C   UNL     1      -3.333   2.261 -31.314  1.00  0.00     0.049 C 
HETATM   27  C   UNL     1      -2.651   3.931 -33.009  1.00  0.00     0.014 A 
HETATM   28  C   UNL     1      -2.867   4.872 -34.019  1.00  0.00    -0.061 A 
HETATM   29  C   UNL     1      -1.713   5.472 -34.771  1.00  0.00     0.048 C 
HETATM   30  C   UNL     1      -4.175   5.178 -34.382  1.00  0.00     0.007 A 
HETATM   31  C   UNL     1      -5.246   4.578 -33.720  1.00  0.00     0.011 A 
ENDBRANCH   6  24
BRANCH   9  32
HETATM   32  C   UNL     1      -6.675   0.830 -32.908  1.00  0.00     0.293 C 
HETATM   33  O   UNL     1      -5.880   0.463 -33.756  1.00  0.00    -0.259 OA
BRANCH  32  34
HETATM   34  O   UNL     1      -7.064   0.123 -31.824  1.00  0.00    -0.323 OA
HETATM   35  C   UNL     1      -5.998  -0.458 -31.066  1.00  0.00     0.213 C 
ENDBRANCH  32  34
ENDBRANCH   9  32
BRANCH   1  36
HETATM   36  C   UNL     1      -9.086   1.957 -34.464  1.00  0.00     0.056 C 
HETATM   37  C   UNL     1     -10.283   1.194 -33.903  1.00  0.00     0.011 C 
ENDBRANCH   1  36
TORSDOF 9
ENDMDL
MODEL 9
REMARK VINA RESULT:      -6.1      2.633      7.458
REMARK  9 active torsions:
REMARK  status: ('A' for Active; 'I' for Inactive)
REMARK    1  A    between atoms: C_2  and  C_3 
REMARK    2  A    between atoms: C_7  and  C_8 
REMARK    3  A    between atoms: C_8  and  C_9 
REMARK       I    between atoms: C_9  and  N_10 
REMARK    4  A    between atoms: N_10  and  C_11 
REMARK    5  A    between atoms: C_11  and  C_12 
REMARK    6  A    between atoms: C_12  and  C_13 
REMARK    7  A    between atoms: C_21  and  C_22 
REMARK    8  A    between atoms: C_32  and  C_33 
REMARK    9  A    between atoms: C_33  and  O_34 
ROOT
HETATM    1  C   UNL     1      -9.557   4.543 -33.839  1.00  0.00     0.051 C 
HETATM    2  N   UNL     1      -9.656   5.786 -33.245  1.00  0.00    -0.228 NA
HETATM    3  C   UNL     1      -9.112   5.968 -32.097  1.00  0.00     0.170 C 
HETATM    4  N   UNL     1      -8.206   4.951 -31.363  1.00  0.00    -0.318 N 
HETATM    5  C   UNL     1      -7.815   5.407 -30.218  1.00  0.00     0.011 C 
HETATM    6  C   UNL     1      -7.822   3.777 -32.188  1.00  0.00     0.166 C 
HETATM    7  S   UNL     1      -9.286   7.446 -31.211  1.00  0.00    -0.086 SA
HETATM    8  C   UNL     1      -8.404   6.736 -29.797  1.00  0.00     0.135 C 
HETATM    9  C   UNL     1      -8.789   3.557 -33.327  1.00  0.00     0.069 C 
ENDROOT
BRANCH   5  10
HETATM   10  C   UNL     1      -6.753   4.719 -29.409  1.00  0.00     0.156 C 
BRANCH  10  11
HETATM   11  C   UNL     1      -5.604   5.632 -29.049  1.00  0.00     0.222 C 
HETATM   12  N   UNL     1      -4.930   6.177 -30.113  1.00  0.00    -0.361 N 
HETATM   13  H   UNL     1      -5.206   5.947 -31.065  1.00  0.00     0.162 HD
HETATM   14  O   UNL     1      -5.325   5.849 -27.875  1.00  0.00    -0.273 OA
BRANCH  12  15
HETATM   15  C   UNL     1      -3.817   7.099 -29.940  1.00  0.00     0.124 C 
BRANCH  15  16
HETATM   16  C   UNL     1      -2.641   6.732 -30.849  1.00  0.00     0.053 C 
BRANCH  16  17
HETATM   17  C   UNL     1      -1.494   6.051 -30.084  1.00  0.00     0.189 C 
HETATM   18  N   UNL     1      -0.833   7.090 -29.164  1.00  0.00    -0.071 N 
HETATM   19  H   UNL     1      -1.345   7.979 -29.234  1.00  0.00     0.279 HD
HETATM   20  C   UNL     1      -0.842   6.704 -27.711  1.00  0.00     0.270 C 
HETATM   21  C   UNL     1       0.572   7.352 -29.686  1.00  0.00     0.235 C 
HETATM   22  C   UNL     1       0.558   6.789 -31.090  1.00  0.00     0.030 C 
HETATM   23  C   UNL     1      -0.340   5.574 -30.963  1.00  0.00     0.035 C 
ENDBRANCH  16  17
ENDBRANCH  15  16
ENDBRANCH  12  15
ENDBRANCH  10  11
ENDBRANCH   5  10
BRANCH   6  24
HETATM   24  C   UNL     1      -6.368   3.958 -32.653  1.00  0.00    -0.024 A 
HETATM   25  C   UNL     1      -5.317   3.093 -32.264  1.00  0.00    -0.053 A 
HETATM   26  C   UNL     1      -5.503   1.809 -31.494  1.00  0.00     0.049 C 
HETATM   27  C   UNL     1      -4.003   3.362 -32.705  1.00  0.00     0.014 A 
HETATM   28  C   UNL     1      -3.702   4.472 -33.497  1.00  0.00    -0.061 A 
HETATM   29  C   UNL     1      -2.301   4.711 -33.985  1.00  0.00     0.048 C 
HETATM   30  C   UNL     1      -4.738   5.305 -33.906  1.00  0.00     0.007 A 
HETATM   31  C   UNL     1      -6.048   5.049 -33.499  1.00  0.00     0.011 A 
ENDBRANCH   6  24
BRANCH   9  32
HETATM   32  C   UNL     1      -8.850   2.136 -33.759  1.00  0.00     0.293 C 
HETATM   33  O   UNL     1      -8.100   1.674 -34.601  1.00  0.00    -0.259 OA
BRANCH  32  34
HETATM   34  O   UNL     1      -9.669   1.429 -32.950  1.00  0.00    -0.323 OA
HETATM   35  C   UNL     1     -10.876   0.966 -33.565  1.00  0.00     0.213 C 
ENDBRANCH  32  34
ENDBRANCH   9  32
BRANCH   1  36
HETATM   36  C   UNL     1     -10.385   4.439 -35.117  1.00  0.00     0.056 C 
HETATM   37  C   UNL     1     -11.888   4.359 -34.863  1.00  0.00     0.011 C 
ENDBRANCH   1  36
TORSDOF 9
ENDMDL
MODEL 10
REMARK VINA RESULT:      -6.0     19.298     21.145
REMARK  9 active torsions:
REMARK  status: ('A' for Active; 'I' for Inactive)
REMARK    1  A    between atoms: C_2  and  C_3 
REMARK    2  A    between atoms: C_7  and  C_8 
REMARK    3  A    between atoms: C_8  and  C_9 
REMARK       I    between atoms: C_9  and  N_10 
REMARK    4  A    between atoms: N_10  and  C_11 
REMARK    5  A    between atoms: C_11  and  C_12 
REMARK    6  A    between atoms: C_12  and  C_13 
REMARK    7  A    between atoms: C_21  and  C_22 
REMARK    8  A    between atoms: C_32  and  C_33 
REMARK    9  A    between atoms: C_33  and  O_34 
ROOT
HETATM    1  C   UNL     1      -3.077 -14.470 -40.149  1.00  0.00     0.051 C 
HETATM    2  N   UNL     1      -3.428 -15.661 -40.753  1.00  0.00    -0.228 NA
HETATM    3  C   UNL     1      -4.293 -16.415 -40.178  1.00  0.00     0.170 C 
HETATM    4  N   UNL     1      -5.112 -16.041 -38.920  1.00  0.00    -0.318 N 
HETATM    5  C   UNL     1      -5.895 -17.007 -38.563  1.00  0.00     0.011 C 
HETATM    6  C   UNL     1      -4.980 -14.619 -38.512  1.00  0.00     0.166 C 
HETATM    7  S   UNL     1      -4.706 -17.984 -40.785  1.00  0.00    -0.086 SA
HETATM    8  C   UNL     1      -5.759 -18.295 -39.345  1.00  0.00     0.135 C 
HETATM    9  C   UNL     1      -3.714 -14.001 -39.053  1.00  0.00     0.069 C 
ENDROOT
BRANCH   5  10
HETATM   10  C   UNL     1      -6.955 -16.824 -37.515  1.00  0.00     0.156 C 
BRANCH  10  11
HETATM   11  C   UNL     1      -6.548 -17.368 -36.166  1.00  0.00     0.222 C 
HETATM   12  N   UNL     1      -5.263 -17.080 -35.779  1.00  0.00    -0.361 N 
HETATM   13  H   UNL     1      -4.653 -16.544 -36.391  1.00  0.00     0.162 HD
HETATM   14  O   UNL     1      -7.339 -18.017 -35.491  1.00  0.00    -0.273 OA
BRANCH  12  15
HETATM   15  C   UNL     1      -4.722 -17.505 -34.496  1.00  0.00     0.124 C 
BRANCH  15  16
HETATM   16  C   UNL     1      -4.160 -16.320 -33.706  1.00  0.00     0.053 C 
BRANCH  16  17
HETATM   17  C   UNL     1      -5.014 -15.973 -32.474  1.00  0.00     0.189 C 
HETATM   18  N   UNL     1      -6.314 -16.790 -32.533  1.00  0.00    -0.071 N 
HETATM   19  H   UNL     1      -6.285 -17.415 -33.349  1.00  0.00     0.279 HD
HETATM   20  C   UNL     1      -6.534 -17.665 -31.331  1.00  0.00     0.270 C 
HETATM   21  C   UNL     1      -7.466 -15.823 -32.764  1.00  0.00     0.235 C 
HETATM   22  C   UNL     1      -6.794 -14.550 -33.231  1.00  0.00     0.030 C 
HETATM   23  C   UNL     1      -5.507 -14.528 -32.430  1.00  0.00     0.035 C 
ENDBRANCH  16  17
ENDBRANCH  15  16
ENDBRANCH  12  15
ENDBRANCH  10  11
ENDBRANCH   5  10
BRANCH   6  24
HETATM   24  C   UNL     1      -6.252 -13.867 -38.935  1.00  0.00    -0.024 A 
HETATM   25  C   UNL     1      -7.206 -13.378 -38.010  1.00  0.00    -0.053 A 
HETATM   26  C   UNL     1      -7.029 -13.381 -36.511  1.00  0.00     0.049 C 
HETATM   27  C   UNL     1      -8.368 -12.737 -38.491  1.00  0.00     0.014 A 
HETATM   28  C   UNL     1      -8.618 -12.589 -39.857  1.00  0.00    -0.061 A 
HETATM   29  C   UNL     1      -9.843 -11.866 -40.341  1.00  0.00     0.048 C 
HETATM   30  C   UNL     1      -7.667 -13.040 -40.766  1.00  0.00     0.007 A 
HETATM   31  C   UNL     1      -6.502 -13.661 -40.314  1.00  0.00     0.011 A 
ENDBRANCH   6  24
BRANCH   9  32
HETATM   32  C   UNL     1      -3.217 -12.881 -38.211  1.00  0.00     0.293 C 
HETATM   33  O   UNL     1      -3.359 -11.713 -38.523  1.00  0.00    -0.259 OA
BRANCH  32  34
HETATM   34  O   UNL     1      -2.814 -13.338 -37.005  1.00  0.00    -0.323 OA
HETATM   35  C   UNL     1      -1.491 -13.884 -36.974  1.00  0.00     0.213 C 
ENDBRANCH  32  34
ENDBRANCH   9  32
BRANCH   1  36
HETATM   36  C   UNL     1      -1.928 -13.767 -40.867  1.00  0.00     0.056 C 
HETATM   37  C   UNL     1      -0.556 -14.344 -40.529  1.00  0.00     0.011 C 
ENDBRANCH   1  36
TORSDOF 9
ENDMDL
