MODEL 1
REMARK VINA RESULT:      -8.9      0.000      0.000
REMARK  7 active torsions:
REMARK  status: ('A' for Active; 'I' for Inactive)
REMARK    1  A    between atoms: C_2  and  O_3 
REMARK    2  A    between atoms: O_3  and  C_4 
REMARK    3  A    between atoms: C_7  and  C_8 
REMARK       I    between atoms: C_8  and  N_9 
REMARK    4  A    between atoms: N_9  and  N_10 
REMARK       I    between atoms: N_10  and  C_11 
REMARK    5  A    between atoms: C_11  and  C_12 
REMARK    6  A    between atoms: C_14  and  C_15 
REMARK    7  A    between atoms: C_22  and  C_23 
ROOT
HETATM    1  N   UNL     1      -3.346   2.866 -32.213  1.00  0.00    -0.262 N 
HETATM    2  C   UNL     1      -4.592   2.454 -31.783  1.00  0.00     0.291 C 
HETATM    3  O   UNL     1      -5.119   2.932 -30.777  1.00  0.00    -0.264 OA
HETATM    4  H   UNL     1      -2.873   2.419 -32.998  1.00  0.00     0.190 HD
ENDROOT
BRANCH   2   5
HETATM    5  C   UNL     1      -5.188   1.413 -32.604  1.00  0.00     0.159 A 
HETATM    6  N   UNL     1      -4.680   0.119 -32.675  1.00  0.00    -0.216 NA
HETATM    7  C   UNL     1      -5.510  -0.510 -33.486  1.00  0.00     0.180 A 
HETATM    8  O   UNL     1      -6.523   0.275 -33.964  1.00  0.00    -0.293 OA
HETATM    9  C   UNL     1      -6.316   1.503 -33.400  1.00  0.00     0.094 A 
BRANCH   7  10
HETATM   10  C   UNL     1      -5.509  -1.904 -33.924  1.00  0.00     0.017 A 
HETATM   11  C   UNL     1      -6.679  -2.474 -34.446  1.00  0.00     0.016 A 
HETATM   12  C   UNL     1      -6.696  -3.803 -34.880  1.00  0.00     0.001 A 
HETATM   13  C   UNL     1      -5.542  -4.580 -34.796  1.00  0.00     0.000 A 
HETATM   14  C   UNL     1      -4.372  -4.031 -34.278  1.00  0.00     0.001 A 
HETATM   15  C   UNL     1      -4.355  -2.702 -33.844  1.00  0.00     0.016 A 
ENDBRANCH   7  10
BRANCH   9  16
HETATM   16  C   UNL     1      -7.209   2.707 -33.642  1.00  0.00     0.046 A 
HETATM   17  C   UNL     1      -8.647   2.449 -34.044  1.00  0.00     0.012 A 
HETATM   18  C   UNL     1      -8.348   2.946 -32.672  1.00  0.00     0.012 A 
ENDBRANCH   9  16
ENDBRANCH   2   5
BRANCH   1  19
HETATM   19  N   UNL     1      -2.619   3.732 -31.393  1.00  0.00    -0.263 N 
HETATM   20  C   UNL     1      -1.792   4.677 -31.959  1.00  0.00     0.270 C 
HETATM   21  O   UNL     1      -1.669   4.837 -33.169  1.00  0.00    -0.266 OA
HETATM   22  H   UNL     1      -2.838   3.695 -30.399  1.00  0.00     0.190 HD
BRANCH  20  23
HETATM   23  C   UNL     1      -1.045   5.528 -30.992  1.00  0.00     0.033 A 
HETATM   24  C   UNL     1      -1.360   6.882 -30.816  1.00  0.00     0.020 A 
HETATM   25  C   UNL     1      -0.647   7.660 -29.895  1.00  0.00     0.038 A 
HETATM   26  C   UNL     1       0.377   7.089 -29.138  1.00  0.00     0.068 A 
HETATM   27  C   UNL     1       0.684   5.736 -29.311  1.00  0.00     0.038 A 
HETATM   28  C   UNL     1      -0.027   4.952 -30.226  1.00  0.00     0.020 A 
BRANCH  26  29
HETATM   29  O   UNL     1       1.140   7.738 -28.207  1.00  0.00    -0.352 OA
BRANCH  29  30
HETATM   30  C   UNL     1       1.145   7.200 -26.884  1.00  0.00     0.171 C 
HETATM   31  C   UNL     1       1.937   8.140 -25.994  1.00  0.00     0.034 C 
ENDBRANCH  29  30
ENDBRANCH  26  29
ENDBRANCH  20  23
ENDBRANCH   1  19
TORSDOF 7
ENDMDL
MODEL 2
REMARK VINA RESULT:      -8.3      2.153     10.361
REMARK  7 active torsions:
REMARK  status: ('A' for Active; 'I' for Inactive)
REMARK    1  A    between atoms: C_2  and  O_3 
REMARK    2  A    between atoms: O_3  and  C_4 
REMARK    3  A    between atoms: C_7  and  C_8 
REMARK       I    between atoms: C_8  and  N_9 
REMARK    4  A    between atoms: N_9  and  N_10 
REMARK       I    between atoms: N_10  and  C_11 
REMARK    5  A    between atoms: C_11  and  C_12 
REMARK    6  A    between atoms: C_14  and  C_15 
REMARK    7  A    between atoms: C_22  and  C_23 
ROOT
HETATM    1  N   UNL     1      -3.062   3.922 -31.068  1.00  0.00    -0.262 N 
HETATM    2  C   UNL     1      -2.106   4.778 -31.580  1.00  0.00     0.291 C 
HETATM    3  O   UNL     1      -1.442   4.484 -32.575  1.00  0.00    -0.264 OA
HETATM    4  H   UNL     1      -3.558   4.126 -30.201  1.00  0.00     0.190 HD
ENDROOT
BRANCH   2   5
HETATM    5  C   UNL     1      -1.957   6.014 -30.831  1.00  0.00     0.159 A 
HETATM    6  N   UNL     1      -0.908   6.243 -29.945  1.00  0.00    -0.216 NA
HETATM    7  C   UNL     1      -1.116   7.471 -29.506  1.00  0.00     0.180 A 
HETATM    8  O   UNL     1      -2.230   8.067 -30.030  1.00  0.00    -0.293 OA
HETATM    9  C   UNL     1      -2.766   7.136 -30.876  1.00  0.00     0.094 A 
BRANCH   7  10
HETATM   10  C   UNL     1      -0.331   8.272 -28.570  1.00  0.00     0.017 A 
HETATM   11  C   UNL     1      -0.924   9.360 -27.913  1.00  0.00     0.016 A 
HETATM   12  C   UNL     1      -0.193  10.133 -27.007  1.00  0.00     0.001 A 
HETATM   13  C   UNL     1       1.143   9.830 -26.748  1.00  0.00     0.000 A 
HETATM   14  C   UNL     1       1.748   8.755 -27.393  1.00  0.00     0.001 A 
HETATM   15  C   UNL     1       1.016   7.981 -28.299  1.00  0.00     0.016 A 
ENDBRANCH   7  10
BRANCH   9  16
HETATM   16  C   UNL     1      -4.024   7.362 -31.694  1.00  0.00     0.046 A 
HETATM   17  C   UNL     1      -5.299   6.687 -31.230  1.00  0.00     0.012 A 
HETATM   18  C   UNL     1      -5.145   8.158 -31.057  1.00  0.00     0.012 A 
ENDBRANCH   9  16
ENDBRANCH   2   5
BRANCH   1  19
HETATM   19  N   UNL     1      -3.154   2.638 -31.611  1.00  0.00    -0.263 N 
HETATM   20  C   UNL     1      -4.302   1.898 -31.426  1.00  0.00     0.270 C 
HETATM   21  O   UNL     1      -5.288   2.312 -30.826  1.00  0.00    -0.266 OA
HETATM   22  H   UNL     1      -2.397   2.359 -32.232  1.00  0.00     0.190 HD
BRANCH  20  23
HETATM   23  C   UNL     1      -4.282   0.535 -32.024  1.00  0.00     0.033 A 
HETATM   24  C   UNL     1      -3.380  -0.443 -31.583  1.00  0.00     0.020 A 
HETATM   25  C   UNL     1      -3.385  -1.720 -32.158  1.00  0.00     0.038 A 
HETATM   26  C   UNL     1      -4.296  -2.031 -33.169  1.00  0.00     0.068 A 
HETATM   27  C   UNL     1      -5.198  -1.055 -33.601  1.00  0.00     0.038 A 
HETATM   28  C   UNL     1      -5.201   0.221 -33.029  1.00  0.00     0.020 A 
BRANCH  26  29
HETATM   29  O   UNL     1      -4.404  -3.237 -33.803  1.00  0.00    -0.352 OA
BRANCH  29  30
HETATM   30  C   UNL     1      -5.170  -3.270 -35.008  1.00  0.00     0.171 C 
HETATM   31  C   UNL     1      -6.011  -4.534 -35.001  1.00  0.00     0.034 C 
ENDBRANCH  29  30
ENDBRANCH  26  29
ENDBRANCH  20  23
ENDBRANCH   1  19
TORSDOF 7
ENDMDL
MODEL 3
REMARK VINA RESULT:      -8.1      4.387      8.980
REMARK  7 active torsions:
REMARK  status: ('A' for Active; 'I' for Inactive)
REMARK    1  A    between atoms: C_2  and  O_3 
REMARK    2  A    between atoms: O_3  and  C_4 
REMARK    3  A    between atoms: C_7  and  C_8 
REMARK       I    between atoms: C_8  and  N_9 
REMARK    4  A    between atoms: N_9  and  N_10 
REMARK       I    between atoms: N_10  and  C_11 
REMARK    5  A    between atoms: C_11  and  C_12 
REMARK    6  A    between atoms: C_14  and  C_15 
REMARK    7  A    between atoms: C_22  and  C_23 
ROOT
HETATM    1  N   UNL     1      -8.396   2.776 -33.861  1.00  0.00    -0.262 N 
HETATM    2  C   UNL     1      -7.018   2.815 -33.949  1.00  0.00     0.291 C 
HETATM    3  O   UNL     1      -6.418   3.847 -34.254  1.00  0.00    -0.264 OA
HETATM    4  H   UNL     1      -8.899   1.906 -33.686  1.00  0.00     0.190 HD
ENDROOT
BRANCH   2   5
HETATM    5  C   UNL     1      -6.371   1.542 -33.673  1.00  0.00     0.159 A 
HETATM    6  N   UNL     1      -6.705   0.363 -34.331  1.00  0.00    -0.216 NA
HETATM    7  C   UNL     1      -5.881  -0.536 -33.824  1.00  0.00     0.180 A 
HETATM    8  O   UNL     1      -5.034  -0.039 -32.873  1.00  0.00    -0.293 OA
HETATM    9  C   UNL     1      -5.348   1.289 -32.777  1.00  0.00     0.094 A 
BRANCH   7  10
HETATM   10  C   UNL     1      -5.739  -1.955 -34.142  1.00  0.00     0.017 A 
HETATM   11  C   UNL     1      -4.498  -2.587 -33.975  1.00  0.00     0.016 A 
HETATM   12  C   UNL     1      -4.344  -3.946 -34.263  1.00  0.00     0.001 A 
HETATM   13  C   UNL     1      -5.428  -4.691 -34.724  1.00  0.00     0.000 A 
HETATM   14  C   UNL     1      -6.667  -4.078 -34.897  1.00  0.00     0.001 A 
HETATM   15  C   UNL     1      -6.821  -2.719 -34.608  1.00  0.00     0.016 A 
ENDBRANCH   7  10
BRANCH   9  16
HETATM   16  C   UNL     1      -4.652   2.257 -31.837  1.00  0.00     0.046 A 
HETATM   17  C   UNL     1      -3.291   1.864 -31.301  1.00  0.00     0.012 A 
HETATM   18  C   UNL     1      -3.389   2.934 -32.332  1.00  0.00     0.012 A 
ENDBRANCH   9  16
ENDBRANCH   2   5
BRANCH   1  19
HETATM   19  N   UNL     1      -9.114   3.898 -34.280  1.00  0.00    -0.263 N 
HETATM   20  C   UNL     1     -10.397   3.749 -34.760  1.00  0.00     0.270 C 
HETATM   21  O   UNL     1     -10.980   2.671 -34.818  1.00  0.00    -0.266 OA
HETATM   22  H   UNL     1      -8.684   4.801 -34.090  1.00  0.00     0.190 HD
BRANCH  20  23
HETATM   23  C   UNL     1     -11.059   5.006 -35.203  1.00  0.00     0.033 A 
HETATM   24  C   UNL     1     -12.444   5.068 -35.412  1.00  0.00     0.020 A 
HETATM   25  C   UNL     1     -13.044   6.264 -35.822  1.00  0.00     0.038 A 
HETATM   26  C   UNL     1     -12.268   7.408 -36.018  1.00  0.00     0.068 A 
HETATM   27  C   UNL     1     -10.889   7.345 -35.802  1.00  0.00     0.038 A 
HETATM   28  C   UNL     1     -10.283   6.153 -35.388  1.00  0.00     0.020 A 
BRANCH  26  29
HETATM   29  O   UNL     1     -12.734   8.632 -36.411  1.00  0.00    -0.352 OA
BRANCH  29  30
HETATM   30  C   UNL     1     -13.592   8.664 -37.552  1.00  0.00     0.171 C 
HETATM   31  C   UNL     1     -12.724   8.670 -38.797  1.00  0.00     0.034 C 
ENDBRANCH  29  30
ENDBRANCH  26  29
ENDBRANCH  20  23
ENDBRANCH   1  19
TORSDOF 7
ENDMDL
MODEL 4
REMARK VINA RESULT:      -8.1      2.076      2.514
REMARK  7 active torsions:
REMARK  status: ('A' for Active; 'I' for Inactive)
REMARK    1  A    between atoms: C_2  and  O_3 
REMARK    2  A    between atoms: O_3  and  C_4 
REMARK    3  A    between atoms: C_7  and  C_8 
REMARK       I    between atoms: C_8  and  N_9 
REMARK    4  A    between atoms: N_9  and  N_10 
REMARK       I    between atoms: N_10  and  C_11 
REMARK    5  A    between atoms: C_11  and  C_12 
REMARK    6  A    between atoms: C_14  and  C_15 
REMARK    7  A    between atoms: C_22  and  C_23 
ROOT
HETATM    1  N   UNL     1      -4.935   2.742 -32.221  1.00  0.00    -0.262 N 
HETATM    2  C   UNL     1      -5.690   2.596 -33.368  1.00  0.00     0.291 C 
HETATM    3  O   UNL     1      -5.935   3.551 -34.107  1.00  0.00    -0.264 OA
HETATM    4  H   UNL     1      -4.796   1.972 -31.567  1.00  0.00     0.190 HD
ENDROOT
BRANCH   2   5
HETATM    5  C   UNL     1      -6.167   1.241 -33.594  1.00  0.00     0.159 A 
HETATM    6  N   UNL     1      -5.316   0.171 -33.855  1.00  0.00    -0.216 NA
HETATM    7  C   UNL     1      -6.125  -0.867 -33.965  1.00  0.00     0.180 A 
HETATM    8  O   UNL     1      -7.448  -0.559 -33.805  1.00  0.00    -0.293 OA
HETATM    9  C   UNL     1      -7.473   0.787 -33.568  1.00  0.00     0.094 A 
BRANCH   7  10
HETATM   10  C   UNL     1      -5.812  -2.272 -34.212  1.00  0.00     0.017 A 
HETATM   11  C   UNL     1      -4.528  -2.762 -33.932  1.00  0.00     0.016 A 
HETATM   12  C   UNL     1      -4.211  -4.106 -34.152  1.00  0.00     0.001 A 
HETATM   13  C   UNL     1      -5.175  -4.977 -34.657  1.00  0.00     0.000 A 
HETATM   14  C   UNL     1      -6.454  -4.507 -34.943  1.00  0.00     0.001 A 
HETATM   15  C   UNL     1      -6.771  -3.163 -34.722  1.00  0.00     0.016 A 
ENDBRANCH   7  10
BRANCH   9  16
HETATM   16  C   UNL     1      -8.745   1.579 -33.322  1.00  0.00     0.046 A 
HETATM   17  C   UNL     1     -10.002   0.807 -32.978  1.00  0.00     0.012 A 
HETATM   18  C   UNL     1      -9.309   1.587 -31.915  1.00  0.00     0.012 A 
ENDBRANCH   9  16
ENDBRANCH   2   5
BRANCH   1  19
HETATM   19  N   UNL     1      -4.583   4.034 -31.825  1.00  0.00    -0.263 N 
HETATM   20  C   UNL     1      -3.253   4.371 -31.697  1.00  0.00     0.270 C 
HETATM   21  O   UNL     1      -2.330   3.602 -31.943  1.00  0.00    -0.266 OA
HETATM   22  H   UNL     1      -5.344   4.708 -31.769  1.00  0.00     0.190 HD
BRANCH  20  23
HETATM   23  C   UNL     1      -2.992   5.765 -31.245  1.00  0.00     0.033 A 
HETATM   24  C   UNL     1      -3.776   6.370 -30.253  1.00  0.00     0.020 A 
HETATM   25  C   UNL     1      -3.507   7.681 -29.840  1.00  0.00     0.038 A 
HETATM   26  C   UNL     1      -2.448   8.392 -30.407  1.00  0.00     0.068 A 
HETATM   27  C   UNL     1      -1.664   7.783 -31.391  1.00  0.00     0.038 A 
HETATM   28  C   UNL     1      -1.925   6.472 -31.805  1.00  0.00     0.020 A 
BRANCH  26  29
HETATM   29  O   UNL     1      -2.082   9.670 -30.087  1.00  0.00    -0.352 OA
BRANCH  29  30
HETATM   30  C   UNL     1      -2.360  10.111 -28.758  1.00  0.00     0.171 C 
HETATM   31  C   UNL     1      -1.151   9.802 -27.894  1.00  0.00     0.034 C 
ENDBRANCH  29  30
ENDBRANCH  26  29
ENDBRANCH  20  23
ENDBRANCH   1  19
TORSDOF 7
ENDMDL
MODEL 5
REMARK VINA RESULT:      -8.0      4.946     11.107
REMARK  7 active torsions:
REMARK  status: ('A' for Active; 'I' for Inactive)
REMARK    1  A    between atoms: C_2  and  O_3 
REMARK    2  A    between atoms: O_3  and  C_4 
REMARK    3  A    between atoms: C_7  and  C_8 
REMARK       I    between atoms: C_8  and  N_9 
REMARK    4  A    between atoms: N_9  and  N_10 
REMARK       I    between atoms: N_10  and  C_11 
REMARK    5  A    between atoms: C_11  and  C_12 
REMARK    6  A    between atoms: C_14  and  C_15 
REMARK    7  A    between atoms: C_22  and  C_23 
ROOT
HETATM    1  N   UNL     1      -9.512   1.844 -33.105  1.00  0.00    -0.262 N 
HETATM    2  C   UNL     1      -8.667   1.151 -32.260  1.00  0.00     0.291 C 
HETATM    3  O   UNL     1      -9.101   0.412 -31.375  1.00  0.00    -0.264 OA
HETATM    4  H   UNL     1      -9.159   2.516 -33.786  1.00  0.00     0.190 HD
ENDROOT
BRANCH   2   5
HETATM    5  C   UNL     1      -7.255   1.396 -32.504  1.00  0.00     0.159 A 
HETATM    6  N   UNL     1      -6.671   2.654 -32.380  1.00  0.00    -0.216 NA
HETATM    7  C   UNL     1      -5.395   2.446 -32.649  1.00  0.00     0.180 A 
HETATM    8  O   UNL     1      -5.095   1.147 -32.950  1.00  0.00    -0.293 OA
HETATM    9  C   UNL     1      -6.284   0.477 -32.857  1.00  0.00     0.094 A 
BRANCH   7  10
HETATM   10  C   UNL     1      -4.278   3.388 -32.654  1.00  0.00     0.017 A 
HETATM   11  C   UNL     1      -4.232   4.413 -33.609  1.00  0.00     0.016 A 
HETATM   12  C   UNL     1      -3.177   5.330 -33.625  1.00  0.00     0.001 A 
HETATM   13  C   UNL     1      -2.152   5.232 -32.686  1.00  0.00     0.000 A 
HETATM   14  C   UNL     1      -2.180   4.218 -31.731  1.00  0.00     0.001 A 
HETATM   15  C   UNL     1      -3.236   3.301 -31.715  1.00  0.00     0.016 A 
ENDBRANCH   7  10
BRANCH   9  16
HETATM   16  C   UNL     1      -6.437  -1.013 -33.104  1.00  0.00     0.046 A 
HETATM   17  C   UNL     1      -7.133  -1.449 -34.377  1.00  0.00     0.012 A 
HETATM   18  C   UNL     1      -5.659  -1.619 -34.255  1.00  0.00     0.012 A 
ENDBRANCH   9  16
ENDBRANCH   2   5
BRANCH   1  19
HETATM   19  N   UNL     1     -10.882   1.812 -32.837  1.00  0.00    -0.263 N 
HETATM   20  C   UNL     1     -11.778   2.217 -33.802  1.00  0.00     0.270 C 
HETATM   21  O   UNL     1     -11.448   2.584 -34.925  1.00  0.00    -0.266 OA
HETATM   22  H   UNL     1     -11.157   1.367 -31.963  1.00  0.00     0.190 HD
BRANCH  20  23
HETATM   23  C   UNL     1     -13.210   2.167 -33.400  1.00  0.00     0.033 A 
HETATM   24  C   UNL     1     -14.117   1.305 -34.032  1.00  0.00     0.020 A 
HETATM   25  C   UNL     1     -15.458   1.272 -33.631  1.00  0.00     0.038 A 
HETATM   26  C   UNL     1     -15.901   2.092 -32.592  1.00  0.00     0.068 A 
HETATM   27  C   UNL     1     -14.992   2.946 -31.959  1.00  0.00     0.038 A 
HETATM   28  C   UNL     1     -13.650   2.980 -32.352  1.00  0.00     0.020 A 
BRANCH  26  29
HETATM   29  O   UNL     1     -17.178   2.149 -32.107  1.00  0.00    -0.352 OA
BRANCH  29  30
HETATM   30  C   UNL     1     -17.876   3.385 -32.261  1.00  0.00     0.171 C 
HETATM   31  C   UNL     1     -18.940   3.199 -33.327  1.00  0.00     0.034 C 
ENDBRANCH  29  30
ENDBRANCH  26  29
ENDBRANCH  20  23
ENDBRANCH   1  19
TORSDOF 7
ENDMDL
MODEL 6
REMARK VINA RESULT:      -7.9      6.534     10.299
REMARK  7 active torsions:
REMARK  status: ('A' for Active; 'I' for Inactive)
REMARK    1  A    between atoms: C_2  and  O_3 
REMARK    2  A    between atoms: O_3  and  C_4 
REMARK    3  A    between atoms: C_7  and  C_8 
REMARK       I    between atoms: C_8  and  N_9 
REMARK    4  A    between atoms: N_9  and  N_10 
REMARK       I    between atoms: N_10  and  C_11 
REMARK    5  A    between atoms: C_11  and  C_12 
REMARK    6  A    between atoms: C_14  and  C_15 
REMARK    7  A    between atoms: C_22  and  C_23 
ROOT
HETATM    1  N   UNL     1     -10.494   0.718 -32.691  1.00  0.00    -0.262 N 
HETATM    2  C   UNL     1     -10.996   1.656 -33.572  1.00  0.00     0.291 C 
HETATM    3  O   UNL     1     -10.592   1.733 -34.733  1.00  0.00    -0.264 OA
HETATM    4  H   UNL     1     -10.769   0.702 -31.709  1.00  0.00     0.190 HD
ENDROOT
BRANCH   2   5
HETATM    5  C   UNL     1     -12.006   2.529 -32.996  1.00  0.00     0.159 A 
HETATM    6  N   UNL     1     -13.372   2.283 -33.104  1.00  0.00    -0.216 NA
HETATM    7  C   UNL     1     -13.932   3.272 -32.432  1.00  0.00     0.180 A 
HETATM    8  O   UNL     1     -13.038   4.158 -31.897  1.00  0.00    -0.293 OA
HETATM    9  C   UNL     1     -11.808   3.681 -32.258  1.00  0.00     0.094 A 
BRANCH   7  10
HETATM   10  C   UNL     1     -15.345   3.540 -32.171  1.00  0.00     0.017 A 
HETATM   11  C   UNL     1     -16.262   2.480 -32.134  1.00  0.00     0.016 A 
HETATM   12  C   UNL     1     -17.616   2.714 -31.876  1.00  0.00     0.001 A 
HETATM   13  C   UNL     1     -18.070   4.013 -31.653  1.00  0.00     0.000 A 
HETATM   14  C   UNL     1     -17.173   5.077 -31.688  1.00  0.00     0.001 A 
HETATM   15  C   UNL     1     -15.819   4.843 -31.946  1.00  0.00     0.016 A 
ENDBRANCH   7  10
BRANCH   9  16
HETATM   16  C   UNL     1     -10.498   4.347 -31.876  1.00  0.00     0.046 A 
HETATM   17  C   UNL     1      -9.593   4.819 -32.996  1.00  0.00     0.012 A 
HETATM   18  C   UNL     1     -10.340   5.822 -32.187  1.00  0.00     0.012 A 
ENDBRANCH   9  16
ENDBRANCH   2   5
BRANCH   1  19
HETATM   19  N   UNL     1      -9.399  -0.046 -33.096  1.00  0.00    -0.263 N 
HETATM   20  C   UNL     1      -8.127   0.326 -32.718  1.00  0.00     0.270 C 
HETATM   21  O   UNL     1      -7.886   1.293 -32.004  1.00  0.00    -0.266 OA
HETATM   22  H   UNL     1      -9.615  -0.927 -33.560  1.00  0.00     0.190 HD
BRANCH  20  23
HETATM   23  C   UNL     1      -7.033  -0.546 -33.228  1.00  0.00     0.033 A 
HETATM   24  C   UNL     1      -5.704  -0.365 -32.818  1.00  0.00     0.020 A 
HETATM   25  C   UNL     1      -4.694  -1.202 -33.308  1.00  0.00     0.038 A 
HETATM   26  C   UNL     1      -5.004  -2.229 -34.200  1.00  0.00     0.068 A 
HETATM   27  C   UNL     1      -6.330  -2.411 -34.600  1.00  0.00     0.038 A 
HETATM   28  C   UNL     1      -7.346  -1.581 -34.113  1.00  0.00     0.020 A 
BRANCH  26  29
HETATM   29  O   UNL     1      -4.112  -3.113 -34.742  1.00  0.00    -0.352 OA
BRANCH  29  30
HETATM   30  C   UNL     1      -4.118  -4.442 -34.221  1.00  0.00     0.171 C 
HETATM   31  C   UNL     1      -3.367  -4.438 -32.903  1.00  0.00     0.034 C 
ENDBRANCH  29  30
ENDBRANCH  26  29
ENDBRANCH  20  23
ENDBRANCH   1  19
TORSDOF 7
ENDMDL
MODEL 7
REMARK VINA RESULT:      -7.9      5.548     10.385
REMARK  7 active torsions:
REMARK  status: ('A' for Active; 'I' for Inactive)
REMARK    1  A    between atoms: C_2  and  O_3 
REMARK    2  A    between atoms: O_3  and  C_4 
REMARK    3  A    between atoms: C_7  and  C_8 
REMARK       I    between atoms: C_8  and  N_9 
REMARK    4  A    between atoms: N_9  and  N_10 
REMARK       I    between atoms: N_10  and  C_11 
REMARK    5  A    between atoms: C_11  and  C_12 
REMARK    6  A    between atoms: C_14  and  C_15 
REMARK    7  A    between atoms: C_22  and  C_23 
ROOT
HETATM    1  N   UNL     1     -10.716   1.325 -33.147  1.00  0.00    -0.262 N 
HETATM    2  C   UNL     1      -9.541   1.630 -32.486  1.00  0.00     0.291 C 
HETATM    3  O   UNL     1      -9.523   2.387 -31.515  1.00  0.00    -0.264 OA
HETATM    4  H   UNL     1     -10.725   0.763 -33.997  1.00  0.00     0.190 HD
ENDROOT
BRANCH   2   5
HETATM    5  C   UNL     1      -8.362   0.998 -33.055  1.00  0.00     0.159 A 
HETATM    6  N   UNL     1      -8.166  -0.380 -33.058  1.00  0.00    -0.216 NA
HETATM    7  C   UNL     1      -7.014  -0.542 -33.684  1.00  0.00     0.180 A 
HETATM    8  O   UNL     1      -6.431   0.628 -34.086  1.00  0.00    -0.293 OA
HETATM    9  C   UNL     1      -7.293   1.610 -33.685  1.00  0.00     0.094 A 
BRANCH   7  10
HETATM   10  C   UNL     1      -6.297  -1.771 -34.014  1.00  0.00     0.017 A 
HETATM   11  C   UNL     1      -4.931  -1.885 -33.717  1.00  0.00     0.016 A 
HETATM   12  C   UNL     1      -4.230  -3.057 -34.016  1.00  0.00     0.001 A 
HETATM   13  C   UNL     1      -4.885  -4.129 -34.618  1.00  0.00     0.000 A 
HETATM   14  C   UNL     1      -6.241  -4.032 -34.922  1.00  0.00     0.001 A 
HETATM   15  C   UNL     1      -6.942  -2.861 -34.623  1.00  0.00     0.016 A 
ENDBRANCH   7  10
BRANCH   9  16
HETATM   16  C   UNL     1      -7.059   3.091 -33.925  1.00  0.00     0.046 A 
HETATM   17  C   UNL     1      -6.632   3.939 -32.745  1.00  0.00     0.012 A 
HETATM   18  C   UNL     1      -5.640   3.608 -33.805  1.00  0.00     0.012 A 
ENDBRANCH   9  16
ENDBRANCH   2   5
BRANCH   1  19
HETATM   19  N   UNL     1     -11.872   2.020 -32.787  1.00  0.00    -0.263 N 
HETATM   20  C   UNL     1     -13.107   1.532 -33.155  1.00  0.00     0.270 C 
HETATM   21  O   UNL     1     -13.267   0.482 -33.769  1.00  0.00    -0.266 OA
HETATM   22  H   UNL     1     -11.743   2.806 -32.151  1.00  0.00     0.190 HD
BRANCH  20  23
HETATM   23  C   UNL     1     -14.269   2.365 -32.742  1.00  0.00     0.033 A 
HETATM   24  C   UNL     1     -15.559   1.826 -32.652  1.00  0.00     0.020 A 
HETATM   25  C   UNL     1     -16.635   2.629 -32.255  1.00  0.00     0.038 A 
HETATM   26  C   UNL     1     -16.428   3.972 -31.936  1.00  0.00     0.068 A 
HETATM   27  C   UNL     1     -15.139   4.505 -32.020  1.00  0.00     0.038 A 
HETATM   28  C   UNL     1     -14.059   3.707 -32.412  1.00  0.00     0.020 A 
BRANCH  26  29
HETATM   29  O   UNL     1     -17.391   4.855 -31.531  1.00  0.00    -0.352 OA
BRANCH  29  30
HETATM   30  C   UNL     1     -16.944   6.100 -30.993  1.00  0.00     0.171 C 
HETATM   31  C   UNL     1     -17.580   6.281 -29.627  1.00  0.00     0.034 C 
ENDBRANCH  29  30
ENDBRANCH  26  29
ENDBRANCH  20  23
ENDBRANCH   1  19
TORSDOF 7
ENDMDL
MODEL 8
REMARK VINA RESULT:      -7.8      6.516     10.360
REMARK  7 active torsions:
REMARK  status: ('A' for Active; 'I' for Inactive)
REMARK    1  A    between atoms: C_2  and  O_3 
REMARK    2  A    between atoms: O_3  and  C_4 
REMARK    3  A    between atoms: C_7  and  C_8 
REMARK       I    between atoms: C_8  and  N_9 
REMARK    4  A    between atoms: N_9  and  N_10 
REMARK       I    between atoms: N_10  and  C_11 
REMARK    5  A    between atoms: C_11  and  C_12 
REMARK    6  A    between atoms: C_14  and  C_15 
REMARK    7  A    between atoms: C_22  and  C_23 
ROOT
HETATM    1  N   UNL     1     -10.337   0.787 -32.720  1.00  0.00    -0.262 N 
HETATM    2  C   UNL     1     -10.687   1.878 -33.492  1.00  0.00     0.291 C 
HETATM    3  O   UNL     1     -10.162   2.091 -34.586  1.00  0.00    -0.264 OA
HETATM    4  H   UNL     1     -10.711   0.650 -31.782  1.00  0.00     0.190 HD
ENDROOT
BRANCH   2   5
HETATM    5  C   UNL     1     -11.694   2.733 -32.885  1.00  0.00     0.159 A 
HETATM    6  N   UNL     1     -11.395   3.694 -31.924  1.00  0.00    -0.216 NA
HETATM    7  C   UNL     1     -12.557   4.264 -31.663  1.00  0.00     0.180 A 
HETATM    8  O   UNL     1     -13.603   3.743 -32.373  1.00  0.00    -0.293 OA
HETATM    9  C   UNL     1     -13.051   2.766 -33.154  1.00  0.00     0.094 A 
BRANCH   7  10
HETATM   10  C   UNL     1     -12.874   5.360 -30.751  1.00  0.00     0.017 A 
HETATM   11  C   UNL     1     -11.995   6.446 -30.631  1.00  0.00     0.016 A 
HETATM   12  C   UNL     1     -12.285   7.510 -29.772  1.00  0.00     0.001 A 
HETATM   13  C   UNL     1     -13.458   7.501 -29.020  1.00  0.00     0.000 A 
HETATM   14  C   UNL     1     -14.342   6.429 -29.125  1.00  0.00     0.001 A 
HETATM   15  C   UNL     1     -14.052   5.366 -29.985  1.00  0.00     0.016 A 
ENDBRANCH   7  10
BRANCH   9  16
HETATM   16  C   UNL     1     -13.844   1.911 -34.125  1.00  0.00     0.046 A 
HETATM   17  C   UNL     1     -13.858   0.413 -33.899  1.00  0.00     0.012 A 
HETATM   18  C   UNL     1     -15.080   1.209 -33.600  1.00  0.00     0.012 A 
ENDBRANCH   9  16
ENDBRANCH   2   5
BRANCH   1  19
HETATM   19  N   UNL     1      -9.255   0.008 -33.135  1.00  0.00    -0.263 N 
HETATM   20  C   UNL     1      -8.001   0.244 -32.613  1.00  0.00     0.270 C 
HETATM   21  O   UNL     1      -7.769   1.097 -31.762  1.00  0.00    -0.266 OA
HETATM   22  H   UNL     1      -9.479  -0.792 -33.724  1.00  0.00     0.190 HD
BRANCH  20  23
HETATM   23  C   UNL     1      -6.918  -0.627 -33.144  1.00  0.00     0.033 A 
HETATM   24  C   UNL     1      -5.589  -0.478 -32.725  1.00  0.00     0.020 A 
HETATM   25  C   UNL     1      -4.588  -1.315 -33.235  1.00  0.00     0.038 A 
HETATM   26  C   UNL     1      -4.909  -2.311 -34.158  1.00  0.00     0.068 A 
HETATM   27  C   UNL     1      -6.237  -2.462 -34.569  1.00  0.00     0.038 A 
HETATM   28  C   UNL     1      -7.242  -1.631 -34.060  1.00  0.00     0.020 A 
BRANCH  26  29
HETATM   29  O   UNL     1      -4.028  -3.191 -34.723  1.00  0.00    -0.352 OA
BRANCH  29  30
HETATM   30  C   UNL     1      -4.181  -4.569 -34.383  1.00  0.00     0.171 C 
HETATM   31  C   UNL     1      -3.387  -4.836 -33.117  1.00  0.00     0.034 C 
ENDBRANCH  29  30
ENDBRANCH  26  29
ENDBRANCH  20  23
ENDBRANCH   1  19
TORSDOF 7
ENDMDL
MODEL 9
REMARK VINA RESULT:      -7.5      2.196      4.583
REMARK  7 active torsions:
REMARK  status: ('A' for Active; 'I' for Inactive)
REMARK    1  A    between atoms: C_2  and  O_3 
REMARK    2  A    between atoms: O_3  and  C_4 
REMARK    3  A    between atoms: C_7  and  C_8 
REMARK       I    between atoms: C_8  and  N_9 
REMARK    4  A    between atoms: N_9  and  N_10 
REMARK       I    between atoms: N_10  and  C_11 
REMARK    5  A    between atoms: C_11  and  C_12 
REMARK    6  A    between atoms: C_14  and  C_15 
REMARK    7  A    between atoms: C_22  and  C_23 
ROOT
HETATM    1  N   UNL     1      -5.729   3.277 -31.387  1.00  0.00    -0.262 N 
HETATM    2  C   UNL     1      -5.611   2.356 -32.409  1.00  0.00     0.291 C 
HETATM    3  O   UNL     1      -4.511   1.969 -32.807  1.00  0.00    -0.264 OA
HETATM    4  H   UNL     1      -6.632   3.659 -31.108  1.00  0.00     0.190 HD
ENDROOT
BRANCH   2   5
HETATM    5  C   UNL     1      -6.883   1.922 -32.964  1.00  0.00     0.159 A 
HETATM    6  N   UNL     1      -7.890   2.808 -33.335  1.00  0.00    -0.216 NA
HETATM    7  C   UNL     1      -8.845   2.031 -33.813  1.00  0.00     0.180 A 
HETATM    8  O   UNL     1      -8.546   0.697 -33.776  1.00  0.00    -0.293 OA
HETATM    9  C   UNL     1      -7.293   0.629 -33.234  1.00  0.00     0.094 A 
BRANCH   7  10
HETATM   10  C   UNL     1     -10.144   2.389 -34.379  1.00  0.00     0.017 A 
HETATM   11  C   UNL     1     -11.174   1.439 -34.421  1.00  0.00     0.016 A 
HETATM   12  C   UNL     1     -12.426   1.764 -34.950  1.00  0.00     0.001 A 
HETATM   13  C   UNL     1     -12.665   3.045 -35.444  1.00  0.00     0.000 A 
HETATM   14  C   UNL     1     -11.652   4.001 -35.411  1.00  0.00     0.001 A 
HETATM   15  C   UNL     1     -10.400   3.675 -34.883  1.00  0.00     0.016 A 
ENDBRANCH   7  10
BRANCH   9  16
HETATM   16  C   UNL     1      -6.540  -0.669 -33.004  1.00  0.00     0.046 A 
HETATM   17  C   UNL     1      -6.857  -1.839 -33.912  1.00  0.00     0.012 A 
HETATM   18  C   UNL     1      -5.565  -1.117 -34.073  1.00  0.00     0.012 A 
ENDBRANCH   9  16
ENDBRANCH   2   5
BRANCH   1  19
HETATM   19  N   UNL     1      -4.565   3.885 -30.911  1.00  0.00    -0.263 N 
HETATM   20  C   UNL     1      -4.187   5.116 -31.400  1.00  0.00     0.270 C 
HETATM   21  O   UNL     1      -4.837   5.749 -32.226  1.00  0.00    -0.266 OA
HETATM   22  H   UNL     1      -4.112   3.428 -30.121  1.00  0.00     0.190 HD
BRANCH  20  23
HETATM   23  C   UNL     1      -2.917   5.658 -30.843  1.00  0.00     0.033 A 
HETATM   24  C   UNL     1      -2.906   6.794 -30.022  1.00  0.00     0.020 A 
HETATM   25  C   UNL     1      -1.700   7.281 -29.505  1.00  0.00     0.038 A 
HETATM   26  C   UNL     1      -0.499   6.633 -29.796  1.00  0.00     0.068 A 
HETATM   27  C   UNL     1      -0.514   5.496 -30.609  1.00  0.00     0.038 A 
HETATM   28  C   UNL     1      -1.717   5.002 -31.126  1.00  0.00     0.020 A 
BRANCH  26  29
HETATM   29  O   UNL     1       0.739   7.005 -29.350  1.00  0.00    -0.352 OA
BRANCH  29  30
HETATM   30  C   UNL     1       0.884   7.224 -27.946  1.00  0.00     0.171 C 
HETATM   31  C   UNL     1       1.542   8.577 -27.743  1.00  0.00     0.034 C 
ENDBRANCH  29  30
ENDBRANCH  26  29
ENDBRANCH  20  23
ENDBRANCH   1  19
TORSDOF 7
ENDMDL
MODEL 10
REMARK VINA RESULT:      -7.5      3.209     10.531
REMARK  7 active torsions:
REMARK  status: ('A' for Active; 'I' for Inactive)
REMARK    1  A    between atoms: C_2  and  O_3 
REMARK    2  A    between atoms: O_3  and  C_4 
REMARK    3  A    between atoms: C_7  and  C_8 
REMARK       I    between atoms: C_8  and  N_9 
REMARK    4  A    between atoms: N_9  and  N_10 
REMARK       I    between atoms: N_10  and  C_11 
REMARK    5  A    between atoms: C_11  and  C_12 
REMARK    6  A    between atoms: C_14  and  C_15 
REMARK    7  A    between atoms: C_22  and  C_23 
ROOT
HETATM    1  N   UNL     1      -4.985   4.853 -32.019  1.00  0.00    -0.262 N 
HETATM    2  C   UNL     1      -3.835   4.252 -31.544  1.00  0.00     0.291 C 
HETATM    3  O   UNL     1      -3.779   3.039 -31.335  1.00  0.00    -0.264 OA
HETATM    4  H   UNL     1      -5.061   5.865 -32.118  1.00  0.00     0.190 HD
ENDROOT
BRANCH   2   5
HETATM    5  C   UNL     1      -2.740   5.177 -31.303  1.00  0.00     0.159 A 
HETATM    6  N   UNL     1      -2.607   5.906 -30.124  1.00  0.00    -0.216 NA
HETATM    7  C   UNL     1      -1.488   6.586 -30.289  1.00  0.00     0.180 A 
HETATM    8  O   UNL     1      -0.877   6.369 -31.492  1.00  0.00    -0.293 OA
HETATM    9  C   UNL     1      -1.677   5.468 -32.139  1.00  0.00     0.094 A 
BRANCH   7  10
HETATM   10  C   UNL     1      -0.815   7.509 -29.377  1.00  0.00     0.017 A 
HETATM   11  C   UNL     1      -1.532   8.565 -28.797  1.00  0.00     0.016 A 
HETATM   12  C   UNL     1      -0.909   9.453 -27.915  1.00  0.00     0.001 A 
HETATM   13  C   UNL     1       0.441   9.297 -27.603  1.00  0.00     0.000 A 
HETATM   14  C   UNL     1       1.168   8.254 -28.172  1.00  0.00     0.001 A 
HETATM   15  C   UNL     1       0.545   7.367 -29.054  1.00  0.00     0.016 A 
ENDBRANCH   7  10
BRANCH   9  16
HETATM   16  C   UNL     1      -1.387   4.922 -33.526  1.00  0.00     0.046 A 
HETATM   17  C   UNL     1      -2.420   5.160 -34.608  1.00  0.00     0.012 A 
HETATM   18  C   UNL     1      -1.141   5.920 -34.639  1.00  0.00     0.012 A 
ENDBRANCH   9  16
ENDBRANCH   2   5
BRANCH   1  19
HETATM   19  N   UNL     1      -6.142   4.078 -32.112  1.00  0.00    -0.263 N 
HETATM   20  C   UNL     1      -6.524   3.561 -33.331  1.00  0.00     0.270 C 
HETATM   21  O   UNL     1      -5.882   3.714 -34.365  1.00  0.00    -0.266 OA
HETATM   22  H   UNL     1      -6.587   3.830 -31.230  1.00  0.00     0.190 HD
BRANCH  20  23
HETATM   23  C   UNL     1      -7.787   2.773 -33.319  1.00  0.00     0.033 A 
HETATM   24  C   UNL     1      -8.861   3.127 -32.492  1.00  0.00     0.020 A 
HETATM   25  C   UNL     1     -10.041   2.373 -32.504  1.00  0.00     0.038 A 
HETATM   26  C   UNL     1     -10.159   1.268 -33.348  1.00  0.00     0.068 A 
HETATM   27  C   UNL     1      -9.089   0.922 -34.177  1.00  0.00     0.038 A 
HETATM   28  C   UNL     1      -7.908   1.673 -34.173  1.00  0.00     0.020 A 
BRANCH  26  29
HETATM   29  O   UNL     1     -11.256   0.458 -33.456  1.00  0.00    -0.352 OA
BRANCH  29  30
HETATM   30  C   UNL     1     -12.495   1.085 -33.789  1.00  0.00     0.171 C 
HETATM   31  C   UNL     1     -13.577   0.021 -33.799  1.00  0.00     0.034 C 
ENDBRANCH  29  30
ENDBRANCH  26  29
ENDBRANCH  20  23
ENDBRANCH   1  19
TORSDOF 7
ENDMDL
