MODEL 1
REMARK VINA RESULT:      -9.2      0.000      0.000
REMARK  5 active torsions:
REMARK  status: ('A' for Active; 'I' for Inactive)
REMARK    1  A    between atoms: C_4  and  C_5 
REMARK    2  A    between atoms: C_13  and  C_14 
REMARK       I    between atoms: C_14  and  N_15 
REMARK    3  A    between atoms: N_15  and  C_16 
REMARK    4  A    between atoms: C_17  and  N_18 
REMARK    5  A    between atoms: C_21  and  O_22 
ROOT
HETATM    1  C   UNL     1      -6.217   2.966 -30.900  1.00  0.00     0.258 C 
HETATM    2  N   UNL     1      -5.185   3.624 -30.274  1.00  0.00    -0.321 N 
HETATM    3  O   UNL     1      -7.393   3.309 -30.949  1.00  0.00    -0.267 OA
HETATM    4  H   UNL     1      -4.330   3.133 -30.029  1.00  0.00     0.169 HD
ENDROOT
BRANCH   2   5
HETATM    5  C   UNL     1      -5.199   4.982 -29.870  1.00  0.00     0.056 A 
HETATM    6  C   UNL     1      -4.699   5.947 -30.783  1.00  0.00     0.037 A 
HETATM    7  C   UNL     1      -4.837   7.305 -30.441  1.00  0.00     0.026 A 
HETATM    8  C   UNL     1      -5.429   7.694 -29.236  1.00  0.00     0.002 A 
HETATM    9  C   UNL     1      -5.886   6.734 -28.341  1.00  0.00     0.002 A 
HETATM   10  C   UNL     1      -5.768   5.382 -28.656  1.00  0.00     0.031 A 
BRANCH   6  11
HETATM   11  N   UNL     1      -4.009   5.509 -31.957  1.00  0.00    -0.281 NA
HETATM   12  C   UNL     1      -2.607   5.988 -31.888  1.00  0.00     0.098 C 
HETATM   13  C   UNL     1      -1.793   5.362 -33.021  1.00  0.00     0.046 C 
HETATM   14  C   UNL     1      -2.424   5.638 -34.383  1.00  0.00     0.120 C 
HETATM   15  C   UNL     1      -3.898   5.241 -34.398  1.00  0.00     0.046 C 
HETATM   16  C   UNL     1      -4.652   5.884 -33.235  1.00  0.00     0.098 C 
BRANCH  14  17
HETATM   17  O   UNL     1      -2.308   7.025 -34.704  1.00  0.00    -0.395 OA
HETATM   18  H   UNL     1      -2.400   7.112 -35.670  1.00  0.00     0.210 HD
ENDBRANCH  14  17
ENDBRANCH   6  11
ENDBRANCH   2   5
BRANCH   1  19
HETATM   19  C   UNL     1      -5.842   1.744 -31.623  1.00  0.00     0.056 A 
HETATM   20  C   UNL     1      -5.738   0.508 -30.997  1.00  0.00     0.047 A 
HETATM   21  C   UNL     1      -5.789   0.373 -29.504  1.00  0.00     0.071 C 
HETATM   22  N   UNL     1      -5.616  -0.648 -31.707  1.00  0.00    -0.252 NA
HETATM   23  C   UNL     1      -5.635  -0.600 -33.069  1.00  0.00     0.067 A 
HETATM   24  C   UNL     1      -5.704   0.619 -33.743  1.00  0.00     0.033 A 
HETATM   25  C   UNL     1      -5.806   1.802 -33.014  1.00  0.00     0.021 A 
BRANCH  23  26
HETATM   26  C   UNL     1      -5.674  -1.911 -33.766  1.00  0.00    -0.007 A 
HETATM   27  C   UNL     1      -4.513  -2.704 -33.866  1.00  0.00     0.014 A 
HETATM   28  C   UNL     1      -4.533  -3.971 -34.458  1.00  0.00     0.001 A 
HETATM   29  C   UNL     1      -5.720  -4.480 -34.972  1.00  0.00     0.000 A 
HETATM   30  C   UNL     1      -6.881  -3.716 -34.905  1.00  0.00     0.001 A 
HETATM   31  C   UNL     1      -6.855  -2.447 -34.314  1.00  0.00     0.014 A 
ENDBRANCH  23  26
ENDBRANCH   1  19
TORSDOF 5
ENDMDL
MODEL 2
REMARK VINA RESULT:      -9.0      3.930      5.271
REMARK  5 active torsions:
REMARK  status: ('A' for Active; 'I' for Inactive)
REMARK    1  A    between atoms: C_4  and  C_5 
REMARK    2  A    between atoms: C_13  and  C_14 
REMARK       I    between atoms: C_14  and  N_15 
REMARK    3  A    between atoms: N_15  and  C_16 
REMARK    4  A    between atoms: C_17  and  N_18 
REMARK    5  A    between atoms: C_21  and  O_22 
ROOT
HETATM    1  C   UNL     1      -7.293   2.883 -33.571  1.00  0.00     0.258 C 
HETATM    2  N   UNL     1      -8.234   2.817 -32.572  1.00  0.00    -0.321 N 
HETATM    3  O   UNL     1      -6.881   3.891 -34.136  1.00  0.00    -0.267 OA
HETATM    4  H   UNL     1      -8.724   1.948 -32.378  1.00  0.00     0.169 HD
ENDROOT
BRANCH   2   5
HETATM    5  C   UNL     1      -8.651   3.901 -31.760  1.00  0.00     0.056 A 
HETATM    6  C   UNL     1      -9.967   4.397 -31.948  1.00  0.00     0.037 A 
HETATM    7  C   UNL     1     -10.431   5.380 -31.054  1.00  0.00     0.026 A 
HETATM    8  C   UNL     1      -9.619   5.866 -30.025  1.00  0.00     0.002 A 
HETATM    9  C   UNL     1      -8.322   5.390 -29.875  1.00  0.00     0.002 A 
HETATM   10  C   UNL     1      -7.839   4.412 -30.742  1.00  0.00     0.031 A 
BRANCH   6  11
HETATM   11  N   UNL     1     -10.732   3.950 -33.072  1.00  0.00    -0.281 NA
HETATM   12  C   UNL     1     -10.619   4.961 -34.152  1.00  0.00     0.098 C 
HETATM   13  C   UNL     1     -11.250   4.414 -35.434  1.00  0.00     0.046 C 
HETATM   14  C   UNL     1     -12.695   3.980 -35.206  1.00  0.00     0.120 C 
HETATM   15  C   UNL     1     -12.803   3.027 -34.018  1.00  0.00     0.046 C 
HETATM   16  C   UNL     1     -12.143   3.621 -32.776  1.00  0.00     0.098 C 
BRANCH  14  17
HETATM   17  O   UNL     1     -13.519   5.122 -34.968  1.00  0.00    -0.395 OA
HETATM   18  H   UNL     1     -14.028   5.293 -35.780  1.00  0.00     0.210 HD
ENDBRANCH  14  17
ENDBRANCH   6  11
ENDBRANCH   2   5
BRANCH   1  19
HETATM   19  C   UNL     1      -6.691   1.601 -33.960  1.00  0.00     0.056 A 
HETATM   20  C   UNL     1      -5.591   1.063 -33.305  1.00  0.00     0.047 A 
HETATM   21  C   UNL     1      -4.808   1.852 -32.298  1.00  0.00     0.071 C 
HETATM   22  N   UNL     1      -5.184  -0.220 -33.518  1.00  0.00    -0.252 NA
HETATM   23  C   UNL     1      -5.896  -1.012 -34.368  1.00  0.00     0.067 A 
HETATM   24  C   UNL     1      -6.988  -0.508 -35.075  1.00  0.00     0.033 A 
HETATM   25  C   UNL     1      -7.388   0.811 -34.870  1.00  0.00     0.021 A 
BRANCH  23  26
HETATM   26  C   UNL     1      -5.496  -2.442 -34.414  1.00  0.00    -0.007 A 
HETATM   27  C   UNL     1      -4.242  -2.850 -33.918  1.00  0.00     0.014 A 
HETATM   28  C   UNL     1      -3.863  -4.197 -33.887  1.00  0.00     0.001 A 
HETATM   29  C   UNL     1      -4.731  -5.175 -34.357  1.00  0.00     0.000 A 
HETATM   30  C   UNL     1      -5.970  -4.804 -34.870  1.00  0.00     0.001 A 
HETATM   31  C   UNL     1      -6.344  -3.454 -34.902  1.00  0.00     0.014 A 
ENDBRANCH  23  26
ENDBRANCH   1  19
TORSDOF 5
ENDMDL
MODEL 3
REMARK VINA RESULT:      -8.9      1.763      1.850
REMARK  5 active torsions:
REMARK  status: ('A' for Active; 'I' for Inactive)
REMARK    1  A    between atoms: C_4  and  C_5 
REMARK    2  A    between atoms: C_13  and  C_14 
REMARK       I    between atoms: C_14  and  N_15 
REMARK    3  A    between atoms: N_15  and  C_16 
REMARK    4  A    between atoms: C_17  and  N_18 
REMARK    5  A    between atoms: C_21  and  O_22 
ROOT
HETATM    1  C   UNL     1      -5.272   2.569 -31.477  1.00  0.00     0.258 C 
HETATM    2  N   UNL     1      -5.792   3.438 -32.407  1.00  0.00    -0.321 N 
HETATM    3  O   UNL     1      -4.883   2.840 -30.346  1.00  0.00    -0.267 OA
HETATM    4  H   UNL     1      -5.805   3.194 -33.393  1.00  0.00     0.169 HD
ENDROOT
BRANCH   2   5
HETATM    5  C   UNL     1      -6.306   4.729 -32.131  1.00  0.00     0.056 A 
HETATM    6  C   UNL     1      -5.489   5.846 -32.446  1.00  0.00     0.037 A 
HETATM    7  C   UNL     1      -6.048   7.129 -32.301  1.00  0.00     0.026 A 
HETATM    8  C   UNL     1      -7.358   7.302 -31.845  1.00  0.00     0.002 A 
HETATM    9  C   UNL     1      -8.134   6.198 -31.512  1.00  0.00     0.002 A 
HETATM   10  C   UNL     1      -7.608   4.916 -31.653  1.00  0.00     0.031 A 
BRANCH   6  11
HETATM   11  N   UNL     1      -4.122   5.633 -32.812  1.00  0.00    -0.281 NA
HETATM   12  C   UNL     1      -3.273   6.566 -32.031  1.00  0.00     0.098 C 
HETATM   13  C   UNL     1      -1.799   6.219 -32.244  1.00  0.00     0.046 C 
HETATM   14  C   UNL     1      -1.432   6.219 -33.726  1.00  0.00     0.120 C 
HETATM   15  C   UNL     1      -2.388   5.340 -34.529  1.00  0.00     0.046 C 
HETATM   16  C   UNL     1      -3.843   5.723 -34.261  1.00  0.00     0.098 C 
BRANCH  14  17
HETATM   17  O   UNL     1      -1.472   7.550 -34.241  1.00  0.00    -0.395 OA
HETATM   18  H   UNL     1      -0.577   7.772 -34.553  1.00  0.00     0.210 HD
ENDBRANCH  14  17
ENDBRANCH   6  11
ENDBRANCH   2   5
BRANCH   1  19
HETATM   19  C   UNL     1      -5.227   1.159 -31.884  1.00  0.00     0.056 A 
HETATM   20  C   UNL     1      -6.355   0.347 -31.887  1.00  0.00     0.047 A 
HETATM   21  C   UNL     1      -7.648   0.790 -31.272  1.00  0.00     0.071 C 
HETATM   22  N   UNL     1      -6.353  -0.881 -32.477  1.00  0.00    -0.252 NA
HETATM   23  C   UNL     1      -5.229  -1.313 -33.115  1.00  0.00     0.067 A 
HETATM   24  C   UNL     1      -4.062  -0.548 -33.111  1.00  0.00     0.033 A 
HETATM   25  C   UNL     1      -4.061   0.698 -32.487  1.00  0.00     0.021 A 
BRANCH  23  26
HETATM   26  C   UNL     1      -5.361  -2.580 -33.879  1.00  0.00    -0.007 A 
HETATM   27  C   UNL     1      -4.330  -3.541 -33.856  1.00  0.00     0.014 A 
HETATM   28  C   UNL     1      -4.453  -4.771 -34.511  1.00  0.00     0.001 A 
HETATM   29  C   UNL     1      -5.613  -5.072 -35.215  1.00  0.00     0.000 A 
HETATM   30  C   UNL     1      -6.643  -4.139 -35.272  1.00  0.00     0.001 A 
HETATM   31  C   UNL     1      -6.515  -2.907 -34.617  1.00  0.00     0.014 A 
ENDBRANCH  23  26
ENDBRANCH   1  19
TORSDOF 5
ENDMDL
MODEL 4
REMARK VINA RESULT:      -8.8      4.396      5.982
REMARK  5 active torsions:
REMARK  status: ('A' for Active; 'I' for Inactive)
REMARK    1  A    between atoms: C_4  and  C_5 
REMARK    2  A    between atoms: C_13  and  C_14 
REMARK       I    between atoms: C_14  and  N_15 
REMARK    3  A    between atoms: N_15  and  C_16 
REMARK    4  A    between atoms: C_17  and  N_18 
REMARK    5  A    between atoms: C_21  and  O_22 
ROOT
HETATM    1  C   UNL     1      -7.996   2.916 -32.868  1.00  0.00     0.258 C 
HETATM    2  N   UNL     1      -8.291   3.920 -33.758  1.00  0.00    -0.321 N 
HETATM    3  O   UNL     1      -8.180   2.922 -31.655  1.00  0.00    -0.267 OA
HETATM    4  H   UNL     1      -7.841   3.955 -34.668  1.00  0.00     0.169 HD
ENDROOT
BRANCH   2   5
HETATM    5  C   UNL     1      -9.175   5.002 -33.516  1.00  0.00     0.056 A 
HETATM    6  C   UNL     1     -10.568   4.743 -33.589  1.00  0.00     0.037 A 
HETATM    7  C   UNL     1     -11.446   5.777 -33.217  1.00  0.00     0.026 A 
HETATM    8  C   UNL     1     -10.967   7.025 -32.806  1.00  0.00     0.002 A 
HETATM    9  C   UNL     1      -9.599   7.269 -32.770  1.00  0.00     0.002 A 
HETATM   10  C   UNL     1      -8.706   6.261 -33.126  1.00  0.00     0.031 A 
BRANCH   6  11
HETATM   11  N   UNL     1     -11.023   3.491 -34.110  1.00  0.00    -0.281 NA
HETATM   12  C   UNL     1     -11.889   3.754 -35.285  1.00  0.00     0.098 C 
HETATM   13  C   UNL     1     -12.218   2.435 -35.987  1.00  0.00     0.046 C 
HETATM   14  C   UNL     1     -12.849   1.432 -35.026  1.00  0.00     0.120 C 
HETATM   15  C   UNL     1     -11.997   1.260 -33.771  1.00  0.00     0.046 C 
HETATM   16  C   UNL     1     -11.689   2.610 -33.127  1.00  0.00     0.098 C 
BRANCH  14  17
HETATM   17  O   UNL     1     -14.156   1.868 -34.650  1.00  0.00    -0.395 OA
HETATM   18  H   UNL     1     -14.672   1.079 -34.408  1.00  0.00     0.210 HD
ENDBRANCH  14  17
ENDBRANCH   6  11
ENDBRANCH   2   5
BRANCH   1  19
HETATM   19  C   UNL     1      -7.441   1.690 -33.458  1.00  0.00     0.056 A 
HETATM   20  C   UNL     1      -6.107   1.332 -33.318  1.00  0.00     0.047 A 
HETATM   21  C   UNL     1      -5.093   2.275 -32.743  1.00  0.00     0.071 C 
HETATM   22  N   UNL     1      -5.655   0.095 -33.667  1.00  0.00    -0.252 NA
HETATM   23  C   UNL     1      -6.540  -0.832 -34.130  1.00  0.00     0.067 A 
HETATM   24  C   UNL     1      -7.884  -0.510 -34.319  1.00  0.00     0.033 A 
HETATM   25  C   UNL     1      -8.338   0.764 -33.982  1.00  0.00     0.021 A 
BRANCH  23  26
HETATM   26  C   UNL     1      -6.004  -2.204 -34.323  1.00  0.00    -0.007 A 
HETATM   27  C   UNL     1      -4.659  -2.496 -34.021  1.00  0.00     0.014 A 
HETATM   28  C   UNL     1      -4.143  -3.792 -34.129  1.00  0.00     0.001 A 
HETATM   29  C   UNL     1      -4.961  -4.834 -34.547  1.00  0.00     0.000 A 
HETATM   30  C   UNL     1      -6.290  -4.577 -34.869  1.00  0.00     0.001 A 
HETATM   31  C   UNL     1      -6.802  -3.278 -34.763  1.00  0.00     0.014 A 
ENDBRANCH  23  26
ENDBRANCH   1  19
TORSDOF 5
ENDMDL
MODEL 5
REMARK VINA RESULT:      -8.2      4.113      5.679
REMARK  5 active torsions:
REMARK  status: ('A' for Active; 'I' for Inactive)
REMARK    1  A    between atoms: C_4  and  C_5 
REMARK    2  A    between atoms: C_13  and  C_14 
REMARK       I    between atoms: C_14  and  N_15 
REMARK    3  A    between atoms: N_15  and  C_16 
REMARK    4  A    between atoms: C_17  and  N_18 
REMARK    5  A    between atoms: C_21  and  O_22 
ROOT
HETATM    1  C   UNL     1      -9.505   1.516 -33.579  1.00  0.00     0.258 C 
HETATM    2  N   UNL     1      -9.374   2.793 -34.068  1.00  0.00    -0.321 N 
HETATM    3  O   UNL     1     -10.500   1.019 -33.062  1.00  0.00    -0.267 OA
HETATM    4  H   UNL     1      -8.455   3.208 -34.196  1.00  0.00     0.169 HD
ENDROOT
BRANCH   2   5
HETATM    5  C   UNL     1     -10.443   3.665 -34.394  1.00  0.00     0.056 A 
HETATM    6  C   UNL     1     -10.545   4.883 -33.673  1.00  0.00     0.037 A 
HETATM    7  C   UNL     1     -11.520   5.809 -34.086  1.00  0.00     0.026 A 
HETATM    8  C   UNL     1     -12.374   5.534 -35.158  1.00  0.00     0.002 A 
HETATM    9  C   UNL     1     -12.279   4.323 -35.833  1.00  0.00     0.002 A 
HETATM   10  C   UNL     1     -11.318   3.390 -35.450  1.00  0.00     0.031 A 
BRANCH   6  11
HETATM   11  N   UNL     1      -9.723   5.085 -32.519  1.00  0.00    -0.281 NA
HETATM   12  C   UNL     1     -10.364   4.417 -31.360  1.00  0.00     0.098 C 
HETATM   13  C   UNL     1      -9.410   4.437 -30.164  1.00  0.00     0.046 C 
HETATM   14  C   UNL     1      -8.962   5.857 -29.829  1.00  0.00     0.120 C 
HETATM   15  C   UNL     1      -8.409   6.566 -31.063  1.00  0.00     0.046 C 
HETATM   16  C   UNL     1      -9.398   6.498 -32.225  1.00  0.00     0.098 C 
BRANCH  14  17
HETATM   17  O   UNL     1     -10.060   6.607 -29.308  1.00  0.00    -0.395 OA
HETATM   18  H   UNL     1     -10.223   6.298 -28.400  1.00  0.00     0.210 HD
ENDBRANCH  14  17
ENDBRANCH   6  11
ENDBRANCH   2   5
BRANCH   1  19
HETATM   19  C   UNL     1      -8.329   0.651 -33.742  1.00  0.00     0.056 A 
HETATM   20  C   UNL     1      -7.540   0.254 -32.670  1.00  0.00     0.047 A 
HETATM   21  C   UNL     1      -7.705   0.852 -31.304  1.00  0.00     0.071 C 
HETATM   22  N   UNL     1      -6.598  -0.722 -32.795  1.00  0.00    -0.252 NA
HETATM   23  C   UNL     1      -6.448  -1.355 -33.993  1.00  0.00     0.067 A 
HETATM   24  C   UNL     1      -7.193  -0.968 -35.107  1.00  0.00     0.033 A 
HETATM   25  C   UNL     1      -8.140   0.046 -34.981  1.00  0.00     0.021 A 
BRANCH  23  26
HETATM   26  C   UNL     1      -5.528  -2.521 -34.002  1.00  0.00    -0.007 A 
HETATM   27  C   UNL     1      -4.336  -2.498 -33.250  1.00  0.00     0.014 A 
HETATM   28  C   UNL     1      -3.482  -3.605 -33.187  1.00  0.00     0.001 A 
HETATM   29  C   UNL     1      -3.797  -4.768 -33.880  1.00  0.00     0.000 A 
HETATM   30  C   UNL     1      -4.958  -4.817 -34.645  1.00  0.00     0.001 A 
HETATM   31  C   UNL     1      -5.808  -3.706 -34.709  1.00  0.00     0.014 A 
ENDBRANCH  23  26
ENDBRANCH   1  19
TORSDOF 5
ENDMDL
MODEL 6
REMARK VINA RESULT:      -8.1      2.696      8.703
REMARK  5 active torsions:
REMARK  status: ('A' for Active; 'I' for Inactive)
REMARK    1  A    between atoms: C_4  and  C_5 
REMARK    2  A    between atoms: C_13  and  C_14 
REMARK       I    between atoms: C_14  and  N_15 
REMARK    3  A    between atoms: N_15  and  C_16 
REMARK    4  A    between atoms: C_17  and  N_18 
REMARK    5  A    between atoms: C_21  and  O_22 
ROOT
HETATM    1  C   UNL     1      -4.039   1.698 -31.808  1.00  0.00     0.258 C 
HETATM    2  N   UNL     1      -5.056   1.320 -32.651  1.00  0.00    -0.321 N 
HETATM    3  O   UNL     1      -3.286   0.962 -31.179  1.00  0.00    -0.267 OA
HETATM    4  H   UNL     1      -5.803   1.968 -32.886  1.00  0.00     0.169 HD
ENDROOT
BRANCH   2   5
HETATM    5  C   UNL     1      -5.212   0.036 -33.232  1.00  0.00     0.056 A 
HETATM    6  C   UNL     1      -6.476  -0.287 -33.790  1.00  0.00     0.037 A 
HETATM    7  C   UNL     1      -6.593  -1.504 -34.486  1.00  0.00     0.026 A 
HETATM    8  C   UNL     1      -5.507  -2.376 -34.611  1.00  0.00     0.002 A 
HETATM    9  C   UNL     1      -4.285  -2.056 -34.032  1.00  0.00     0.002 A 
HETATM   10  C   UNL     1      -4.139  -0.855 -33.342  1.00  0.00     0.031 A 
BRANCH   6  11
HETATM   11  N   UNL     1      -7.588   0.582 -33.555  1.00  0.00    -0.281 NA
HETATM   12  C   UNL     1      -8.172   0.255 -32.231  1.00  0.00     0.098 C 
HETATM   13  C   UNL     1      -9.226   1.300 -31.863  1.00  0.00     0.046 C 
HETATM   14  C   UNL     1     -10.296   1.422 -32.944  1.00  0.00     0.120 C 
HETATM   15  C   UNL     1      -9.668   1.646 -34.317  1.00  0.00     0.046 C 
HETATM   16  C   UNL     1      -8.615   0.583 -34.620  1.00  0.00     0.098 C 
BRANCH  14  17
HETATM   17  O   UNL     1     -11.094   0.238 -32.980  1.00  0.00    -0.395 OA
HETATM   18  H   UNL     1     -11.486   0.119 -32.097  1.00  0.00     0.210 HD
ENDBRANCH  14  17
ENDBRANCH   6  11
ENDBRANCH   2   5
BRANCH   1  19
HETATM   19  C   UNL     1      -3.814   3.145 -31.696  1.00  0.00     0.056 A 
HETATM   20  C   UNL     1      -4.582   3.958 -30.873  1.00  0.00     0.047 A 
HETATM   21  C   UNL     1      -5.829   3.456 -30.208  1.00  0.00     0.071 C 
HETATM   22  N   UNL     1      -4.226   5.244 -30.600  1.00  0.00    -0.252 NA
HETATM   23  C   UNL     1      -3.066   5.739 -31.116  1.00  0.00     0.067 A 
HETATM   24  C   UNL     1      -2.278   4.972 -31.975  1.00  0.00     0.033 A 
HETATM   25  C   UNL     1      -2.657   3.664 -32.270  1.00  0.00     0.021 A 
BRANCH  23  26
HETATM   26  C   UNL     1      -2.660   7.084 -30.634  1.00  0.00    -0.007 A 
HETATM   27  C   UNL     1      -2.928   8.232 -31.406  1.00  0.00     0.014 A 
HETATM   28  C   UNL     1      -2.618   9.518 -30.950  1.00  0.00     0.001 A 
HETATM   29  C   UNL     1      -2.025   9.690 -29.705  1.00  0.00     0.000 A 
HETATM   30  C   UNL     1      -1.731   8.576 -28.925  1.00  0.00     0.001 A 
HETATM   31  C   UNL     1      -2.040   7.290 -29.387  1.00  0.00     0.014 A 
ENDBRANCH  23  26
ENDBRANCH   1  19
TORSDOF 5
ENDMDL
MODEL 7
REMARK VINA RESULT:      -8.0      3.368      9.072
REMARK  5 active torsions:
REMARK  status: ('A' for Active; 'I' for Inactive)
REMARK    1  A    between atoms: C_4  and  C_5 
REMARK    2  A    between atoms: C_13  and  C_14 
REMARK       I    between atoms: C_14  and  N_15 
REMARK    3  A    between atoms: N_15  and  C_16 
REMARK    4  A    between atoms: C_17  and  N_18 
REMARK    5  A    between atoms: C_21  and  O_22 
ROOT
HETATM    1  C   UNL     1      -2.134   4.294 -32.015  1.00  0.00     0.258 C 
HETATM    2  N   UNL     1      -2.869   3.443 -31.226  1.00  0.00    -0.321 N 
HETATM    3  O   UNL     1      -2.022   4.261 -33.236  1.00  0.00    -0.267 OA
HETATM    4  H   UNL     1      -2.670   3.355 -30.233  1.00  0.00     0.169 HD
ENDROOT
BRANCH   2   5
HETATM    5  C   UNL     1      -3.910   2.594 -31.677  1.00  0.00     0.056 A 
HETATM    6  C   UNL     1      -5.237   3.095 -31.631  1.00  0.00     0.037 A 
HETATM    7  C   UNL     1      -6.254   2.309 -32.203  1.00  0.00     0.026 A 
HETATM    8  C   UNL     1      -5.973   1.067 -32.782  1.00  0.00     0.002 A 
HETATM    9  C   UNL     1      -4.672   0.579 -32.790  1.00  0.00     0.002 A 
HETATM   10  C   UNL     1      -3.644   1.340 -32.237  1.00  0.00     0.031 A 
BRANCH   6  11
HETATM   11  N   UNL     1      -5.500   4.320 -30.942  1.00  0.00    -0.281 NA
HETATM   12  C   UNL     1      -5.786   4.011 -29.519  1.00  0.00     0.098 C 
HETATM   13  C   UNL     1      -5.863   5.310 -28.716  1.00  0.00     0.046 C 
HETATM   14  C   UNL     1      -6.889   6.273 -29.307  1.00  0.00     0.120 C 
HETATM   15  C   UNL     1      -6.645   6.491 -30.799  1.00  0.00     0.046 C 
HETATM   16  C   UNL     1      -6.561   5.159 -31.542  1.00  0.00     0.098 C 
BRANCH  14  17
HETATM   17  O   UNL     1      -8.209   5.761 -29.118  1.00  0.00    -0.395 OA
HETATM   18  H   UNL     1      -8.251   4.888 -29.547  1.00  0.00     0.210 HD
ENDBRANCH  14  17
ENDBRANCH   6  11
ENDBRANCH   2   5
BRANCH   1  19
HETATM   19  C   UNL     1      -1.449   5.383 -31.307  1.00  0.00     0.056 A 
HETATM   20  C   UNL     1      -2.019   6.640 -31.142  1.00  0.00     0.047 A 
HETATM   21  C   UNL     1      -3.273   7.038 -31.861  1.00  0.00     0.071 C 
HETATM   22  N   UNL     1      -1.485   7.565 -30.296  1.00  0.00    -0.252 NA
HETATM   23  C   UNL     1      -0.385   7.239 -29.560  1.00  0.00     0.067 A 
HETATM   24  C   UNL     1       0.241   6.002 -29.715  1.00  0.00     0.033 A 
HETATM   25  C   UNL     1      -0.294   5.067 -30.598  1.00  0.00     0.021 A 
BRANCH  23  26
HETATM   26  C   UNL     1       0.031   8.232 -28.537  1.00  0.00    -0.007 A 
HETATM   27  C   UNL     1      -0.876   9.206 -28.075  1.00  0.00     0.014 A 
HETATM   28  C   UNL     1      -0.535  10.113 -27.065  1.00  0.00     0.001 A 
HETATM   29  C   UNL     1       0.730  10.071 -26.491  1.00  0.00     0.000 A 
HETATM   30  C   UNL     1       1.655   9.132 -26.936  1.00  0.00     0.001 A 
HETATM   31  C   UNL     1       1.311   8.229 -27.950  1.00  0.00     0.014 A 
ENDBRANCH  23  26
ENDBRANCH   1  19
TORSDOF 5
ENDMDL
MODEL 8
REMARK VINA RESULT:      -8.0      2.103      2.816
REMARK  5 active torsions:
REMARK  status: ('A' for Active; 'I' for Inactive)
REMARK    1  A    between atoms: C_4  and  C_5 
REMARK    2  A    between atoms: C_13  and  C_14 
REMARK       I    between atoms: C_14  and  N_15 
REMARK    3  A    between atoms: N_15  and  C_16 
REMARK    4  A    between atoms: C_17  and  N_18 
REMARK    5  A    between atoms: C_21  and  O_22 
ROOT
HETATM    1  C   UNL     1      -5.376   5.208 -30.485  1.00  0.00     0.258 C 
HETATM    2  N   UNL     1      -4.766   5.482 -29.285  1.00  0.00    -0.321 N 
HETATM    3  O   UNL     1      -5.994   5.992 -31.199  1.00  0.00    -0.267 OA
HETATM    4  H   UNL     1      -4.546   4.735 -28.633  1.00  0.00     0.169 HD
ENDROOT
BRANCH   2   5
HETATM    5  C   UNL     1      -4.427   6.774 -28.809  1.00  0.00     0.056 A 
HETATM    6  C   UNL     1      -3.180   7.318 -29.210  1.00  0.00     0.037 A 
HETATM    7  C   UNL     1      -2.900   8.649 -28.852  1.00  0.00     0.026 A 
HETATM    8  C   UNL     1      -3.811   9.408 -28.111  1.00  0.00     0.002 A 
HETATM    9  C   UNL     1      -5.016   8.848 -27.701  1.00  0.00     0.002 A 
HETATM   10  C   UNL     1      -5.321   7.534 -28.047  1.00  0.00     0.031 A 
BRANCH   6  11
HETATM   11  N   UNL     1      -2.231   6.480 -29.878  1.00  0.00    -0.281 NA
HETATM   12  C   UNL     1      -0.941   6.551 -29.149  1.00  0.00     0.098 C 
HETATM   13  C   UNL     1       0.026   5.509 -29.713  1.00  0.00     0.046 C 
HETATM   14  C   UNL     1       0.211   5.675 -31.219  1.00  0.00     0.120 C 
HETATM   15  C   UNL     1      -1.135   5.712 -31.939  1.00  0.00     0.046 C 
HETATM   16  C   UNL     1      -2.060   6.758 -31.320  1.00  0.00     0.098 C 
BRANCH  14  17
HETATM   17  O   UNL     1       0.925   6.881 -31.495  1.00  0.00    -0.395 OA
HETATM   18  H   UNL     1       1.168   7.282 -30.642  1.00  0.00     0.210 HD
ENDBRANCH  14  17
ENDBRANCH   6  11
ENDBRANCH   2   5
BRANCH   1  19
HETATM   19  C   UNL     1      -5.222   3.832 -30.975  1.00  0.00     0.056 A 
HETATM   20  C   UNL     1      -6.208   2.868 -30.812  1.00  0.00     0.047 A 
HETATM   21  C   UNL     1      -7.404   3.101 -29.939  1.00  0.00     0.071 C 
HETATM   22  N   UNL     1      -6.156   1.671 -31.462  1.00  0.00    -0.252 NA
HETATM   23  C   UNL     1      -5.130   1.425 -32.325  1.00  0.00     0.067 A 
HETATM   24  C   UNL     1      -4.099   2.349 -32.496  1.00  0.00     0.033 A 
HETATM   25  C   UNL     1      -4.144   3.562 -31.813  1.00  0.00     0.021 A 
BRANCH  23  26
HETATM   26  C   UNL     1      -5.236   0.177 -33.123  1.00  0.00    -0.007 A 
HETATM   27  C   UNL     1      -4.220  -0.798 -33.066  1.00  0.00     0.014 A 
HETATM   28  C   UNL     1      -4.322  -2.012 -33.754  1.00  0.00     0.001 A 
HETATM   29  C   UNL     1      -5.447  -2.283 -34.524  1.00  0.00     0.000 A 
HETATM   30  C   UNL     1      -6.461  -1.335 -34.615  1.00  0.00     0.001 A 
HETATM   31  C   UNL     1      -6.353  -0.119 -33.928  1.00  0.00     0.014 A 
ENDBRANCH  23  26
ENDBRANCH   1  19
TORSDOF 5
ENDMDL
MODEL 9
REMARK VINA RESULT:      -7.9      4.548      6.098
REMARK  5 active torsions:
REMARK  status: ('A' for Active; 'I' for Inactive)
REMARK    1  A    between atoms: C_4  and  C_5 
REMARK    2  A    between atoms: C_13  and  C_14 
REMARK       I    between atoms: C_14  and  N_15 
REMARK    3  A    between atoms: N_15  and  C_16 
REMARK    4  A    between atoms: C_17  and  N_18 
REMARK    5  A    between atoms: C_21  and  O_22 
ROOT
HETATM    1  C   UNL     1      -8.823   3.017 -33.508  1.00  0.00     0.258 C 
HETATM    2  N   UNL     1      -8.907   3.730 -32.336  1.00  0.00    -0.321 N 
HETATM    3  O   UNL     1      -9.237   3.354 -34.612  1.00  0.00    -0.267 OA
HETATM    4  H   UNL     1      -8.816   3.264 -31.438  1.00  0.00     0.169 HD
ENDROOT
BRANCH   2   5
HETATM    5  C   UNL     1      -9.161   5.120 -32.234  1.00  0.00     0.056 A 
HETATM    6  C   UNL     1     -10.499   5.530 -31.997  1.00  0.00     0.037 A 
HETATM    7  C   UNL     1     -10.732   6.898 -31.760  1.00  0.00     0.026 A 
HETATM    8  C   UNL     1      -9.687   7.826 -31.774  1.00  0.00     0.002 A 
HETATM    9  C   UNL     1      -8.387   7.410 -32.038  1.00  0.00     0.002 A 
HETATM   10  C   UNL     1      -8.126   6.061 -32.270  1.00  0.00     0.031 A 
BRANCH   6  11
HETATM   11  N   UNL     1     -11.554   4.569 -32.091  1.00  0.00    -0.281 NA
HETATM   12  C   UNL     1     -12.142   4.643 -33.450  1.00  0.00     0.098 C 
HETATM   13  C   UNL     1     -13.127   3.490 -33.648  1.00  0.00     0.046 C 
HETATM   14  C   UNL     1     -14.199   3.477 -32.562  1.00  0.00     0.120 C 
HETATM   15  C   UNL     1     -13.574   3.514 -31.170  1.00  0.00     0.046 C 
HETATM   16  C   UNL     1     -12.590   4.675 -31.040  1.00  0.00     0.098 C 
BRANCH  14  17
HETATM   17  O   UNL     1     -15.068   4.600 -32.716  1.00  0.00    -0.395 OA
HETATM   18  H   UNL     1     -15.111   4.811 -33.666  1.00  0.00     0.210 HD
ENDBRANCH  14  17
ENDBRANCH   6  11
ENDBRANCH   2   5
BRANCH   1  19
HETATM   19  C   UNL     1      -8.118   1.732 -33.418  1.00  0.00     0.056 A 
HETATM   20  C   UNL     1      -8.787   0.520 -33.301  1.00  0.00     0.047 A 
HETATM   21  C   UNL     1     -10.262   0.454 -33.041  1.00  0.00     0.071 C 
HETATM   22  N   UNL     1      -8.144  -0.672 -33.448  1.00  0.00    -0.252 NA
HETATM   23  C   UNL     1      -6.816  -0.680 -33.757  1.00  0.00     0.067 A 
HETATM   24  C   UNL     1      -6.094   0.510 -33.852  1.00  0.00     0.033 A 
HETATM   25  C   UNL     1      -6.750   1.727 -33.679  1.00  0.00     0.021 A 
BRANCH  23  26
HETATM   26  C   UNL     1      -6.229  -2.008 -34.072  1.00  0.00    -0.007 A 
HETATM   27  C   UNL     1      -7.048  -3.066 -34.515  1.00  0.00     0.014 A 
HETATM   28  C   UNL     1      -6.517  -4.307 -34.883  1.00  0.00     0.001 A 
HETATM   29  C   UNL     1      -5.146  -4.525 -34.813  1.00  0.00     0.000 A 
HETATM   30  C   UNL     1      -4.311  -3.507 -34.364  1.00  0.00     0.001 A 
HETATM   31  C   UNL     1      -4.848  -2.267 -33.994  1.00  0.00     0.014 A 
ENDBRANCH  23  26
ENDBRANCH   1  19
TORSDOF 5
ENDMDL
MODEL 10
REMARK VINA RESULT:      -7.9      5.486      8.597
REMARK  5 active torsions:
REMARK  status: ('A' for Active; 'I' for Inactive)
REMARK    1  A    between atoms: C_4  and  C_5 
REMARK    2  A    between atoms: C_13  and  C_14 
REMARK       I    between atoms: C_14  and  N_15 
REMARK    3  A    between atoms: N_15  and  C_16 
REMARK    4  A    between atoms: C_17  and  N_18 
REMARK    5  A    between atoms: C_21  and  O_22 
ROOT
HETATM    1  C   UNL     1      -9.947   0.833 -33.261  1.00  0.00     0.258 C 
HETATM    2  N   UNL     1      -8.831   1.159 -33.994  1.00  0.00    -0.321 N 
HETATM    3  O   UNL     1     -10.217  -0.256 -32.767  1.00  0.00    -0.267 OA
HETATM    4  H   UNL     1      -8.831   1.970 -34.605  1.00  0.00     0.169 HD
ENDROOT
BRANCH   2   5
HETATM    5  C   UNL     1      -7.621   0.421 -34.024  1.00  0.00     0.056 A 
HETATM    6  C   UNL     1      -6.637   0.726 -33.049  1.00  0.00     0.037 A 
HETATM    7  C   UNL     1      -5.496  -0.094 -32.991  1.00  0.00     0.026 A 
HETATM    8  C   UNL     1      -5.325  -1.164 -33.874  1.00  0.00     0.002 A 
HETATM    9  C   UNL     1      -6.286  -1.430 -34.842  1.00  0.00     0.002 A 
HETATM   10  C   UNL     1      -7.429  -0.638 -34.918  1.00  0.00     0.031 A 
BRANCH   6  11
HETATM   11  N   UNL     1      -6.798   1.889 -32.231  1.00  0.00    -0.281 NA
HETATM   12  C   UNL     1      -5.561   2.704 -32.319  1.00  0.00     0.098 C 
HETATM   13  C   UNL     1      -5.782   4.050 -31.626  1.00  0.00     0.046 C 
HETATM   14  C   UNL     1      -6.245   3.867 -30.183  1.00  0.00     0.120 C 
HETATM   15  C   UNL     1      -7.452   2.935 -30.105  1.00  0.00     0.046 C 
HETATM   16  C   UNL     1      -7.175   1.618 -30.827  1.00  0.00     0.098 C 
BRANCH  14  17
HETATM   17  O   UNL     1      -5.184   3.330 -29.392  1.00  0.00    -0.395 OA
HETATM   18  H   UNL     1      -4.496   3.008 -30.001  1.00  0.00     0.210 HD
ENDBRANCH  14  17
ENDBRANCH   6  11
ENDBRANCH   2   5
BRANCH   1  19
HETATM   19  C   UNL     1     -10.887   1.935 -33.016  1.00  0.00     0.056 A 
HETATM   20  C   UNL     1     -12.203   1.906 -33.460  1.00  0.00     0.047 A 
HETATM   21  C   UNL     1     -12.694   0.850 -34.405  1.00  0.00     0.071 C 
HETATM   22  N   UNL     1     -13.124   2.816 -33.036  1.00  0.00    -0.252 NA
HETATM   23  C   UNL     1     -12.758   3.759 -32.123  1.00  0.00     0.067 A 
HETATM   24  C   UNL     1     -11.441   3.849 -31.672  1.00  0.00     0.033 A 
HETATM   25  C   UNL     1     -10.496   2.930 -32.124  1.00  0.00     0.021 A 
BRANCH  23  26
HETATM   26  C   UNL     1     -13.855   4.601 -31.581  1.00  0.00    -0.007 A 
HETATM   27  C   UNL     1     -15.171   4.459 -32.065  1.00  0.00     0.014 A 
HETATM   28  C   UNL     1     -16.237   5.191 -31.529  1.00  0.00     0.001 A 
HETATM   29  C   UNL     1     -16.013   6.090 -30.493  1.00  0.00     0.000 A 
HETATM   30  C   UNL     1     -14.723   6.265 -30.004  1.00  0.00     0.001 A 
HETATM   31  C   UNL     1     -13.658   5.534 -30.545  1.00  0.00     0.014 A 
ENDBRANCH  23  26
ENDBRANCH   1  19
TORSDOF 5
ENDMDL
