MODEL 1
REMARK VINA RESULT:      -8.2      0.000      0.000
REMARK  4 active torsions:
REMARK  status: ('A' for Active; 'I' for Inactive)
REMARK    1  A    between atoms: C_2  and  N_3 
REMARK    2  A    between atoms: C_4  and  C_5 
REMARK    3  A    between atoms: C_6  and  O_7 
REMARK    4  A    between atoms: C_19  and  C_20 
REMARK       I    between atoms: C_20  and  N_21 
ROOT
HETATM    1  C   UNL     1      -9.440   3.180 -33.400  1.00  0.00     0.034 A 
HETATM    2  C   UNL     1      -9.446   1.805 -33.669  1.00  0.00     0.057 A 
HETATM    3  C   UNL     1     -10.664   1.116 -33.727  1.00  0.00     0.048 A 
HETATM    4  C   UNL     1     -11.870   1.807 -33.494  1.00  0.00     0.030 A 
HETATM    5  C   UNL     1     -11.817   3.165 -33.210  1.00  0.00     0.063 A 
HETATM    6  N   UNL     1     -13.118   3.550 -33.038  1.00  0.00    -0.277 N 
HETATM    7  H   UNL     1     -13.460   4.478 -32.819  1.00  0.00     0.189 HD
HETATM    8  N   UNL     1     -14.015   2.562 -33.198  1.00  0.00    -0.168 NA
HETATM    9  C   UNL     1     -13.258   1.479 -33.483  1.00  0.00     0.156 A 
HETATM   10  C   UNL     1     -10.622   3.887 -33.151  1.00  0.00     0.034 A 
ENDROOT
BRANCH   2  11
HETATM   11  N   UNL     1      -8.265   1.103 -33.959  1.00  0.00    -0.260 NA
HETATM   12  C   UNL     1      -8.152  -0.101 -33.489  1.00  0.00     0.131 C 
BRANCH  12  13
HETATM   13  C   UNL     1      -6.938  -0.904 -33.746  1.00  0.00     0.016 A 
HETATM   14  C   UNL     1      -5.659  -0.434 -33.423  1.00  0.00     0.077 A 
HETATM   15  C   UNL     1      -4.536  -1.216 -33.683  1.00  0.00     0.039 A 
HETATM   16  C   UNL     1      -4.687  -2.479 -34.259  1.00  0.00     0.022 A 
HETATM   17  C   UNL     1      -5.962  -2.947 -34.574  1.00  0.00     0.012 A 
HETATM   18 BR   UNL     1      -6.164  -4.664 -35.342  1.00  0.00    -0.051 Br
HETATM   19  C   UNL     1      -7.093  -2.166 -34.326  1.00  0.00     0.034 A 
BRANCH  14  20
HETATM   20  O   UNL     1      -5.435   0.787 -32.853  1.00  0.00    -0.360 OA
HETATM   21  H   UNL     1      -4.489   0.813 -32.577  1.00  0.00     0.217 HD
ENDBRANCH  14  20
ENDBRANCH  12  13
ENDBRANCH   2  11
BRANCH   9  22
HETATM   22  C   UNL     1     -13.867   0.168 -33.746  1.00  0.00     0.270 C 
HETATM   23  N   UNL     1     -15.021   0.224 -34.479  1.00  0.00    -0.365 N 
HETATM   24  H   UNL     1     -15.355   1.128 -34.788  1.00  0.00     0.159 HD
HETATM   25  H   UNL     1     -15.496  -0.628 -34.731  1.00  0.00     0.159 HD
HETATM   26  O   UNL     1     -13.406  -0.903 -33.365  1.00  0.00    -0.266 OA
ENDBRANCH   9  22
TORSDOF 4
ENDMDL
MODEL 2
REMARK VINA RESULT:      -7.9      6.295      7.707
REMARK  4 active torsions:
REMARK  status: ('A' for Active; 'I' for Inactive)
REMARK    1  A    between atoms: C_2  and  N_3 
REMARK    2  A    between atoms: C_4  and  C_5 
REMARK    3  A    between atoms: C_6  and  O_7 
REMARK    4  A    between atoms: C_19  and  C_20 
REMARK       I    between atoms: C_20  and  N_21 
ROOT
HETATM    1  C   UNL     1      -5.519   1.851 -30.586  1.00  0.00     0.034 A 
HETATM    2  C   UNL     1      -4.416   1.356 -31.295  1.00  0.00     0.057 A 
HETATM    3  C   UNL     1      -3.411   2.235 -31.715  1.00  0.00     0.048 A 
HETATM    4  C   UNL     1      -3.527   3.612 -31.440  1.00  0.00     0.030 A 
HETATM    5  C   UNL     1      -4.647   4.064 -30.753  1.00  0.00     0.063 A 
HETATM    6  N   UNL     1      -4.478   5.416 -30.636  1.00  0.00    -0.277 N 
HETATM    7  H   UNL     1      -5.103   6.076 -30.188  1.00  0.00     0.189 HD
HETATM    8  N   UNL     1      -3.339   5.883 -31.176  1.00  0.00    -0.168 NA
HETATM    9  C   UNL     1      -2.740   4.779 -31.674  1.00  0.00     0.156 A 
HETATM   10  C   UNL     1      -5.666   3.216 -30.312  1.00  0.00     0.034 A 
ENDROOT
BRANCH   2  11
HETATM   11  N   UNL     1      -4.247  -0.018 -31.534  1.00  0.00    -0.260 NA
HETATM   12  C   UNL     1      -4.494  -0.453 -32.730  1.00  0.00     0.131 C 
BRANCH  12  13
HETATM   13  C   UNL     1      -4.345  -1.886 -33.061  1.00  0.00     0.016 A 
HETATM   14  C   UNL     1      -3.371  -2.688 -32.455  1.00  0.00     0.077 A 
HETATM   15  C   UNL     1      -3.255  -4.034 -32.794  1.00  0.00     0.039 A 
HETATM   16  C   UNL     1      -4.123  -4.589 -33.736  1.00  0.00     0.022 A 
HETATM   17  C   UNL     1      -5.097  -3.790 -34.335  1.00  0.00     0.012 A 
HETATM   18 BR   UNL     1      -6.279  -4.549 -35.601  1.00  0.00    -0.051 Br
HETATM   19  C   UNL     1      -5.213  -2.438 -34.008  1.00  0.00     0.034 A 
BRANCH  14  20
HETATM   20  O   UNL     1      -2.492  -2.215 -31.521  1.00  0.00    -0.360 OA
HETATM   21  H   UNL     1      -1.874  -1.602 -31.983  1.00  0.00     0.217 HD
ENDBRANCH  14  20
ENDBRANCH  12  13
ENDBRANCH   2  11
BRANCH   9  22
HETATM   22  C   UNL     1      -1.436   4.853 -32.349  1.00  0.00     0.270 C 
HETATM   23  N   UNL     1      -1.516   4.924 -33.713  1.00  0.00    -0.365 N 
HETATM   24  H   UNL     1      -2.431   4.934 -34.145  1.00  0.00     0.159 HD
HETATM   25  H   UNL     1      -0.673   5.004 -34.259  1.00  0.00     0.159 HD
HETATM   26  O   UNL     1      -0.353   4.860 -31.773  1.00  0.00    -0.266 OA
ENDBRANCH   9  22
TORSDOF 4
ENDMDL
MODEL 3
REMARK VINA RESULT:      -7.7      3.701      7.507
REMARK  4 active torsions:
REMARK  status: ('A' for Active; 'I' for Inactive)
REMARK    1  A    between atoms: C_2  and  N_3 
REMARK    2  A    between atoms: C_4  and  C_5 
REMARK    3  A    between atoms: C_6  and  O_7 
REMARK    4  A    between atoms: C_19  and  C_20 
REMARK       I    between atoms: C_20  and  N_21 
ROOT
HETATM    1  C   UNL     1      -6.129   0.878 -33.707  1.00  0.00     0.034 A 
HETATM    2  C   UNL     1      -7.190   0.247 -34.369  1.00  0.00     0.057 A 
HETATM    3  C   UNL     1      -7.115  -1.123 -34.648  1.00  0.00     0.048 A 
HETATM    4  C   UNL     1      -5.965  -1.850 -34.280  1.00  0.00     0.030 A 
HETATM    5  C   UNL     1      -4.928  -1.180 -33.644  1.00  0.00     0.063 A 
HETATM    6  N   UNL     1      -3.972  -2.130 -33.414  1.00  0.00    -0.277 N 
HETATM    7  H   UNL     1      -3.073  -2.001 -32.964  1.00  0.00     0.189 HD
HETATM    8  N   UNL     1      -4.301  -3.364 -33.833  1.00  0.00    -0.168 NA
HETATM    9  C   UNL     1      -5.532  -3.206 -34.368  1.00  0.00     0.156 A 
HETATM   10  C   UNL     1      -4.970   0.184 -33.343  1.00  0.00     0.034 A 
ENDROOT
BRANCH   2  11
HETATM   11  N   UNL     1      -8.370   0.933 -34.698  1.00  0.00    -0.260 NA
HETATM   12  C   UNL     1      -9.312   0.970 -33.807  1.00  0.00     0.131 C 
BRANCH  12  13
HETATM   13  C   UNL     1     -10.586   1.667 -34.078  1.00  0.00     0.016 A 
HETATM   14  C   UNL     1     -10.628   3.020 -34.436  1.00  0.00     0.077 A 
HETATM   15  C   UNL     1     -11.847   3.647 -34.680  1.00  0.00     0.039 A 
HETATM   16  C   UNL     1     -13.034   2.919 -34.578  1.00  0.00     0.022 A 
HETATM   17  C   UNL     1     -12.991   1.570 -34.228  1.00  0.00     0.012 A 
HETATM   18 BR   UNL     1     -14.600   0.585 -34.103  1.00  0.00    -0.051 Br
HETATM   19  C   UNL     1     -11.774   0.936 -33.972  1.00  0.00     0.034 A 
BRANCH  14  20
HETATM   20  O   UNL     1      -9.507   3.792 -34.561  1.00  0.00    -0.360 OA
HETATM   21  H   UNL     1      -9.300   4.156 -33.668  1.00  0.00     0.217 HD
ENDBRANCH  14  20
ENDBRANCH  12  13
ENDBRANCH   2  11
BRANCH   9  22
HETATM   22  C   UNL     1      -6.270  -4.342 -34.939  1.00  0.00     0.270 C 
HETATM   23  N   UNL     1      -7.498  -4.552 -34.373  1.00  0.00    -0.365 N 
HETATM   24  H   UNL     1      -7.808  -3.926 -33.639  1.00  0.00     0.159 HD
HETATM   25  H   UNL     1      -8.088  -5.293 -34.717  1.00  0.00     0.159 HD
HETATM   26  O   UNL     1      -5.857  -5.056 -35.846  1.00  0.00    -0.266 OA
ENDBRANCH   9  22
TORSDOF 4
ENDMDL
MODEL 4
REMARK VINA RESULT:      -7.6      2.402      3.505
REMARK  4 active torsions:
REMARK  status: ('A' for Active; 'I' for Inactive)
REMARK    1  A    between atoms: C_2  and  N_3 
REMARK    2  A    between atoms: C_4  and  C_5 
REMARK    3  A    between atoms: C_6  and  O_7 
REMARK    4  A    between atoms: C_19  and  C_20 
REMARK       I    between atoms: C_20  and  N_21 
ROOT
HETATM    1  C   UNL     1     -11.374   1.051 -33.894  1.00  0.00     0.034 A 
HETATM    2  C   UNL     1     -10.070   1.551 -34.002  1.00  0.00     0.057 A 
HETATM    3  C   UNL     1      -9.869   2.888 -34.367  1.00  0.00     0.048 A 
HETATM    4  C   UNL     1     -10.978   3.711 -34.644  1.00  0.00     0.030 A 
HETATM    5  C   UNL     1     -12.253   3.169 -34.546  1.00  0.00     0.063 A 
HETATM    6  N   UNL     1     -13.106   4.190 -34.864  1.00  0.00    -0.277 N 
HETATM    7  H   UNL     1     -14.118   4.158 -34.895  1.00  0.00     0.189 HD
HETATM    8  N   UNL     1     -12.497   5.354 -35.149  1.00  0.00    -0.168 NA
HETATM    9  C   UNL     1     -11.182   5.074 -35.014  1.00  0.00     0.156 A 
HETATM   10  C   UNL     1     -12.493   1.843 -34.177  1.00  0.00     0.034 A 
ENDROOT
BRANCH   2  11
HETATM   11  N   UNL     1      -8.949   0.770 -33.678  1.00  0.00    -0.260 NA
HETATM   12  C   UNL     1      -8.207   0.350 -34.656  1.00  0.00     0.131 C 
BRANCH  12  13
HETATM   13  C   UNL     1      -7.013  -0.481 -34.399  1.00  0.00     0.016 A 
HETATM   14  C   UNL     1      -5.865   0.041 -33.793  1.00  0.00     0.077 A 
HETATM   15  C   UNL     1      -4.755  -0.770 -33.570  1.00  0.00     0.039 A 
HETATM   16  C   UNL     1      -4.791  -2.115 -33.943  1.00  0.00     0.022 A 
HETATM   17  C   UNL     1      -5.939  -2.635 -34.541  1.00  0.00     0.012 A 
HETATM   18 BR   UNL     1      -5.990  -4.461 -35.034  1.00  0.00    -0.051 Br
HETATM   19  C   UNL     1      -7.052  -1.827 -34.778  1.00  0.00     0.034 A 
BRANCH  14  20
HETATM   20  O   UNL     1      -5.759   1.345 -33.395  1.00  0.00    -0.360 OA
HETATM   21  H   UNL     1      -5.102   1.375 -32.661  1.00  0.00     0.217 HD
ENDBRANCH  14  20
ENDBRANCH  12  13
ENDBRANCH   2  11
BRANCH   9  22
HETATM   22  C   UNL     1     -10.154   6.102 -35.229  1.00  0.00     0.270 C 
HETATM   23  N   UNL     1      -9.521   6.507 -34.085  1.00  0.00    -0.365 N 
HETATM   24  H   UNL     1      -9.784   6.076 -33.207  1.00  0.00     0.159 HD
HETATM   25  H   UNL     1      -8.783   7.191 -34.138  1.00  0.00     0.159 HD
HETATM   26  O   UNL     1      -9.859   6.575 -36.322  1.00  0.00    -0.266 OA
ENDBRANCH   9  22
TORSDOF 4
ENDMDL
MODEL 5
REMARK VINA RESULT:      -7.5      3.621      7.986
REMARK  4 active torsions:
REMARK  status: ('A' for Active; 'I' for Inactive)
REMARK    1  A    between atoms: C_2  and  N_3 
REMARK    2  A    between atoms: C_4  and  C_5 
REMARK    3  A    between atoms: C_6  and  O_7 
REMARK    4  A    between atoms: C_19  and  C_20 
REMARK       I    between atoms: C_20  and  N_21 
ROOT
HETATM    1  C   UNL     1      -6.934  -1.894 -34.888  1.00  0.00     0.034 A 
HETATM    2  C   UNL     1      -7.161  -0.709 -34.177  1.00  0.00     0.057 A 
HETATM    3  C   UNL     1      -6.253  -0.308 -33.189  1.00  0.00     0.048 A 
HETATM    4  C   UNL     1      -5.131  -1.111 -32.905  1.00  0.00     0.030 A 
HETATM    5  C   UNL     1      -4.956  -2.290 -33.618  1.00  0.00     0.063 A 
HETATM    6  N   UNL     1      -3.802  -2.839 -33.130  1.00  0.00    -0.277 N 
HETATM    7  H   UNL     1      -3.364  -3.706 -33.420  1.00  0.00     0.189 HD
HETATM    8  N   UNL     1      -3.204  -2.115 -32.169  1.00  0.00    -0.168 NA
HETATM    9  C   UNL     1      -4.013  -1.042 -32.021  1.00  0.00     0.156 A 
HETATM   10  C   UNL     1      -5.836  -2.718 -34.615  1.00  0.00     0.034 A 
ENDROOT
BRANCH   2  11
HETATM   11  N   UNL     1      -8.240   0.139 -34.478  1.00  0.00    -0.260 NA
HETATM   12  C   UNL     1      -9.099   0.374 -33.535  1.00  0.00     0.131 C 
BRANCH  12  13
HETATM   13  C   UNL     1     -10.265   1.251 -33.773  1.00  0.00     0.016 A 
HETATM   14  C   UNL     1     -10.119   2.613 -34.060  1.00  0.00     0.077 A 
HETATM   15  C   UNL     1     -11.240   3.412 -34.275  1.00  0.00     0.039 A 
HETATM   16  C   UNL     1     -12.516   2.848 -34.214  1.00  0.00     0.022 A 
HETATM   17  C   UNL     1     -12.659   1.489 -33.934  1.00  0.00     0.012 A 
HETATM   18 BR   UNL     1     -14.388   0.727 -33.865  1.00  0.00    -0.051 Br
HETATM   19  C   UNL     1     -11.541   0.684 -33.708  1.00  0.00     0.034 A 
BRANCH  14  20
HETATM   20  O   UNL     1      -8.903   3.232 -34.142  1.00  0.00    -0.360 OA
HETATM   21  H   UNL     1      -9.065   4.158 -34.439  1.00  0.00     0.217 HD
ENDBRANCH  14  20
ENDBRANCH  12  13
ENDBRANCH   2  11
BRANCH   9  22
HETATM   22  C   UNL     1      -3.703   0.023 -31.058  1.00  0.00     0.270 C 
HETATM   23  N   UNL     1      -4.760   0.390 -30.270  1.00  0.00    -0.365 N 
HETATM   24  H   UNL     1      -5.644  -0.090 -30.391  1.00  0.00     0.159 HD
HETATM   25  H   UNL     1      -4.635   1.096 -29.562  1.00  0.00     0.159 HD
HETATM   26  O   UNL     1      -2.605   0.556 -30.938  1.00  0.00    -0.266 OA
ENDBRANCH   9  22
TORSDOF 4
ENDMDL
MODEL 6
REMARK VINA RESULT:      -7.5      5.052      7.055
REMARK  4 active torsions:
REMARK  status: ('A' for Active; 'I' for Inactive)
REMARK    1  A    between atoms: C_2  and  N_3 
REMARK    2  A    between atoms: C_4  and  C_5 
REMARK    3  A    between atoms: C_6  and  O_7 
REMARK    4  A    between atoms: C_19  and  C_20 
REMARK       I    between atoms: C_20  and  N_21 
ROOT
HETATM    1  C   UNL     1      -5.778   2.536 -30.788  1.00  0.00     0.034 A 
HETATM    2  C   UNL     1      -5.564   2.130 -32.112  1.00  0.00     0.057 A 
HETATM    3  C   UNL     1      -4.879   2.976 -32.994  1.00  0.00     0.048 A 
HETATM    4  C   UNL     1      -4.431   4.235 -32.548  1.00  0.00     0.030 A 
HETATM    5  C   UNL     1      -4.684   4.607 -31.233  1.00  0.00     0.063 A 
HETATM    6  N   UNL     1      -4.137   5.853 -31.099  1.00  0.00    -0.277 N 
HETATM    7  H   UNL     1      -4.130   6.435 -30.269  1.00  0.00     0.189 HD
HETATM    8  N   UNL     1      -3.540   6.321 -32.209  1.00  0.00    -0.168 NA
HETATM    9  C   UNL     1      -3.711   5.330 -33.112  1.00  0.00     0.156 A 
HETATM   10  C   UNL     1      -5.356   3.787 -30.323  1.00  0.00     0.034 A 
ENDROOT
BRANCH   2  11
HETATM   11  N   UNL     1      -5.950   0.859 -32.567  1.00  0.00    -0.260 NA
HETATM   12  C   UNL     1      -5.068   0.159 -33.211  1.00  0.00     0.131 C 
BRANCH  12  13
HETATM   13  C   UNL     1      -5.398  -1.185 -33.728  1.00  0.00     0.016 A 
HETATM   14  C   UNL     1      -6.623  -1.460 -34.347  1.00  0.00     0.077 A 
HETATM   15  C   UNL     1      -6.902  -2.740 -34.819  1.00  0.00     0.039 A 
HETATM   16  C   UNL     1      -5.952  -3.753 -34.683  1.00  0.00     0.022 A 
HETATM   17  C   UNL     1      -4.729  -3.477 -34.071  1.00  0.00     0.012 A 
HETATM   18 BR   UNL     1      -3.438  -4.848 -33.900  1.00  0.00    -0.051 Br
HETATM   19  C   UNL     1      -4.445  -2.199 -33.586  1.00  0.00     0.034 A 
BRANCH  14  20
HETATM   20  O   UNL     1      -7.598  -0.518 -34.521  1.00  0.00    -0.360 OA
HETATM   21  H   UNL     1      -8.290  -0.683 -33.839  1.00  0.00     0.217 HD
ENDBRANCH  14  20
ENDBRANCH  12  13
ENDBRANCH   2  11
BRANCH   9  22
HETATM   22  C   UNL     1      -3.182   5.440 -34.478  1.00  0.00     0.270 C 
HETATM   23  N   UNL     1      -1.819   5.544 -34.543  1.00  0.00    -0.365 N 
HETATM   24  H   UNL     1      -1.290   5.524 -33.681  1.00  0.00     0.159 HD
HETATM   25  H   UNL     1      -1.364   5.597 -35.441  1.00  0.00     0.159 HD
HETATM   26  O   UNL     1      -3.870   5.436 -35.494  1.00  0.00    -0.266 OA
ENDBRANCH   9  22
TORSDOF 4
ENDMDL
MODEL 7
REMARK VINA RESULT:      -7.5      6.474      9.185
REMARK  4 active torsions:
REMARK  status: ('A' for Active; 'I' for Inactive)
REMARK    1  A    between atoms: C_2  and  N_3 
REMARK    2  A    between atoms: C_4  and  C_5 
REMARK    3  A    between atoms: C_6  and  O_7 
REMARK    4  A    between atoms: C_19  and  C_20 
REMARK       I    between atoms: C_20  and  N_21 
ROOT
HETATM    1  C   UNL     1      -4.380   5.042 -32.454  1.00  0.00     0.034 A 
HETATM    2  C   UNL     1      -3.541   3.937 -32.261  1.00  0.00     0.057 A 
HETATM    3  C   UNL     1      -2.327   4.098 -31.581  1.00  0.00     0.048 A 
HETATM    4  C   UNL     1      -1.951   5.374 -31.116  1.00  0.00     0.030 A 
HETATM    5  C   UNL     1      -2.803   6.447 -31.348  1.00  0.00     0.063 A 
HETATM    6  N   UNL     1      -2.181   7.529 -30.789  1.00  0.00    -0.277 N 
HETATM    7  H   UNL     1      -2.515   8.486 -30.766  1.00  0.00     0.189 HD
HETATM    8  N   UNL     1      -1.003   7.253 -30.202  1.00  0.00    -0.168 NA
HETATM    9  C   UNL     1      -0.850   5.923 -30.394  1.00  0.00     0.156 A 
HETATM   10  C   UNL     1      -4.024   6.323 -32.015  1.00  0.00     0.034 A 
ENDROOT
BRANCH   2  11
HETATM   11  N   UNL     1      -3.915   2.645 -32.664  1.00  0.00    -0.260 NA
HETATM   12  C   UNL     1      -3.426   1.644 -32.001  1.00  0.00     0.131 C 
BRANCH  12  13
HETATM   13  C   UNL     1      -3.766   0.253 -32.365  1.00  0.00     0.016 A 
HETATM   14  C   UNL     1      -3.002  -0.835 -31.928  1.00  0.00     0.077 A 
HETATM   15  C   UNL     1      -3.349  -2.133 -32.294  1.00  0.00     0.039 A 
HETATM   16  C   UNL     1      -4.472  -2.352 -33.094  1.00  0.00     0.022 A 
HETATM   17  C   UNL     1      -5.236  -1.267 -33.524  1.00  0.00     0.012 A 
HETATM   18 BR   UNL     1      -6.764  -1.568 -34.597  1.00  0.00    -0.051 Br
HETATM   19  C   UNL     1      -4.890   0.038 -33.170  1.00  0.00     0.034 A 
BRANCH  14  20
HETATM   20  O   UNL     1      -1.894  -0.698 -31.138  1.00  0.00    -0.360 OA
HETATM   21  H   UNL     1      -1.704   0.266 -31.064  1.00  0.00     0.217 HD
ENDBRANCH  14  20
ENDBRANCH  12  13
ENDBRANCH   2  11
BRANCH   9  22
HETATM   22  C   UNL     1       0.327   5.207 -29.883  1.00  0.00     0.270 C 
HETATM   23  N   UNL     1       0.479   5.280 -28.525  1.00  0.00    -0.365 N 
HETATM   24  H   UNL     1      -0.210   5.790 -27.986  1.00  0.00     0.159 HD
HETATM   25  H   UNL     1       1.244   4.797 -28.081  1.00  0.00     0.159 HD
HETATM   26  O   UNL     1       1.120   4.583 -30.580  1.00  0.00    -0.266 OA
ENDBRANCH   9  22
TORSDOF 4
ENDMDL
MODEL 8
REMARK VINA RESULT:      -7.3      5.819      7.830
REMARK  4 active torsions:
REMARK  status: ('A' for Active; 'I' for Inactive)
REMARK    1  A    between atoms: C_2  and  N_3 
REMARK    2  A    between atoms: C_4  and  C_5 
REMARK    3  A    between atoms: C_6  and  O_7 
REMARK    4  A    between atoms: C_19  and  C_20 
REMARK       I    between atoms: C_20  and  N_21 
ROOT
HETATM    1  C   UNL     1      -3.386   0.392 -32.694  1.00  0.00     0.034 A 
HETATM    2  C   UNL     1      -3.844   1.659 -32.311  1.00  0.00     0.057 A 
HETATM    3  C   UNL     1      -5.221   1.905 -32.234  1.00  0.00     0.048 A 
HETATM    4  C   UNL     1      -6.132   0.881 -32.563  1.00  0.00     0.030 A 
HETATM    5  C   UNL     1      -5.635  -0.354 -32.959  1.00  0.00     0.063 A 
HETATM    6  N   UNL     1      -6.737  -1.125 -33.204  1.00  0.00    -0.277 N 
HETATM    7  H   UNL     1      -6.755  -2.091 -33.512  1.00  0.00     0.189 HD
HETATM    8  N   UNL     1      -7.910  -0.504 -32.991  1.00  0.00    -0.168 NA
HETATM    9  C   UNL     1      -7.551   0.737 -32.592  1.00  0.00     0.156 A 
HETATM   10  C   UNL     1      -4.269  -0.637 -33.041  1.00  0.00     0.034 A 
ENDROOT
BRANCH   2  11
HETATM   11  N   UNL     1      -2.960   2.680 -31.924  1.00  0.00    -0.260 NA
HETATM   12  C   UNL     1      -2.842   3.702 -32.713  1.00  0.00     0.131 C 
BRANCH  12  13
HETATM   13  C   UNL     1      -1.929   4.815 -32.381  1.00  0.00     0.016 A 
HETATM   14  C   UNL     1      -1.663   5.850 -33.286  1.00  0.00     0.077 A 
HETATM   15  C   UNL     1      -0.793   6.881 -32.941  1.00  0.00     0.039 A 
HETATM   16  C   UNL     1      -0.191   6.890 -31.681  1.00  0.00     0.022 A 
HETATM   17  C   UNL     1      -0.462   5.862 -30.778  1.00  0.00     0.012 A 
HETATM   18 BR   UNL     1       0.346   5.883 -29.068  1.00  0.00    -0.051 Br
HETATM   19  C   UNL     1      -1.324   4.818 -31.119  1.00  0.00     0.034 A 
BRANCH  14  20
HETATM   20  O   UNL     1      -2.220   5.911 -34.532  1.00  0.00    -0.360 OA
HETATM   21  H   UNL     1      -1.613   5.438 -35.148  1.00  0.00     0.217 HD
ENDBRANCH  14  20
ENDBRANCH  12  13
ENDBRANCH   2  11
BRANCH   9  22
HETATM   22  C   UNL     1      -8.557   1.748 -32.238  1.00  0.00     0.270 C 
HETATM   23  N   UNL     1      -9.338   1.408 -31.167  1.00  0.00    -0.365 N 
HETATM   24  H   UNL     1      -9.166   0.526 -30.701  1.00  0.00     0.159 HD
HETATM   25  H   UNL     1     -10.039   2.052 -30.835  1.00  0.00     0.159 HD
HETATM   26  O   UNL     1      -8.709   2.814 -32.824  1.00  0.00    -0.266 OA
ENDBRANCH   9  22
TORSDOF 4
ENDMDL
MODEL 9
REMARK VINA RESULT:      -7.3      5.855      8.183
REMARK  4 active torsions:
REMARK  status: ('A' for Active; 'I' for Inactive)
REMARK    1  A    between atoms: C_2  and  N_3 
REMARK    2  A    between atoms: C_4  and  C_5 
REMARK    3  A    between atoms: C_6  and  O_7 
REMARK    4  A    between atoms: C_19  and  C_20 
REMARK       I    between atoms: C_20  and  N_21 
ROOT
HETATM    1  C   UNL     1      -6.513   0.209 -34.126  1.00  0.00     0.034 A 
HETATM    2  C   UNL     1      -5.349   0.126 -33.351  1.00  0.00     0.057 A 
HETATM    3  C   UNL     1      -4.681  -1.099 -33.232  1.00  0.00     0.048 A 
HETATM    4  C   UNL     1      -5.198  -2.241 -33.875  1.00  0.00     0.030 A 
HETATM    5  C   UNL     1      -6.366  -2.119 -34.616  1.00  0.00     0.063 A 
HETATM    6  N   UNL     1      -6.611  -3.370 -35.113  1.00  0.00    -0.277 N 
HETATM    7  H   UNL     1      -7.384  -3.656 -35.702  1.00  0.00     0.189 HD
HETATM    8  N   UNL     1      -5.697  -4.294 -34.769  1.00  0.00    -0.168 NA
HETATM    9  C   UNL     1      -4.816  -3.609 -34.006  1.00  0.00     0.156 A 
HETATM   10  C   UNL     1      -7.055  -0.913 -34.763  1.00  0.00     0.034 A 
ENDROOT
BRANCH   2  11
HETATM   11  N   UNL     1      -4.782   1.259 -32.744  1.00  0.00    -0.260 NA
HETATM   12  C   UNL     1      -5.211   2.422 -33.125  1.00  0.00     0.131 C 
BRANCH  12  13
HETATM   13  C   UNL     1      -4.661   3.662 -32.540  1.00  0.00     0.016 A 
HETATM   14  C   UNL     1      -4.952   4.054 -31.228  1.00  0.00     0.077 A 
HETATM   15  C   UNL     1      -4.420   5.232 -30.709  1.00  0.00     0.039 A 
HETATM   16  C   UNL     1      -3.582   6.021 -31.498  1.00  0.00     0.022 A 
HETATM   17  C   UNL     1      -3.288   5.627 -32.803  1.00  0.00     0.012 A 
HETATM   18 BR   UNL     1      -2.142   6.693 -33.866  1.00  0.00    -0.051 Br
HETATM   19  C   UNL     1      -3.825   4.453 -33.335  1.00  0.00     0.034 A 
BRANCH  14  20
HETATM   20  O   UNL     1      -5.758   3.328 -30.395  1.00  0.00    -0.360 OA
HETATM   21  H   UNL     1      -6.569   3.093 -30.904  1.00  0.00     0.217 HD
ENDBRANCH  14  20
ENDBRANCH  12  13
ENDBRANCH   2  11
BRANCH   9  22
HETATM   22  C   UNL     1      -3.632  -4.264 -33.431  1.00  0.00     0.270 C 
HETATM   23  N   UNL     1      -3.139  -5.291 -34.188  1.00  0.00    -0.365 N 
HETATM   24  H   UNL     1      -3.596  -5.512 -35.064  1.00  0.00     0.159 HD
HETATM   25  H   UNL     1      -2.312  -5.783 -33.885  1.00  0.00     0.159 HD
HETATM   26  O   UNL     1      -3.103  -3.941 -32.373  1.00  0.00    -0.266 OA
ENDBRANCH   9  22
TORSDOF 4
ENDMDL
MODEL 10
REMARK VINA RESULT:      -7.2      5.566      7.837
REMARK  4 active torsions:
REMARK  status: ('A' for Active; 'I' for Inactive)
REMARK    1  A    between atoms: C_2  and  N_3 
REMARK    2  A    between atoms: C_4  and  C_5 
REMARK    3  A    between atoms: C_6  and  O_7 
REMARK    4  A    between atoms: C_19  and  C_20 
REMARK       I    between atoms: C_20  and  N_21 
ROOT
HETATM    1  C   UNL     1      -7.164   3.047 -33.292  1.00  0.00     0.034 A 
HETATM    2  C   UNL     1      -5.776   2.901 -33.171  1.00  0.00     0.057 A 
HETATM    3  C   UNL     1      -5.206   1.624 -33.235  1.00  0.00     0.048 A 
HETATM    4  C   UNL     1      -6.034   0.496 -33.400  1.00  0.00     0.030 A 
HETATM    5  C   UNL     1      -7.407   0.684 -33.494  1.00  0.00     0.063 A 
HETATM    6  N   UNL     1      -7.934  -0.568 -33.649  1.00  0.00    -0.277 N 
HETATM    7  H   UNL     1      -8.912  -0.816 -33.751  1.00  0.00     0.189 HD
HETATM    8  N   UNL     1      -7.022  -1.556 -33.675  1.00  0.00    -0.168 NA
HETATM    9  C   UNL     1      -5.843  -0.912 -33.525  1.00  0.00     0.156 A 
HETATM   10  C   UNL     1      -8.011   1.943 -33.442  1.00  0.00     0.034 A 
ENDROOT
BRANCH   2  11
HETATM   11  N   UNL     1      -4.922   4.011 -33.062  1.00  0.00    -0.260 NA
HETATM   12  C   UNL     1      -3.649   3.803 -33.194  1.00  0.00     0.131 C 
BRANCH  12  13
HETATM   13  C   UNL     1      -2.684   4.917 -33.087  1.00  0.00     0.016 A 
HETATM   14  C   UNL     1      -2.645   5.954 -34.027  1.00  0.00     0.077 A 
HETATM   15  C   UNL     1      -1.719   6.987 -33.898  1.00  0.00     0.039 A 
HETATM   16  C   UNL     1      -0.832   6.993 -32.821  1.00  0.00     0.022 A 
HETATM   17  C   UNL     1      -0.876   5.962 -31.882  1.00  0.00     0.012 A 
HETATM   18 BR   UNL     1       0.320   5.981 -30.417  1.00  0.00    -0.051 Br
HETATM   19  C   UNL     1      -1.794   4.918 -32.009  1.00  0.00     0.034 A 
BRANCH  14  20
HETATM   20  O   UNL     1      -3.486   6.018 -35.102  1.00  0.00    -0.360 OA
HETATM   21  H   UNL     1      -3.357   5.192 -35.625  1.00  0.00     0.217 HD
ENDBRANCH  14  20
ENDBRANCH  12  13
ENDBRANCH   2  11
BRANCH   9  22
HETATM   22  C   UNL     1      -4.568  -1.643 -33.514  1.00  0.00     0.270 C 
HETATM   23  N   UNL     1      -4.522  -2.699 -34.383  1.00  0.00    -0.365 N 
HETATM   24  H   UNL     1      -5.332  -2.888 -34.961  1.00  0.00     0.159 HD
HETATM   25  H   UNL     1      -3.678  -3.244 -34.464  1.00  0.00     0.159 HD
HETATM   26  O   UNL     1      -3.607  -1.357 -32.808  1.00  0.00    -0.266 OA
ENDBRANCH   9  22
TORSDOF 4
ENDMDL
