MODEL 1
REMARK VINA RESULT:      -9.9      0.000      0.000
REMARK  8 active torsions:
REMARK  status: ('A' for Active; 'I' for Inactive)
REMARK    1  A    between atoms: C_2  and  N_3 
REMARK    2  A    between atoms: N_7  and  C_8 
REMARK    3  A    between atoms: C_8  and  C_9 
REMARK    4  A    between atoms: C_10  and  C_11 
REMARK    5  A    between atoms: C_16  and  C_17 
REMARK       I    between atoms: C_17  and  N_18 
REMARK    6  A    between atoms: N_18  and  C_19 
REMARK    7  A    between atoms: C_21  and  O_22 
REMARK    8  A    between atoms: O_22  and  C_23 
ROOT
HETATM    1  C   UNL     1      -4.750   5.330 -31.394  1.00  0.00     0.256 C 
HETATM    2  N   UNL     1      -5.321   4.217 -30.804  1.00  0.00    -0.323 N 
HETATM    3  O   UNL     1      -5.024   5.771 -32.505  1.00  0.00    -0.267 OA
HETATM    4  H   UNL     1      -5.017   3.949 -29.884  1.00  0.00     0.169 HD
ENDROOT
BRANCH   1   5
HETATM    5  C   UNL     1      -3.707   6.064 -30.594  1.00  0.00     0.033 A 
HETATM    6  C   UNL     1      -2.355   5.813 -30.893  1.00  0.00     0.034 A 
HETATM    7  C   UNL     1      -1.301   6.447 -30.199  1.00  0.00     0.056 A 
HETATM    8  C   UNL     1      -1.620   7.354 -29.165  1.00  0.00    -0.015 A 
HETATM    9  C   UNL     1      -2.973   7.611 -28.876  1.00  0.00     0.011 A 
HETATM   10  C   UNL     1      -4.002   6.971 -29.574  1.00  0.00     0.017 A 
BRANCH   7  11
HETATM   11  C   UNL     1       0.125   6.077 -30.569  1.00  0.00     0.418 C 
HETATM   12  F   UNL     1       0.216   5.207 -31.614  1.00  0.00    -0.166 F 
HETATM   13  F   UNL     1       0.870   7.163 -30.913  1.00  0.00    -0.166 F 
HETATM   14  F   UNL     1       0.794   5.473 -29.548  1.00  0.00    -0.166 F 
ENDBRANCH   7  11
BRANCH   8  15
HETATM   15  C   UNL     1      -0.563   8.041 -28.323  1.00  0.00     0.312 C 
BRANCH  15  16
HETATM   16  N   UNL     1      -0.359   7.389 -27.019  1.00  0.00     0.096 N 
HETATM   17  C   UNL     1      -0.990   8.094 -25.887  1.00  0.00     0.300 C 
HETATM   18  C   UNL     1      -0.319   9.428 -25.501  1.00  0.00     0.265 C 
HETATM   19  N   UNL     1       1.168   9.225 -25.234  1.00  0.00    -0.068 N 
HETATM   20  H   UNL     1       1.239   8.617 -24.406  1.00  0.00     0.280 HD
HETATM   21  C   UNL     1       1.851   8.469 -26.375  1.00  0.00     0.265 C 
HETATM   22  C   UNL     1       1.075   7.185 -26.735  1.00  0.00     0.300 C 
BRANCH  19  23
HETATM   23  C   UNL     1       1.908  10.510 -24.934  1.00  0.00     0.230 C 
HETATM   24  C   UNL     1       3.150  10.255 -24.103  1.00  0.00     0.034 C 
ENDBRANCH  19  23
ENDBRANCH  15  16
ENDBRANCH   8  15
ENDBRANCH   1   5
BRANCH   2  25
HETATM   25  C   UNL     1      -6.361   3.408 -31.317  1.00  0.00     0.037 A 
HETATM   26  C   UNL     1      -6.247   2.603 -32.450  1.00  0.00     0.067 A 
HETATM   27  C   UNL     1      -7.365   1.903 -32.933  1.00  0.00     0.084 A 
HETATM   28  C   UNL     1      -8.589   1.941 -32.250  1.00  0.00    -0.028 A 
HETATM   29  C   UNL     1      -9.769   1.142 -32.723  1.00  0.00     0.051 C 
HETATM   30  C   UNL     1      -8.684   2.716 -31.091  1.00  0.00     0.012 A 
HETATM   31  C   UNL     1      -7.586   3.451 -30.638  1.00  0.00     0.030 A 
BRANCH  27  32
HETATM   32  O   UNL     1      -7.283   1.096 -34.047  1.00  0.00    -0.310 OA
BRANCH  32  33
HETATM   33  C   UNL     1      -6.472  -0.019 -34.007  1.00  0.00     0.076 A 
HETATM   34  C   UNL     1      -7.042  -1.196 -34.506  1.00  0.00     0.047 A 
HETATM   35  C   UNL     1      -6.271  -2.343 -34.506  1.00  0.00    -0.020 A 
HETATM   36  C   UNL     1      -4.964  -2.320 -34.027  1.00  0.00     0.041 A 
HETATM   37  C   UNL     1      -6.609  -3.729 -34.965  1.00  0.00     0.144 A 
HETATM   38  N   UNL     1      -4.411  -3.587 -34.118  1.00  0.00    -0.326 N 
HETATM   39  C   UNL     1      -4.367  -1.172 -33.552  1.00  0.00     0.033 A 
HETATM   40  C   UNL     1      -5.316  -4.492 -34.659  1.00  0.00     0.226 A 
HETATM   41  H   UNL     1      -3.480  -3.850 -33.834  1.00  0.00     0.169 HD
HETATM   42  O   UNL     1      -5.107  -5.679 -34.851  1.00  0.00    -0.273 OA
HETATM   43  C   UNL     1      -5.133  -0.002 -33.560  1.00  0.00     0.039 A 
ENDBRANCH  32  33
ENDBRANCH  27  32
ENDBRANCH   2  25
TORSDOF 8
ENDMDL
MODEL 2
REMARK VINA RESULT:      -9.9      2.203      4.354
REMARK  8 active torsions:
REMARK  status: ('A' for Active; 'I' for Inactive)
REMARK    1  A    between atoms: C_2  and  N_3 
REMARK    2  A    between atoms: N_7  and  C_8 
REMARK    3  A    between atoms: C_8  and  C_9 
REMARK    4  A    between atoms: C_10  and  C_11 
REMARK    5  A    between atoms: C_16  and  C_17 
REMARK       I    between atoms: C_17  and  N_18 
REMARK    6  A    between atoms: N_18  and  C_19 
REMARK    7  A    between atoms: C_21  and  O_22 
REMARK    8  A    between atoms: O_22  and  C_23 
ROOT
HETATM    1  C   UNL     1      -2.990   3.666 -32.288  1.00  0.00     0.256 C 
HETATM    2  N   UNL     1      -3.698   2.611 -31.740  1.00  0.00    -0.323 N 
HETATM    3  O   UNL     1      -2.551   3.716 -33.432  1.00  0.00    -0.267 OA
HETATM    4  H   UNL     1      -4.011   2.682 -30.788  1.00  0.00     0.169 HD
ENDROOT
BRANCH   1   5
HETATM    5  C   UNL     1      -2.745   4.855 -31.398  1.00  0.00     0.033 A 
HETATM    6  C   UNL     1      -1.411   5.192 -31.104  1.00  0.00     0.034 A 
HETATM    7  C   UNL     1      -1.075   6.286 -30.278  1.00  0.00     0.056 A 
HETATM    8  C   UNL     1      -2.118   7.059 -29.720  1.00  0.00    -0.015 A 
HETATM    9  C   UNL     1      -3.451   6.725 -30.024  1.00  0.00     0.011 A 
HETATM   10  C   UNL     1      -3.762   5.637 -30.844  1.00  0.00     0.017 A 
BRANCH   7  11
HETATM   11  C   UNL     1       0.394   6.542 -29.989  1.00  0.00     0.418 C 
HETATM   12  F   UNL     1       0.664   7.817 -29.589  1.00  0.00    -0.166 F 
HETATM   13  F   UNL     1       0.881   5.727 -29.015  1.00  0.00    -0.166 F 
HETATM   14  F   UNL     1       1.187   6.339 -31.078  1.00  0.00    -0.166 F 
ENDBRANCH   7  11
BRANCH   8  15
HETATM   15  C   UNL     1      -1.864   8.216 -28.775  1.00  0.00     0.312 C 
BRANCH  15  16
HETATM   16  N   UNL     1      -2.335   7.949 -27.406  1.00  0.00     0.096 N 
HETATM   17  C   UNL     1      -2.457   9.155 -26.565  1.00  0.00     0.300 C 
HETATM   18  C   UNL     1      -1.116   9.790 -26.147  1.00  0.00     0.265 C 
HETATM   19  N   UNL     1      -0.221   8.760 -25.467  1.00  0.00    -0.068 N 
HETATM   20  H   UNL     1      -0.694   8.487 -24.594  1.00  0.00     0.280 HD
HETATM   21  C   UNL     1      -0.095   7.481 -26.298  1.00  0.00     0.265 C 
HETATM   22  C   UNL     1      -1.482   6.956 -26.724  1.00  0.00     0.300 C 
BRANCH  19  23
HETATM   23  C   UNL     1       1.148   9.294 -25.108  1.00  0.00     0.230 C 
HETATM   24  C   UNL     1       2.243   8.569 -25.867  1.00  0.00     0.034 C 
ENDBRANCH  19  23
ENDBRANCH  15  16
ENDBRANCH   8  15
ENDBRANCH   1   5
BRANCH   2  25
HETATM   25  C   UNL     1      -4.112   1.424 -32.387  1.00  0.00     0.037 A 
HETATM   26  C   UNL     1      -5.231   1.325 -33.213  1.00  0.00     0.067 A 
HETATM   27  C   UNL     1      -5.611   0.081 -33.740  1.00  0.00     0.084 A 
HETATM   28  C   UNL     1      -4.839  -1.066 -33.508  1.00  0.00    -0.028 A 
HETATM   29  C   UNL     1      -5.203  -2.387 -34.123  1.00  0.00     0.051 C 
HETATM   30  C   UNL     1      -3.695  -0.953 -32.714  1.00  0.00     0.012 A 
HETATM   31  C   UNL     1      -3.344   0.276 -32.150  1.00  0.00     0.030 A 
BRANCH  27  32
HETATM   32  O   UNL     1      -6.710  -0.048 -34.563  1.00  0.00    -0.310 OA
BRANCH  32  33
HETATM   33  C   UNL     1      -7.954   0.293 -34.074  1.00  0.00     0.076 A 
HETATM   34  C   UNL     1      -8.533   1.433 -34.645  1.00  0.00     0.047 A 
HETATM   35  C   UNL     1      -9.786   1.814 -34.206  1.00  0.00    -0.020 A 
HETATM   36  C   UNL     1     -10.452   1.079 -33.228  1.00  0.00     0.041 A 
HETATM   37  C   UNL     1     -10.639   2.975 -34.622  1.00  0.00     0.144 A 
HETATM   38  N   UNL     1     -11.674   1.669 -32.952  1.00  0.00    -0.326 N 
HETATM   39  C   UNL     1      -9.919  -0.060 -32.666  1.00  0.00     0.033 A 
HETATM   40  C   UNL     1     -11.871   2.805 -33.727  1.00  0.00     0.226 A 
HETATM   41  H   UNL     1     -12.351   1.344 -32.278  1.00  0.00     0.169 HD
HETATM   42  O   UNL     1     -12.853   3.529 -33.693  1.00  0.00    -0.273 OA
HETATM   43  C   UNL     1      -8.656  -0.465 -33.112  1.00  0.00     0.039 A 
ENDBRANCH  32  33
ENDBRANCH  27  32
ENDBRANCH   2  25
TORSDOF 8
ENDMDL
MODEL 3
REMARK VINA RESULT:      -9.6      1.977      2.523
REMARK  8 active torsions:
REMARK  status: ('A' for Active; 'I' for Inactive)
REMARK    1  A    between atoms: C_2  and  N_3 
REMARK    2  A    between atoms: N_7  and  C_8 
REMARK    3  A    between atoms: C_8  and  C_9 
REMARK    4  A    between atoms: C_10  and  C_11 
REMARK    5  A    between atoms: C_16  and  C_17 
REMARK       I    between atoms: C_17  and  N_18 
REMARK    6  A    between atoms: N_18  and  C_19 
REMARK    7  A    between atoms: C_21  and  O_22 
REMARK    8  A    between atoms: O_22  and  C_23 
ROOT
HETATM    1  C   UNL     1      -2.428   4.746 -31.652  1.00  0.00     0.256 C 
HETATM    2  N   UNL     1      -3.778   4.741 -31.349  1.00  0.00    -0.323 N 
HETATM    3  O   UNL     1      -1.900   4.133 -32.574  1.00  0.00    -0.267 OA
HETATM    4  H   UNL     1      -4.098   5.286 -30.567  1.00  0.00     0.169 HD
ENDROOT
BRANCH   1   5
HETATM    5  C   UNL     1      -1.537   5.585 -30.775  1.00  0.00     0.033 A 
HETATM    6  C   UNL     1      -2.025   6.833 -30.347  1.00  0.00     0.034 A 
HETATM    7  C   UNL     1      -1.268   7.696 -29.525  1.00  0.00     0.056 A 
HETATM    8  C   UNL     1       0.027   7.292 -29.132  1.00  0.00    -0.015 A 
HETATM    9  C   UNL     1       0.508   6.039 -29.553  1.00  0.00     0.011 A 
HETATM   10  C   UNL     1      -0.258   5.200 -30.368  1.00  0.00     0.017 A 
BRANCH   7  11
HETATM   11  C   UNL     1      -1.869   9.040 -29.151  1.00  0.00     0.418 C 
HETATM   12  F   UNL     1      -0.969   9.920 -28.628  1.00  0.00    -0.166 F 
HETATM   13  F   UNL     1      -2.440   9.667 -30.215  1.00  0.00    -0.166 F 
HETATM   14  F   UNL     1      -2.847   8.935 -28.209  1.00  0.00    -0.166 F 
ENDBRANCH   7  11
BRANCH   8  15
HETATM   15  C   UNL     1       0.941   8.170 -28.300  1.00  0.00     0.312 C 
BRANCH  15  16
HETATM   16  N   UNL     1       1.222   7.603 -26.971  1.00  0.00     0.096 N 
HETATM   17  C   UNL     1       0.016   7.306 -26.175  1.00  0.00     0.300 C 
HETATM   18  C   UNL     1      -0.740   8.547 -25.659  1.00  0.00     0.265 C 
HETATM   19  N   UNL     1       0.197   9.461 -24.877  1.00  0.00    -0.068 N 
HETATM   20  H   UNL     1       0.493   8.937 -24.042  1.00  0.00     0.280 HD
HETATM   21  C   UNL     1       1.475   9.768 -25.660  1.00  0.00     0.265 C 
HETATM   22  C   UNL     1       2.125   8.473 -26.192  1.00  0.00     0.300 C 
BRANCH  19  23
HETATM   23  C   UNL     1      -0.460  10.744 -24.415  1.00  0.00     0.230 C 
HETATM   24  C   UNL     1      -1.171  10.556 -23.088  1.00  0.00     0.034 C 
ENDBRANCH  19  23
ENDBRANCH  15  16
ENDBRANCH   8  15
ENDBRANCH   1   5
BRANCH   2  25
HETATM   25  C   UNL     1      -4.818   4.096 -32.056  1.00  0.00     0.037 A 
HETATM   26  C   UNL     1      -5.291   2.816 -31.768  1.00  0.00     0.067 A 
HETATM   27  C   UNL     1      -6.269   2.225 -32.585  1.00  0.00     0.084 A 
HETATM   28  C   UNL     1      -6.836   2.931 -33.655  1.00  0.00    -0.028 A 
HETATM   29  C   UNL     1      -7.929   2.330 -34.492  1.00  0.00     0.051 C 
HETATM   30  C   UNL     1      -6.387   4.229 -33.913  1.00  0.00     0.012 A 
HETATM   31  C   UNL     1      -5.381   4.799 -33.130  1.00  0.00     0.030 A 
BRANCH  27  32
HETATM   32  O   UNL     1      -6.760   0.964 -32.323  1.00  0.00    -0.310 OA
BRANCH  32  33
HETATM   33  C   UNL     1      -6.117  -0.129 -32.867  1.00  0.00     0.076 A 
HETATM   34  C   UNL     1      -6.955  -1.111 -33.409  1.00  0.00     0.047 A 
HETATM   35  C   UNL     1      -6.366  -2.222 -33.983  1.00  0.00    -0.020 A 
HETATM   36  C   UNL     1      -4.980  -2.352 -34.023  1.00  0.00     0.041 A 
HETATM   37  C   UNL     1      -6.998  -3.420 -34.626  1.00  0.00     0.144 A 
HETATM   38  N   UNL     1      -4.641  -3.550 -34.630  1.00  0.00    -0.326 N 
HETATM   39  C   UNL     1      -4.130  -1.391 -33.521  1.00  0.00     0.033 A 
HETATM   40  C   UNL     1      -5.773  -4.256 -35.017  1.00  0.00     0.226 A 
HETATM   41  H   UNL     1      -3.705  -3.894 -34.782  1.00  0.00     0.169 HD
HETATM   42  O   UNL     1      -5.780  -5.344 -35.570  1.00  0.00    -0.273 OA
HETATM   43  C   UNL     1      -4.713  -0.255 -32.950  1.00  0.00     0.039 A 
ENDBRANCH  32  33
ENDBRANCH  27  32
ENDBRANCH   2  25
TORSDOF 8
ENDMDL
MODEL 4
REMARK VINA RESULT:      -9.6      2.281      4.390
REMARK  8 active torsions:
REMARK  status: ('A' for Active; 'I' for Inactive)
REMARK    1  A    between atoms: C_2  and  N_3 
REMARK    2  A    between atoms: N_7  and  C_8 
REMARK    3  A    between atoms: C_8  and  C_9 
REMARK    4  A    between atoms: C_10  and  C_11 
REMARK    5  A    between atoms: C_16  and  C_17 
REMARK       I    between atoms: C_17  and  N_18 
REMARK    6  A    between atoms: N_18  and  C_19 
REMARK    7  A    between atoms: C_21  and  O_22 
REMARK    8  A    between atoms: O_22  and  C_23 
ROOT
HETATM    1  C   UNL     1      -3.783   4.084 -32.541  1.00  0.00     0.256 C 
HETATM    2  N   UNL     1      -4.309   2.924 -31.998  1.00  0.00    -0.323 N 
HETATM    3  O   UNL     1      -3.820   4.399 -33.725  1.00  0.00    -0.267 OA
HETATM    4  H   UNL     1      -4.220   2.772 -31.008  1.00  0.00     0.169 HD
ENDROOT
BRANCH   1   5
HETATM    5  C   UNL     1      -3.116   5.039 -31.588  1.00  0.00     0.033 A 
HETATM    6  C   UNL     1      -1.710   5.038 -31.536  1.00  0.00     0.034 A 
HETATM    7  C   UNL     1      -0.988   5.893 -30.674  1.00  0.00     0.056 A 
HETATM    8  C   UNL     1      -1.708   6.768 -29.830  1.00  0.00    -0.015 A 
HETATM    9  C   UNL     1      -3.113   6.773 -29.892  1.00  0.00     0.011 A 
HETATM   10  C   UNL     1      -3.809   5.917 -30.752  1.00  0.00     0.017 A 
BRANCH   7  11
HETATM   11  C   UNL     1       0.527   5.787 -30.664  1.00  0.00     0.418 C 
HETATM   12  F   UNL     1       1.015   4.778 -31.440  1.00  0.00    -0.166 F 
HETATM   13  F   UNL     1       1.129   6.927 -31.099  1.00  0.00    -0.166 F 
HETATM   14  F   UNL     1       1.029   5.550 -29.421  1.00  0.00    -0.166 F 
ENDBRANCH   7  11
BRANCH   8  15
HETATM   15  C   UNL     1      -1.029   7.682 -28.829  1.00  0.00     0.312 C 
BRANCH  15  16
HETATM   16  N   UNL     1      -1.380   7.364 -27.436  1.00  0.00     0.096 N 
HETATM   17  C   UNL     1      -1.760   8.537 -26.627  1.00  0.00     0.300 C 
HETATM   18  C   UNL     1      -0.597   9.488 -26.281  1.00  0.00     0.265 C 
HETATM   19  N   UNL     1       0.538   8.726 -25.605  1.00  0.00    -0.068 N 
HETATM   20  H   UNL     1       0.171   8.383 -24.707  1.00  0.00     0.280 HD
HETATM   21  C   UNL     1       0.940   7.483 -26.402  1.00  0.00     0.265 C 
HETATM   22  C   UNL     1      -0.294   6.628 -26.758  1.00  0.00     0.300 C 
BRANCH  19  23
HETATM   23  C   UNL     1       1.751   9.583 -25.316  1.00  0.00     0.230 C 
HETATM   24  C   UNL     1       2.809   8.809 -24.554  1.00  0.00     0.034 C 
ENDBRANCH  19  23
ENDBRANCH  15  16
ENDBRANCH   8  15
ENDBRANCH   1   5
BRANCH   2  25
HETATM   25  C   UNL     1      -5.038   1.914 -32.666  1.00  0.00     0.037 A 
HETATM   26  C   UNL     1      -6.161   2.145 -33.459  1.00  0.00     0.067 A 
HETATM   27  C   UNL     1      -6.869   1.066 -34.010  1.00  0.00     0.084 A 
HETATM   28  C   UNL     1      -6.424  -0.253 -33.836  1.00  0.00    -0.028 A 
HETATM   29  C   UNL     1      -7.140  -1.406 -34.478  1.00  0.00     0.051 C 
HETATM   30  C   UNL     1      -5.273  -0.475 -33.076  1.00  0.00     0.012 A 
HETATM   31  C   UNL     1      -4.596   0.596 -32.487  1.00  0.00     0.030 A 
BRANCH  27  32
HETATM   32  O   UNL     1      -7.981   1.262 -34.802  1.00  0.00    -0.310 OA
BRANCH  32  33
HETATM   33  C   UNL     1      -9.141   1.731 -34.219  1.00  0.00     0.076 A 
HETATM   34  C   UNL     1     -10.275   0.932 -34.411  1.00  0.00     0.047 A 
HETATM   35  C   UNL     1     -11.463   1.343 -33.836  1.00  0.00    -0.020 A 
HETATM   36  C   UNL     1     -11.523   2.514 -33.086  1.00  0.00     0.041 A 
HETATM   37  C   UNL     1     -12.820   0.705 -33.875  1.00  0.00     0.144 A 
HETATM   38  N   UNL     1     -12.817   2.713 -32.635  1.00  0.00    -0.326 N 
HETATM   39  C   UNL     1     -10.419   3.307 -32.859  1.00  0.00     0.033 A 
HETATM   40  C   UNL     1     -13.660   1.693 -33.058  1.00  0.00     0.226 A 
HETATM   41  H   UNL     1     -13.137   3.488 -32.075  1.00  0.00     0.169 HD
HETATM   42  O   UNL     1     -14.853   1.609 -32.816  1.00  0.00    -0.273 OA
HETATM   43  C   UNL     1      -9.207   2.895 -33.423  1.00  0.00     0.039 A 
ENDBRANCH  32  33
ENDBRANCH  27  32
ENDBRANCH   2  25
TORSDOF 8
ENDMDL
MODEL 5
REMARK VINA RESULT:      -9.4      2.655      4.459
REMARK  8 active torsions:
REMARK  status: ('A' for Active; 'I' for Inactive)
REMARK    1  A    between atoms: C_2  and  N_3 
REMARK    2  A    between atoms: N_7  and  C_8 
REMARK    3  A    between atoms: C_8  and  C_9 
REMARK    4  A    between atoms: C_10  and  C_11 
REMARK    5  A    between atoms: C_16  and  C_17 
REMARK       I    between atoms: C_17  and  N_18 
REMARK    6  A    between atoms: N_18  and  C_19 
REMARK    7  A    between atoms: C_21  and  O_22 
REMARK    8  A    between atoms: O_22  and  C_23 
ROOT
HETATM    1  C   UNL     1      -2.597   3.945 -31.877  1.00  0.00     0.256 C 
HETATM    2  N   UNL     1      -3.183   2.906 -31.176  1.00  0.00    -0.323 N 
HETATM    3  O   UNL     1      -2.663   4.117 -33.090  1.00  0.00    -0.267 OA
HETATM    4  H   UNL     1      -3.062   2.869 -30.179  1.00  0.00     0.169 HD
ENDROOT
BRANCH   1   5
HETATM    5  C   UNL     1      -1.819   4.953 -31.075  1.00  0.00     0.033 A 
HETATM    6  C   UNL     1      -2.468   6.149 -30.717  1.00  0.00     0.034 A 
HETATM    7  C   UNL     1      -1.825   7.159 -29.968  1.00  0.00     0.056 A 
HETATM    8  C   UNL     1      -0.482   6.962 -29.577  1.00  0.00    -0.015 A 
HETATM    9  C   UNL     1       0.160   5.760 -29.928  1.00  0.00     0.011 A 
HETATM   10  C   UNL     1      -0.494   4.773 -30.671  1.00  0.00     0.017 A 
BRANCH   7  11
HETATM   11  C   UNL     1      -2.600   8.431 -29.668  1.00  0.00     0.418 C 
HETATM   12  F   UNL     1      -2.772   8.671 -28.337  1.00  0.00    -0.166 F 
HETATM   13  F   UNL     1      -1.997   9.538 -30.179  1.00  0.00    -0.166 F 
HETATM   14  F   UNL     1      -3.858   8.416 -30.189  1.00  0.00    -0.166 F 
ENDBRANCH   7  11
BRANCH   8  15
HETATM   15  C   UNL     1       0.313   8.009 -28.822  1.00  0.00     0.312 C 
BRANCH  15  16
HETATM   16  N   UNL     1       0.938   7.478 -27.599  1.00  0.00     0.096 N 
HETATM   17  C   UNL     1      -0.024   6.981 -26.598  1.00  0.00     0.300 C 
HETATM   18  C   UNL     1      -0.844   8.078 -25.890  1.00  0.00     0.265 C 
HETATM   19  N   UNL     1       0.076   9.121 -25.266  1.00  0.00    -0.068 N 
HETATM   20  H   UNL     1       0.610   8.642 -24.529  1.00  0.00     0.280 HD
HETATM   21  C   UNL     1       1.108   9.639 -26.269  1.00  0.00     0.265 C 
HETATM   22  C   UNL     1       1.833   8.473 -26.974  1.00  0.00     0.300 C 
BRANCH  19  23
HETATM   23  C   UNL     1      -0.666  10.275 -24.629  1.00  0.00     0.230 C 
HETATM   24  C   UNL     1      -0.705  10.144 -23.118  1.00  0.00     0.034 C 
ENDBRANCH  19  23
ENDBRANCH  15  16
ENDBRANCH   8  15
ENDBRANCH   1   5
BRANCH   2  25
HETATM   25  C   UNL     1      -4.014   1.883 -31.687  1.00  0.00     0.037 A 
HETATM   26  C   UNL     1      -5.377   1.765 -31.416  1.00  0.00     0.067 A 
HETATM   27  C   UNL     1      -6.099   0.663 -31.900  1.00  0.00     0.084 A 
HETATM   28  C   UNL     1      -5.487  -0.297 -32.719  1.00  0.00    -0.028 A 
HETATM   29  C   UNL     1      -6.270  -1.442 -33.294  1.00  0.00     0.051 C 
HETATM   30  C   UNL     1      -4.131  -0.150 -33.022  1.00  0.00     0.012 A 
HETATM   31  C   UNL     1      -3.401   0.921 -32.501  1.00  0.00     0.030 A 
BRANCH  27  32
HETATM   32  O   UNL     1      -7.448   0.520 -31.652  1.00  0.00    -0.310 OA
BRANCH  32  33
HETATM   33  C   UNL     1      -8.351   1.055 -32.548  1.00  0.00     0.076 A 
HETATM   34  C   UNL     1      -9.617   0.458 -32.553  1.00  0.00     0.047 A 
HETATM   35  C   UNL     1     -10.569   0.962 -33.419  1.00  0.00    -0.020 A 
HETATM   36  C   UNL     1     -10.273   2.036 -34.254  1.00  0.00     0.041 A 
HETATM   37  C   UNL     1     -11.987   0.529 -33.647  1.00  0.00     0.144 A 
HETATM   38  N   UNL     1     -11.379   2.342 -35.031  1.00  0.00    -0.326 N 
HETATM   39  C   UNL     1      -9.045   2.660 -34.254  1.00  0.00     0.033 A 
HETATM   40  C   UNL     1     -12.444   1.497 -34.745  1.00  0.00     0.226 A 
HETATM   41  H   UNL     1     -11.433   3.073 -35.724  1.00  0.00     0.169 HD
HETATM   42  O   UNL     1     -13.542   1.529 -35.277  1.00  0.00    -0.273 OA
HETATM   43  C   UNL     1      -8.077   2.168 -33.372  1.00  0.00     0.039 A 
ENDBRANCH  32  33
ENDBRANCH  27  32
ENDBRANCH   2  25
TORSDOF 8
ENDMDL
MODEL 6
REMARK VINA RESULT:      -8.8      4.235      7.352
REMARK  8 active torsions:
REMARK  status: ('A' for Active; 'I' for Inactive)
REMARK    1  A    between atoms: C_2  and  N_3 
REMARK    2  A    between atoms: N_7  and  C_8 
REMARK    3  A    between atoms: C_8  and  C_9 
REMARK    4  A    between atoms: C_10  and  C_11 
REMARK    5  A    between atoms: C_16  and  C_17 
REMARK       I    between atoms: C_17  and  N_18 
REMARK    6  A    between atoms: N_18  and  C_19 
REMARK    7  A    between atoms: C_21  and  O_22 
REMARK    8  A    between atoms: O_22  and  C_23 
ROOT
HETATM    1  C   UNL     1      -6.532   2.033 -33.521  1.00  0.00     0.256 C 
HETATM    2  N   UNL     1      -7.713   2.205 -32.820  1.00  0.00    -0.323 N 
HETATM    3  O   UNL     1      -6.389   1.340 -34.523  1.00  0.00    -0.267 OA
HETATM    4  H   UNL     1      -7.710   2.801 -32.011  1.00  0.00     0.169 HD
ENDROOT
BRANCH   1   5
HETATM    5  C   UNL     1      -5.323   2.768 -33.008  1.00  0.00     0.033 A 
HETATM    6  C   UNL     1      -4.703   3.693 -33.868  1.00  0.00     0.034 A 
HETATM    7  C   UNL     1      -3.563   4.432 -33.483  1.00  0.00     0.056 A 
HETATM    8  C   UNL     1      -3.024   4.223 -32.195  1.00  0.00    -0.015 A 
HETATM    9  C   UNL     1      -3.652   3.305 -31.334  1.00  0.00     0.011 A 
HETATM   10  C   UNL     1      -4.780   2.583 -31.734  1.00  0.00     0.017 A 
BRANCH   7  11
HETATM   11  C   UNL     1      -2.944   5.375 -34.500  1.00  0.00     0.418 C 
HETATM   12  F   UNL     1      -3.011   6.690 -34.145  1.00  0.00    -0.166 F 
HETATM   13  F   UNL     1      -1.629   5.108 -34.723  1.00  0.00    -0.166 F 
HETATM   14  F   UNL     1      -3.551   5.308 -35.718  1.00  0.00    -0.166 F 
ENDBRANCH   7  11
BRANCH   8  15
HETATM   15  C   UNL     1      -1.769   4.922 -31.709  1.00  0.00     0.312 C 
BRANCH  15  16
HETATM   16  N   UNL     1      -1.941   6.379 -31.582  1.00  0.00     0.096 N 
HETATM   17  C   UNL     1      -0.715   7.155 -31.847  1.00  0.00     0.300 C 
HETATM   18  C   UNL     1       0.375   7.032 -30.764  1.00  0.00     0.265 C 
HETATM   19  N   UNL     1      -0.187   7.385 -29.392  1.00  0.00    -0.068 N 
HETATM   20  H   UNL     1      -0.447   8.380 -29.426  1.00  0.00     0.280 HD
HETATM   21  C   UNL     1      -1.478   6.620 -29.094  1.00  0.00     0.265 C 
HETATM   22  C   UNL     1      -2.482   6.747 -30.259  1.00  0.00     0.300 C 
BRANCH  19  23
HETATM   23  C   UNL     1       0.808   7.201 -28.267  1.00  0.00     0.230 C 
HETATM   24  C   UNL     1       1.456   8.516 -27.878  1.00  0.00     0.034 C 
ENDBRANCH  19  23
ENDBRANCH  15  16
ENDBRANCH   8  15
ENDBRANCH   1   5
BRANCH   2  25
HETATM   25  C   UNL     1      -8.987   1.683 -33.139  1.00  0.00     0.037 A 
HETATM   26  C   UNL     1      -9.908   2.310 -33.978  1.00  0.00     0.067 A 
HETATM   27  C   UNL     1     -11.184   1.755 -34.164  1.00  0.00     0.084 A 
HETATM   28  C   UNL     1     -11.531   0.532 -33.572  1.00  0.00    -0.028 A 
HETATM   29  C   UNL     1     -12.871  -0.100 -33.820  1.00  0.00     0.051 C 
HETATM   30  C   UNL     1     -10.589  -0.112 -32.765  1.00  0.00     0.012 A 
HETATM   31  C   UNL     1      -9.337   0.465 -32.542  1.00  0.00     0.030 A 
BRANCH  27  32
HETATM   32  O   UNL     1     -12.114   2.348 -34.991  1.00  0.00    -0.310 OA
BRANCH  32  33
HETATM   33  C   UNL     1     -12.629   3.579 -34.641  1.00  0.00     0.076 A 
HETATM   34  C   UNL     1     -12.608   4.549 -35.651  1.00  0.00     0.047 A 
HETATM   35  C   UNL     1     -13.126   5.797 -35.364  1.00  0.00    -0.020 A 
HETATM   36  C   UNL     1     -13.657   6.075 -34.107  1.00  0.00     0.041 A 
HETATM   37  C   UNL     1     -13.231   7.017 -36.230  1.00  0.00     0.144 A 
HETATM   38  N   UNL     1     -14.093   7.389 -34.065  1.00  0.00    -0.326 N 
HETATM   39  C   UNL     1     -13.714   5.135 -33.102  1.00  0.00     0.033 A 
HETATM   40  C   UNL     1     -13.877   8.030 -35.278  1.00  0.00     0.226 A 
HETATM   41  H   UNL     1     -14.513   7.849 -33.272  1.00  0.00     0.169 HD
HETATM   42  O   UNL     1     -14.156   9.191 -35.530  1.00  0.00    -0.273 OA
HETATM   43  C   UNL     1     -13.206   3.863 -33.384  1.00  0.00     0.039 A 
ENDBRANCH  32  33
ENDBRANCH  27  32
ENDBRANCH   2  25
TORSDOF 8
ENDMDL
MODEL 7
REMARK VINA RESULT:      -8.7      7.084     12.191
REMARK  8 active torsions:
REMARK  status: ('A' for Active; 'I' for Inactive)
REMARK    1  A    between atoms: C_2  and  N_3 
REMARK    2  A    between atoms: N_7  and  C_8 
REMARK    3  A    between atoms: C_8  and  C_9 
REMARK    4  A    between atoms: C_10  and  C_11 
REMARK    5  A    between atoms: C_16  and  C_17 
REMARK       I    between atoms: C_17  and  N_18 
REMARK    6  A    between atoms: N_18  and  C_19 
REMARK    7  A    between atoms: C_21  and  O_22 
REMARK    8  A    between atoms: O_22  and  C_23 
ROOT
HETATM    1  C   UNL     1     -11.735   3.395 -32.631  1.00  0.00     0.256 C 
HETATM    2  N   UNL     1     -12.621   3.345 -31.569  1.00  0.00    -0.323 N 
HETATM    3  O   UNL     1     -11.825   4.138 -33.603  1.00  0.00    -0.267 OA
HETATM    4  H   UNL     1     -12.444   2.693 -30.824  1.00  0.00     0.169 HD
ENDROOT
BRANCH   1   5
HETATM    5  C   UNL     1     -10.558   2.459 -32.580  1.00  0.00     0.033 A 
HETATM    6  C   UNL     1      -9.430   2.864 -31.843  1.00  0.00     0.034 A 
HETATM    7  C   UNL     1      -8.274   2.060 -31.734  1.00  0.00     0.056 A 
HETATM    8  C   UNL     1      -8.250   0.815 -32.399  1.00  0.00    -0.015 A 
HETATM    9  C   UNL     1      -9.384   0.408 -33.127  1.00  0.00     0.011 A 
HETATM   10  C   UNL     1     -10.518   1.220 -33.222  1.00  0.00     0.017 A 
BRANCH   7  11
HETATM   11  C   UNL     1      -7.093   2.605 -30.949  1.00  0.00     0.418 C 
HETATM   12  F   UNL     1      -6.703   1.809 -29.914  1.00  0.00    -0.166 F 
HETATM   13  F   UNL     1      -5.991   2.785 -31.727  1.00  0.00    -0.166 F 
HETATM   14  F   UNL     1      -7.353   3.817 -30.383  1.00  0.00    -0.166 F 
ENDBRANCH   7  11
BRANCH   8  15
HETATM   15  C   UNL     1      -7.036  -0.094 -32.393  1.00  0.00     0.312 C 
BRANCH  15  16
HETATM   16  N   UNL     1      -6.136   0.147 -33.533  1.00  0.00     0.096 N 
HETATM   17  C   UNL     1      -6.624  -0.401 -34.812  1.00  0.00     0.300 C 
HETATM   18  C   UNL     1      -6.590  -1.939 -34.911  1.00  0.00     0.265 C 
HETATM   19  N   UNL     1      -5.193  -2.468 -34.608  1.00  0.00    -0.068 N 
HETATM   20  H   UNL     1      -4.576  -2.119 -35.354  1.00  0.00     0.280 HD
HETATM   21  C   UNL     1      -4.642  -1.896 -33.300  1.00  0.00     0.265 C 
HETATM   22  C   UNL     1      -4.776  -0.360 -33.264  1.00  0.00     0.300 C 
BRANCH  19  23
HETATM   23  C   UNL     1      -5.108  -3.979 -34.601  1.00  0.00     0.230 C 
HETATM   24  C   UNL     1      -6.332  -4.606 -35.242  1.00  0.00     0.034 C 
ENDBRANCH  19  23
ENDBRANCH  15  16
ENDBRANCH   8  15
ENDBRANCH   1   5
BRANCH   2  25
HETATM   25  C   UNL     1     -13.753   4.162 -31.352  1.00  0.00     0.037 A 
HETATM   26  C   UNL     1     -13.769   5.283 -30.523  1.00  0.00     0.067 A 
HETATM   27  C   UNL     1     -14.968   5.981 -30.303  1.00  0.00     0.084 A 
HETATM   28  C   UNL     1     -16.148   5.612 -30.964  1.00  0.00    -0.028 A 
HETATM   29  C   UNL     1     -17.418   6.394 -30.784  1.00  0.00     0.051 C 
HETATM   30  C   UNL     1     -16.116   4.513 -31.827  1.00  0.00     0.012 A 
HETATM   31  C   UNL     1     -14.935   3.790 -32.008  1.00  0.00     0.030 A 
BRANCH  27  32
HETATM   32  O   UNL     1     -15.015   7.095 -29.493  1.00  0.00    -0.310 OA
BRANCH  32  33
HETATM   33  C   UNL     1     -14.579   6.990 -28.188  1.00  0.00     0.076 A 
HETATM   34  C   UNL     1     -13.497   7.812 -27.848  1.00  0.00     0.047 A 
HETATM   35  C   UNL     1     -13.027   7.761 -26.549  1.00  0.00    -0.020 A 
HETATM   36  C   UNL     1     -13.619   6.920 -25.610  1.00  0.00     0.041 A 
HETATM   37  C   UNL     1     -11.898   8.509 -25.906  1.00  0.00     0.144 A 
HETATM   38  N   UNL     1     -12.961   7.040 -24.397  1.00  0.00    -0.326 N 
HETATM   39  C   UNL     1     -14.699   6.119 -25.909  1.00  0.00     0.033 A 
HETATM   40  C   UNL     1     -11.921   7.957 -24.476  1.00  0.00     0.226 A 
HETATM   41  H   UNL     1     -13.183   6.538 -23.550  1.00  0.00     0.169 HD
HETATM   42  O   UNL     1     -11.167   8.260 -23.565  1.00  0.00    -0.273 OA
HETATM   43  C   UNL     1     -15.194   6.171 -27.216  1.00  0.00     0.039 A 
ENDBRANCH  32  33
ENDBRANCH  27  32
ENDBRANCH   2  25
TORSDOF 8
ENDMDL
MODEL 8
REMARK VINA RESULT:      -8.7      4.418     12.381
REMARK  8 active torsions:
REMARK  status: ('A' for Active; 'I' for Inactive)
REMARK    1  A    between atoms: C_2  and  N_3 
REMARK    2  A    between atoms: N_7  and  C_8 
REMARK    3  A    between atoms: C_8  and  C_9 
REMARK    4  A    between atoms: C_10  and  C_11 
REMARK    5  A    between atoms: C_16  and  C_17 
REMARK       I    between atoms: C_17  and  N_18 
REMARK    6  A    between atoms: N_18  and  C_19 
REMARK    7  A    between atoms: C_21  and  O_22 
REMARK    8  A    between atoms: O_22  and  C_23 
ROOT
HETATM    1  C   UNL     1      -4.652   3.025 -32.651  1.00  0.00     0.256 C 
HETATM    2  N   UNL     1      -4.307   4.358 -32.518  1.00  0.00    -0.323 N 
HETATM    3  O   UNL     1      -3.872   2.079 -32.638  1.00  0.00    -0.267 OA
HETATM    4  H   UNL     1      -5.036   5.050 -32.543  1.00  0.00     0.169 HD
ENDROOT
BRANCH   1   5
HETATM    5  C   UNL     1      -6.116   2.715 -32.821  1.00  0.00     0.033 A 
HETATM    6  C   UNL     1      -7.002   3.178 -31.831  1.00  0.00     0.034 A 
HETATM    7  C   UNL     1      -8.393   2.938 -31.895  1.00  0.00     0.056 A 
HETATM    8  C   UNL     1      -8.903   2.199 -32.984  1.00  0.00    -0.015 A 
HETATM    9  C   UNL     1      -8.015   1.746 -33.977  1.00  0.00     0.011 A 
HETATM   10  C   UNL     1      -6.641   1.994 -33.895  1.00  0.00     0.017 A 
BRANCH   7  11
HETATM   11  C   UNL     1      -9.260   3.445 -30.756  1.00  0.00     0.418 C 
HETATM   12  F   UNL     1     -10.095   4.463 -31.108  1.00  0.00    -0.166 F 
HETATM   13  F   UNL     1     -10.050   2.470 -30.231  1.00  0.00    -0.166 F 
HETATM   14  F   UNL     1      -8.529   3.935 -29.715  1.00  0.00    -0.166 F 
ENDBRANCH   7  11
BRANCH   8  15
HETATM   15  C   UNL     1     -10.370   1.839 -33.114  1.00  0.00     0.312 C 
BRANCH  15  16
HETATM   16  N   UNL     1     -11.100   2.737 -34.024  1.00  0.00     0.096 N 
HETATM   17  C   UNL     1     -12.002   3.684 -33.341  1.00  0.00     0.300 C 
HETATM   18  C   UNL     1     -13.257   3.044 -32.714  1.00  0.00     0.265 C 
HETATM   19  N   UNL     1     -14.027   2.237 -33.754  1.00  0.00    -0.068 N 
HETATM   20  H   UNL     1     -14.367   2.909 -34.456  1.00  0.00     0.280 HD
HETATM   21  C   UNL     1     -13.116   1.264 -34.505  1.00  0.00     0.265 C 
HETATM   22  C   UNL     1     -11.858   1.979 -35.039  1.00  0.00     0.300 C 
BRANCH  19  23
HETATM   23  C   UNL     1     -15.225   1.509 -33.186  1.00  0.00     0.230 C 
HETATM   24  C   UNL     1     -16.044   2.409 -32.281  1.00  0.00     0.034 C 
ENDBRANCH  19  23
ENDBRANCH  15  16
ENDBRANCH   8  15
ENDBRANCH   1   5
BRANCH   2  25
HETATM   25  C   UNL     1      -3.021   4.895 -32.280  1.00  0.00     0.037 A 
HETATM   26  C   UNL     1      -2.320   4.759 -31.083  1.00  0.00     0.067 A 
HETATM   27  C   UNL     1      -1.084   5.404 -30.913  1.00  0.00     0.084 A 
HETATM   28  C   UNL     1      -0.501   6.133 -31.959  1.00  0.00    -0.028 A 
HETATM   29  C   UNL     1       0.850   6.770 -31.805  1.00  0.00     0.051 C 
HETATM   30  C   UNL     1      -1.190   6.231 -33.171  1.00  0.00     0.012 A 
HETATM   31  C   UNL     1      -2.442   5.629 -33.324  1.00  0.00     0.030 A 
BRANCH  27  32
HETATM   32  O   UNL     1      -0.365   5.285 -29.743  1.00  0.00    -0.310 OA
BRANCH  32  33
HETATM   33  C   UNL     1      -0.392   6.323 -28.834  1.00  0.00     0.076 A 
HETATM   34  C   UNL     1       0.761   6.469 -28.053  1.00  0.00     0.047 A 
HETATM   35  C   UNL     1       0.797   7.503 -27.136  1.00  0.00    -0.020 A 
HETATM   36  C   UNL     1      -0.282   8.372 -27.001  1.00  0.00     0.041 A 
HETATM   37  C   UNL     1       1.877   7.896 -26.173  1.00  0.00     0.144 A 
HETATM   38  N   UNL     1      -0.009   9.304 -26.013  1.00  0.00    -0.326 N 
HETATM   39  C   UNL     1      -1.419   8.269 -27.772  1.00  0.00     0.033 A 
HETATM   40  C   UNL     1       1.248   9.098 -25.460  1.00  0.00     0.226 A 
HETATM   41  H   UNL     1      -0.624  10.045 -25.710  1.00  0.00     0.169 HD
HETATM   42  O   UNL     1       1.752   9.761 -24.567  1.00  0.00    -0.273 OA
HETATM   43  C   UNL     1      -1.463   7.236 -28.714  1.00  0.00     0.039 A 
ENDBRANCH  32  33
ENDBRANCH  27  32
ENDBRANCH   2  25
TORSDOF 8
ENDMDL
MODEL 9
REMARK VINA RESULT:      -8.6      2.229      4.707
REMARK  8 active torsions:
REMARK  status: ('A' for Active; 'I' for Inactive)
REMARK    1  A    between atoms: C_2  and  N_3 
REMARK    2  A    between atoms: N_7  and  C_8 
REMARK    3  A    between atoms: C_8  and  C_9 
REMARK    4  A    between atoms: C_10  and  C_11 
REMARK    5  A    between atoms: C_16  and  C_17 
REMARK       I    between atoms: C_17  and  N_18 
REMARK    6  A    between atoms: N_18  and  C_19 
REMARK    7  A    between atoms: C_21  and  O_22 
REMARK    8  A    between atoms: O_22  and  C_23 
ROOT
HETATM    1  C   UNL     1      -4.112   4.480 -31.986  1.00  0.00     0.256 C 
HETATM    2  N   UNL     1      -4.217   3.237 -31.387  1.00  0.00    -0.323 N 
HETATM    3  O   UNL     1      -4.571   4.788 -33.080  1.00  0.00    -0.267 OA
HETATM    4  H   UNL     1      -3.800   3.101 -30.482  1.00  0.00     0.169 HD
ENDROOT
BRANCH   1   5
HETATM    5  C   UNL     1      -3.375   5.545 -31.218  1.00  0.00     0.033 A 
HETATM    6  C   UNL     1      -1.970   5.472 -31.179  1.00  0.00     0.034 A 
HETATM    7  C   UNL     1      -1.186   6.418 -30.485  1.00  0.00     0.056 A 
HETATM    8  C   UNL     1      -1.839   7.465 -29.798  1.00  0.00    -0.015 A 
HETATM    9  C   UNL     1      -3.243   7.541 -29.847  1.00  0.00     0.011 A 
HETATM   10  C   UNL     1      -4.001   6.593 -30.540  1.00  0.00     0.017 A 
BRANCH   7  11
HETATM   11  C   UNL     1       0.321   6.228 -30.470  1.00  0.00     0.418 C 
HETATM   12  F   UNL     1       1.016   7.281 -30.987  1.00  0.00    -0.166 F 
HETATM   13  F   UNL     1       0.807   6.031 -29.215  1.00  0.00    -0.166 F 
HETATM   14  F   UNL     1       0.722   5.150 -31.200  1.00  0.00    -0.166 F 
ENDBRANCH   7  11
BRANCH   8  15
HETATM   15  C   UNL     1      -1.092   8.497 -28.976  1.00  0.00     0.312 C 
BRANCH  15  16
HETATM   16  N   UNL     1      -1.832   8.914 -27.773  1.00  0.00     0.096 N 
HETATM   17  C   UNL     1      -1.570  10.304 -27.356  1.00  0.00     0.300 C 
HETATM   18  C   UNL     1      -0.166  10.549 -26.768  1.00  0.00     0.265 C 
HETATM   19  N   UNL     1       0.109   9.591 -25.614  1.00  0.00    -0.068 N 
HETATM   20  H   UNL     1      -0.560   9.826 -24.868  1.00  0.00     0.280 HD
HETATM   21  C   UNL     1      -0.181   8.139 -26.001  1.00  0.00     0.265 C 
HETATM   22  C   UNL     1      -1.579   8.002 -26.640  1.00  0.00     0.300 C 
BRANCH  19  23
HETATM   23  C   UNL     1       1.505   9.717 -25.045  1.00  0.00     0.230 C 
HETATM   24  C   UNL     1       2.400   8.585 -25.513  1.00  0.00     0.034 C 
ENDBRANCH  19  23
ENDBRANCH  15  16
ENDBRANCH   8  15
ENDBRANCH   1   5
BRANCH   2  25
HETATM   25  C   UNL     1      -4.913   2.105 -31.869  1.00  0.00     0.037 A 
HETATM   26  C   UNL     1      -6.252   1.828 -31.596  1.00  0.00     0.067 A 
HETATM   27  C   UNL     1      -6.831   0.632 -32.048  1.00  0.00     0.084 A 
HETATM   28  C   UNL     1      -6.101  -0.269 -32.838  1.00  0.00    -0.028 A 
HETATM   29  C   UNL     1      -6.734  -1.518 -33.380  1.00  0.00     0.051 C 
HETATM   30  C   UNL     1      -4.772   0.035 -33.144  1.00  0.00     0.012 A 
HETATM   31  C   UNL     1      -4.182   1.203 -32.653  1.00  0.00     0.030 A 
BRANCH  27  32
HETATM   32  O   UNL     1      -8.153   0.331 -31.798  1.00  0.00    -0.310 OA
BRANCH  32  33
HETATM   33  C   UNL     1      -9.135   1.049 -32.449  1.00  0.00     0.076 A 
HETATM   34  C   UNL     1      -9.604   2.179 -31.768  1.00  0.00     0.047 A 
HETATM   35  C   UNL     1     -10.578   2.947 -32.378  1.00  0.00    -0.020 A 
HETATM   36  C   UNL     1     -11.069   2.605 -33.636  1.00  0.00     0.041 A 
HETATM   37  C   UNL     1     -11.265   4.189 -31.896  1.00  0.00     0.144 A 
HETATM   38  N   UNL     1     -12.040   3.515 -34.020  1.00  0.00    -0.326 N 
HETATM   39  C   UNL     1     -10.609   1.514 -34.340  1.00  0.00     0.033 A 
HETATM   40  C   UNL     1     -12.229   4.490 -33.049  1.00  0.00     0.226 A 
HETATM   41  H   UNL     1     -12.561   3.497 -34.884  1.00  0.00     0.169 HD
HETATM   42  O   UNL     1     -13.023   5.414 -33.113  1.00  0.00    -0.273 OA
HETATM   43  C   UNL     1      -9.614   0.737 -33.740  1.00  0.00     0.039 A 
ENDBRANCH  32  33
ENDBRANCH  27  32
ENDBRANCH   2  25
TORSDOF 8
ENDMDL
MODEL 10
REMARK VINA RESULT:      -8.6      3.869     12.130
REMARK  8 active torsions:
REMARK  status: ('A' for Active; 'I' for Inactive)
REMARK    1  A    between atoms: C_2  and  N_3 
REMARK    2  A    between atoms: N_7  and  C_8 
REMARK    3  A    between atoms: C_8  and  C_9 
REMARK    4  A    between atoms: C_10  and  C_11 
REMARK    5  A    between atoms: C_16  and  C_17 
REMARK       I    between atoms: C_17  and  N_18 
REMARK    6  A    between atoms: N_18  and  C_19 
REMARK    7  A    between atoms: C_21  and  O_22 
REMARK    8  A    between atoms: O_22  and  C_23 
ROOT
HETATM    1  C   UNL     1      -2.307   5.894 -31.317  1.00  0.00     0.256 C 
HETATM    2  N   UNL     1      -1.991   5.854 -29.970  1.00  0.00    -0.323 N 
HETATM    3  O   UNL     1      -1.951   6.759 -32.110  1.00  0.00    -0.267 OA
HETATM    4  H   UNL     1      -2.339   5.091 -29.416  1.00  0.00     0.169 HD
ENDROOT
BRANCH   1   5
HETATM    5  C   UNL     1      -3.155   4.770 -31.850  1.00  0.00     0.033 A 
HETATM    6  C   UNL     1      -4.526   4.778 -31.535  1.00  0.00     0.034 A 
HETATM    7  C   UNL     1      -5.408   3.770 -31.983  1.00  0.00     0.056 A 
HETATM    8  C   UNL     1      -4.887   2.714 -32.763  1.00  0.00    -0.015 A 
HETATM    9  C   UNL     1      -3.518   2.714 -33.084  1.00  0.00     0.011 A 
HETATM   10  C   UNL     1      -2.662   3.722 -32.630  1.00  0.00     0.017 A 
BRANCH   7  11
HETATM   11  C   UNL     1      -6.863   3.847 -31.554  1.00  0.00     0.418 C 
HETATM   12  F   UNL     1      -7.199   5.023 -30.953  1.00  0.00    -0.166 F 
HETATM   13  F   UNL     1      -7.720   3.696 -32.600  1.00  0.00    -0.166 F 
HETATM   14  F   UNL     1      -7.198   2.882 -30.653  1.00  0.00    -0.166 F 
ENDBRANCH   7  11
BRANCH   8  15
HETATM   15  C   UNL     1      -5.738   1.554 -33.242  1.00  0.00     0.312 C 
BRANCH  15  16
HETATM   16  N   UNL     1      -5.801   0.451 -32.269  1.00  0.00     0.096 N 
HETATM   17  C   UNL     1      -4.602  -0.408 -32.254  1.00  0.00     0.300 C 
HETATM   18  C   UNL     1      -4.435  -1.307 -33.496  1.00  0.00     0.265 C 
HETATM   19  N   UNL     1      -5.686  -2.148 -33.724  1.00  0.00    -0.068 N 
HETATM   20  H   UNL     1      -5.766  -2.784 -32.919  1.00  0.00     0.280 HD
HETATM   21  C   UNL     1      -6.954  -1.293 -33.716  1.00  0.00     0.265 C 
HETATM   22  C   UNL     1      -7.003  -0.381 -32.472  1.00  0.00     0.300 C 
BRANCH  19  23
HETATM   23  C   UNL     1      -5.625  -2.991 -34.979  1.00  0.00     0.230 C 
HETATM   24  C   UNL     1      -6.685  -4.075 -34.972  1.00  0.00     0.034 C 
ENDBRANCH  19  23
ENDBRANCH  15  16
ENDBRANCH   8  15
ENDBRANCH   1   5
BRANCH   2  25
HETATM   25  C   UNL     1      -1.159   6.745 -29.254  1.00  0.00     0.037 A 
HETATM   26  C   UNL     1      -1.578   7.969 -28.734  1.00  0.00     0.067 A 
HETATM   27  C   UNL     1      -0.655   8.825 -28.113  1.00  0.00     0.084 A 
HETATM   28  C   UNL     1       0.682   8.439 -27.940  1.00  0.00    -0.028 A 
HETATM   29  C   UNL     1       1.659   9.322 -27.218  1.00  0.00     0.051 C 
HETATM   30  C   UNL     1       1.086   7.192 -28.425  1.00  0.00     0.012 A 
HETATM   31  C   UNL     1       0.178   6.362 -29.086  1.00  0.00     0.030 A 
BRANCH  27  32
HETATM   32  O   UNL     1      -1.040  10.039 -27.586  1.00  0.00    -0.310 OA
BRANCH  32  33
HETATM   33  C   UNL     1      -2.029  10.066 -26.625  1.00  0.00     0.076 A 
HETATM   34  C   UNL     1      -3.237  10.653 -27.021  1.00  0.00     0.047 A 
HETATM   35  C   UNL     1      -4.271  10.694 -26.105  1.00  0.00    -0.020 A 
HETATM   36  C   UNL     1      -4.111  10.161 -24.829  1.00  0.00     0.041 A 
HETATM   37  C   UNL     1      -5.654  11.256 -26.241  1.00  0.00     0.144 A 
HETATM   38  N   UNL     1      -5.276  10.338 -24.100  1.00  0.00    -0.326 N 
HETATM   39  C   UNL     1      -2.944   9.555 -24.418  1.00  0.00     0.033 A 
HETATM   40  C   UNL     1      -6.247  10.985 -24.854  1.00  0.00     0.226 A 
HETATM   41  H   UNL     1      -5.428  10.050 -23.146  1.00  0.00     0.169 HD
HETATM   42  O   UNL     1      -7.369  11.278 -24.471  1.00  0.00    -0.273 OA
HETATM   43  C   UNL     1      -1.895   9.495 -25.341  1.00  0.00     0.039 A 
ENDBRANCH  32  33
ENDBRANCH  27  32
ENDBRANCH   2  25
TORSDOF 8
ENDMDL
