MODEL 1
REMARK VINA RESULT:      -9.0      0.000      0.000
REMARK  6 active torsions:
REMARK  status: ('A' for Active; 'I' for Inactive)
REMARK    1  A    between atoms: C_4  and  C_5 
REMARK    2  A    between atoms: C_6  and  C_7 
REMARK    3  A    between atoms: C_7  and  C_8 
REMARK    4  A    between atoms: C_8  and  C_9 
REMARK       I    between atoms: C_9  and  N_10 
REMARK    5  A    between atoms: N_10  and  C_11 
REMARK    6  A    between atoms: C_18  and  C_19 
REMARK       I    between atoms: C_19  and  N_20 
ROOT
HETATM    1  C   UNL     1      -9.233   1.794 -33.109  1.00  0.00     0.035 A 
HETATM    2  C   UNL     1     -10.453   1.108 -33.193  1.00  0.00     0.046 A 
HETATM    3  C   UNL     1     -11.479   1.612 -34.024  1.00  0.00     0.030 A 
HETATM    4  C   UNL     1     -11.256   2.790 -34.726  1.00  0.00     0.063 A 
HETATM    5  N   UNL     1     -12.411   3.025 -35.418  1.00  0.00    -0.277 N 
HETATM    6  H   UNL     1     -12.609   3.805 -36.034  1.00  0.00     0.189 HD
HETATM    7  N   UNL     1     -13.363   2.096 -35.244  1.00  0.00    -0.168 NA
HETATM    8  C   UNL     1     -12.801   1.212 -34.386  1.00  0.00     0.156 A 
HETATM    9  C   UNL     1     -10.055   3.499 -34.664  1.00  0.00     0.034 A 
HETATM   10  C   UNL     1      -9.048   2.970 -33.848  1.00  0.00     0.032 A 
ENDROOT
BRANCH   1  11
HETATM   11  N   UNL     1      -8.140   1.361 -32.326  1.00  0.00    -0.327 N 
HETATM   12  C   UNL     1      -7.678   1.911 -31.145  1.00  0.00     0.222 C 
HETATM   13  O   UNL     1      -8.128   2.904 -30.582  1.00  0.00    -0.273 OA
HETATM   14  H   UNL     1      -7.619   0.581 -32.700  1.00  0.00     0.169 HD
BRANCH  12  15
HETATM   15  C   UNL     1      -6.535   1.131 -30.511  1.00  0.00     0.107 C 
BRANCH  15  16
HETATM   16  C   UNL     1      -5.408   0.730 -31.464  1.00  0.00     0.036 C 
BRANCH  16  17
HETATM   17  C   UNL     1      -5.458  -0.627 -32.113  1.00  0.00    -0.025 C 
HETATM   18  C   UNL     1      -5.366  -0.910 -33.422  1.00  0.00     0.007 C 
BRANCH  18  19
HETATM   19  C   UNL     1      -5.443  -2.276 -33.961  1.00  0.00    -0.036 A 
HETATM   20  C   UNL     1      -4.330  -3.117 -33.833  1.00  0.00     0.011 A 
HETATM   21  C   UNL     1      -4.372  -4.429 -34.311  1.00  0.00     0.001 A 
HETATM   22  C   UNL     1      -5.531  -4.916 -34.912  1.00  0.00     0.000 A 
HETATM   23  C   UNL     1      -6.650  -4.095 -35.029  1.00  0.00     0.001 A 
HETATM   24  C   UNL     1      -6.608  -2.783 -34.551  1.00  0.00     0.011 A 
ENDBRANCH  18  19
ENDBRANCH  16  17
ENDBRANCH  15  16
ENDBRANCH  12  15
ENDBRANCH   1  11
BRANCH   8  25
HETATM   25  C   UNL     1     -13.530   0.014 -33.948  1.00  0.00     0.270 C 
HETATM   26  N   UNL     1     -14.864   0.030 -34.251  1.00  0.00    -0.365 N 
HETATM   27  H   UNL     1     -15.239   0.830 -34.747  1.00  0.00     0.159 HD
HETATM   28  H   UNL     1     -15.442  -0.758 -34.005  1.00  0.00     0.159 HD
HETATM   29  O   UNL     1     -13.024  -0.940 -33.367  1.00  0.00    -0.266 OA
ENDBRANCH   8  25
TORSDOF 6
ENDMDL
MODEL 2
REMARK VINA RESULT:      -8.9      5.410      8.578
REMARK  6 active torsions:
REMARK  status: ('A' for Active; 'I' for Inactive)
REMARK    1  A    between atoms: C_4  and  C_5 
REMARK    2  A    between atoms: C_6  and  C_7 
REMARK    3  A    between atoms: C_7  and  C_8 
REMARK    4  A    between atoms: C_8  and  C_9 
REMARK       I    between atoms: C_9  and  N_10 
REMARK    5  A    between atoms: N_10  and  C_11 
REMARK    6  A    between atoms: C_18  and  C_19 
REMARK       I    between atoms: C_19  and  N_20 
ROOT
HETATM    1  C   UNL     1      -3.329   4.208 -32.717  1.00  0.00     0.035 A 
HETATM    2  C   UNL     1      -2.313   4.275 -31.753  1.00  0.00     0.046 A 
HETATM    3  C   UNL     1      -1.385   5.340 -31.791  1.00  0.00     0.030 A 
HETATM    4  C   UNL     1      -1.496   6.290 -32.799  1.00  0.00     0.063 A 
HETATM    5  N   UNL     1      -0.472   7.169 -32.584  1.00  0.00    -0.277 N 
HETATM    6  H   UNL     1      -0.242   7.989 -33.134  1.00  0.00     0.189 HD
HETATM    7  N   UNL     1       0.287   6.889 -31.514  1.00  0.00    -0.168 NA
HETATM    8  C   UNL     1      -0.267   5.762 -31.009  1.00  0.00     0.156 A 
HETATM    9  C   UNL     1      -2.492   6.253 -33.776  1.00  0.00     0.034 A 
HETATM   10  C   UNL     1      -3.409   5.198 -33.707  1.00  0.00     0.032 A 
ENDROOT
BRANCH   1  11
HETATM   11  N   UNL     1      -4.316   3.198 -32.752  1.00  0.00    -0.327 N 
HETATM   12  C   UNL     1      -5.654   3.316 -32.428  1.00  0.00     0.222 C 
HETATM   13  O   UNL     1      -6.217   4.326 -32.019  1.00  0.00    -0.273 OA
HETATM   14  H   UNL     1      -3.987   2.278 -33.009  1.00  0.00     0.169 HD
BRANCH  12  15
HETATM   15  C   UNL     1      -6.458   2.046 -32.674  1.00  0.00     0.107 C 
BRANCH  15  16
HETATM   16  C   UNL     1      -6.529   1.588 -34.131  1.00  0.00     0.036 C 
BRANCH  16  17
HETATM   17  C   UNL     1      -6.417   0.118 -34.433  1.00  0.00    -0.025 C 
HETATM   18  C   UNL     1      -5.694  -0.800 -33.770  1.00  0.00     0.007 C 
BRANCH  18  19
HETATM   19  C   UNL     1      -5.637  -2.217 -34.155  1.00  0.00    -0.036 A 
HETATM   20  C   UNL     1      -4.447  -2.927 -33.949  1.00  0.00     0.011 A 
HETATM   21  C   UNL     1      -4.361  -4.281 -34.281  1.00  0.00     0.001 A 
HETATM   22  C   UNL     1      -5.467  -4.942 -34.812  1.00  0.00     0.000 A 
HETATM   23  C   UNL     1      -6.662  -4.251 -35.005  1.00  0.00     0.001 A 
HETATM   24  C   UNL     1      -6.748  -2.896 -34.674  1.00  0.00     0.011 A 
ENDBRANCH  18  19
ENDBRANCH  16  17
ENDBRANCH  15  16
ENDBRANCH  12  15
ENDBRANCH   1  11
BRANCH   8  25
HETATM   25  C   UNL     1       0.273   5.127 -29.799  1.00  0.00     0.270 C 
HETATM   26  N   UNL     1      -0.178   5.680 -28.631  1.00  0.00    -0.365 N 
HETATM   27  H   UNL     1      -0.836   6.449 -28.681  1.00  0.00     0.159 HD
HETATM   28  H   UNL     1       0.125   5.299 -27.749  1.00  0.00     0.159 HD
HETATM   29  O   UNL     1       1.054   4.182 -29.792  1.00  0.00    -0.266 OA
ENDBRANCH   8  25
TORSDOF 6
ENDMDL
MODEL 3
REMARK VINA RESULT:      -8.6      5.218      8.146
REMARK  6 active torsions:
REMARK  status: ('A' for Active; 'I' for Inactive)
REMARK    1  A    between atoms: C_4  and  C_5 
REMARK    2  A    between atoms: C_6  and  C_7 
REMARK    3  A    between atoms: C_7  and  C_8 
REMARK    4  A    between atoms: C_8  and  C_9 
REMARK       I    between atoms: C_9  and  N_10 
REMARK    5  A    between atoms: N_10  and  C_11 
REMARK    6  A    between atoms: C_18  and  C_19 
REMARK       I    between atoms: C_19  and  N_20 
ROOT
HETATM    1  C   UNL     1      -3.653   4.174 -31.542  1.00  0.00     0.035 A 
HETATM    2  C   UNL     1      -3.246   5.488 -31.271  1.00  0.00     0.046 A 
HETATM    3  C   UNL     1      -2.407   6.161 -32.188  1.00  0.00     0.030 A 
HETATM    4  C   UNL     1      -1.993   5.492 -33.333  1.00  0.00     0.063 A 
HETATM    5  N   UNL     1      -1.199   6.379 -34.005  1.00  0.00    -0.277 N 
HETATM    6  H   UNL     1      -0.717   6.227 -34.883  1.00  0.00     0.189 HD
HETATM    7  N   UNL     1      -1.072   7.575 -33.409  1.00  0.00    -0.168 NA
HETATM    8  C   UNL     1      -1.817   7.458 -32.285  1.00  0.00     0.156 A 
HETATM    9  C   UNL     1      -2.377   4.184 -33.634  1.00  0.00     0.034 A 
HETATM   10  C   UNL     1      -3.221   3.545 -32.718  1.00  0.00     0.032 A 
ENDROOT
BRANCH   1  11
HETATM   11  N   UNL     1      -4.506   3.425 -30.701  1.00  0.00    -0.327 N 
HETATM   12  C   UNL     1      -5.839   3.122 -30.907  1.00  0.00     0.222 C 
HETATM   13  O   UNL     1      -6.528   3.484 -31.855  1.00  0.00    -0.273 OA
HETATM   14  H   UNL     1      -4.094   3.110 -29.834  1.00  0.00     0.169 HD
BRANCH  12  15
HETATM   15  C   UNL     1      -6.430   2.208 -29.843  1.00  0.00     0.107 C 
BRANCH  15  16
HETATM   16  C   UNL     1      -5.802   0.816 -29.752  1.00  0.00     0.036 C 
BRANCH  16  17
HETATM   17  C   UNL     1      -5.950  -0.122 -30.920  1.00  0.00    -0.025 C 
HETATM   18  C   UNL     1      -5.090  -0.304 -31.935  1.00  0.00     0.007 C 
BRANCH  18  19
HETATM   19  C   UNL     1      -5.335  -1.239 -33.043  1.00  0.00    -0.036 A 
HETATM   20  C   UNL     1      -4.285  -2.054 -33.484  1.00  0.00     0.011 A 
HETATM   21  C   UNL     1      -4.484  -2.972 -34.519  1.00  0.00     0.001 A 
HETATM   22  C   UNL     1      -5.738  -3.090 -35.116  1.00  0.00     0.000 A 
HETATM   23  C   UNL     1      -6.794  -2.296 -34.674  1.00  0.00     0.001 A 
HETATM   24  C   UNL     1      -6.595  -1.378 -33.639  1.00  0.00     0.011 A 
ENDBRANCH  18  19
ENDBRANCH  16  17
ENDBRANCH  15  16
ENDBRANCH  12  15
ENDBRANCH   1  11
BRANCH   8  25
HETATM   25  C   UNL     1      -1.954   8.579 -31.346  1.00  0.00     0.270 C 
HETATM   26  N   UNL     1      -1.613   8.273 -30.057  1.00  0.00    -0.365 N 
HETATM   27  H   UNL     1      -1.291   7.334 -29.851  1.00  0.00     0.159 HD
HETATM   28  H   UNL     1      -1.658   8.985 -29.346  1.00  0.00     0.159 HD
HETATM   29  O   UNL     1      -2.329   9.707 -31.651  1.00  0.00    -0.266 OA
ENDBRANCH   8  25
TORSDOF 6
ENDMDL
MODEL 4
REMARK VINA RESULT:      -8.4      4.111      7.367
REMARK  6 active torsions:
REMARK  status: ('A' for Active; 'I' for Inactive)
REMARK    1  A    between atoms: C_4  and  C_5 
REMARK    2  A    between atoms: C_6  and  C_7 
REMARK    3  A    between atoms: C_7  and  C_8 
REMARK    4  A    between atoms: C_8  and  C_9 
REMARK       I    between atoms: C_9  and  N_10 
REMARK    5  A    between atoms: N_10  and  C_11 
REMARK    6  A    between atoms: C_18  and  C_19 
REMARK       I    between atoms: C_19  and  N_20 
ROOT
HETATM    1  C   UNL     1      -5.476   3.048 -33.020  1.00  0.00     0.035 A 
HETATM    2  C   UNL     1      -4.512   3.887 -33.598  1.00  0.00     0.046 A 
HETATM    3  C   UNL     1      -3.319   4.166 -32.894  1.00  0.00     0.030 A 
HETATM    4  C   UNL     1      -3.138   3.611 -31.634  1.00  0.00     0.063 A 
HETATM    5  N   UNL     1      -1.921   4.063 -31.209  1.00  0.00    -0.277 N 
HETATM    6  H   UNL     1      -1.466   3.862 -30.325  1.00  0.00     0.189 HD
HETATM    7  N   UNL     1      -1.281   4.850 -32.087  1.00  0.00    -0.168 NA
HETATM    8  C   UNL     1      -2.131   4.921 -33.138  1.00  0.00     0.156 A 
HETATM    9  C   UNL     1      -4.076   2.773 -31.028  1.00  0.00     0.034 A 
HETATM   10  C   UNL     1      -5.242   2.499 -31.752  1.00  0.00     0.032 A 
ENDROOT
BRANCH   1  11
HETATM   11  N   UNL     1      -6.688   2.691 -33.650  1.00  0.00    -0.327 N 
HETATM   12  C   UNL     1      -7.968   2.804 -33.141  1.00  0.00     0.222 C 
HETATM   13  O   UNL     1      -8.272   3.212 -32.024  1.00  0.00    -0.273 OA
HETATM   14  H   UNL     1      -6.596   2.271 -34.564  1.00  0.00     0.169 HD
BRANCH  12  15
HETATM   15  C   UNL     1      -9.058   2.417 -34.131  1.00  0.00     0.107 C 
BRANCH  15  16
HETATM   16  C   UNL     1      -9.362   0.921 -34.218  1.00  0.00     0.036 C 
BRANCH  16  17
HETATM   17  C   UNL     1      -8.239  -0.059 -34.007  1.00  0.00    -0.025 C 
HETATM   18  C   UNL     1      -7.441  -0.601 -34.941  1.00  0.00     0.007 C 
BRANCH  18  19
HETATM   19  C   UNL     1      -6.376  -1.567 -34.633  1.00  0.00    -0.036 A 
HETATM   20  C   UNL     1      -5.298  -1.154 -33.839  1.00  0.00     0.011 A 
HETATM   21  C   UNL     1      -4.278  -2.048 -33.505  1.00  0.00     0.001 A 
HETATM   22  C   UNL     1      -4.331  -3.367 -33.953  1.00  0.00     0.000 A 
HETATM   23  C   UNL     1      -5.408  -3.794 -34.728  1.00  0.00     0.001 A 
HETATM   24  C   UNL     1      -6.428  -2.899 -35.062  1.00  0.00     0.011 A 
ENDBRANCH  18  19
ENDBRANCH  16  17
ENDBRANCH  15  16
ENDBRANCH  12  15
ENDBRANCH   1  11
BRANCH   8  25
HETATM   25  C   UNL     1      -1.787   5.691 -34.340  1.00  0.00     0.270 C 
HETATM   26  N   UNL     1      -2.132   7.014 -34.273  1.00  0.00    -0.365 N 
HETATM   27  H   UNL     1      -2.571   7.358 -33.427  1.00  0.00     0.159 HD
HETATM   28  H   UNL     1      -1.919   7.626 -35.045  1.00  0.00     0.159 HD
HETATM   29  O   UNL     1      -1.234   5.231 -35.333  1.00  0.00    -0.266 OA
ENDBRANCH   8  25
TORSDOF 6
ENDMDL
MODEL 5
REMARK VINA RESULT:      -8.3      5.004      7.606
REMARK  6 active torsions:
REMARK  status: ('A' for Active; 'I' for Inactive)
REMARK    1  A    between atoms: C_4  and  C_5 
REMARK    2  A    between atoms: C_6  and  C_7 
REMARK    3  A    between atoms: C_7  and  C_8 
REMARK    4  A    between atoms: C_8  and  C_9 
REMARK       I    between atoms: C_9  and  N_10 
REMARK    5  A    between atoms: N_10  and  C_11 
REMARK    6  A    between atoms: C_18  and  C_19 
REMARK       I    between atoms: C_19  and  N_20 
ROOT
HETATM    1  C   UNL     1      -4.959   4.706 -33.711  1.00  0.00     0.035 A 
HETATM    2  C   UNL     1      -4.553   5.448 -32.593  1.00  0.00     0.046 A 
HETATM    3  C   UNL     1      -3.427   6.296 -32.691  1.00  0.00     0.030 A 
HETATM    4  C   UNL     1      -2.739   6.360 -33.896  1.00  0.00     0.063 A 
HETATM    5  N   UNL     1      -1.712   7.237 -33.682  1.00  0.00    -0.277 N 
HETATM    6  H   UNL     1      -1.001   7.522 -34.345  1.00  0.00     0.189 HD
HETATM    7  N   UNL     1      -1.680   7.766 -32.449  1.00  0.00    -0.168 NA
HETATM    8  C   UNL     1      -2.736   7.196 -31.824  1.00  0.00     0.156 A 
HETATM    9  C   UNL     1      -3.114   5.635 -35.028  1.00  0.00     0.034 A 
HETATM   10  C   UNL     1      -4.242   4.815 -34.910  1.00  0.00     0.032 A 
ENDROOT
BRANCH   1  11
HETATM   11  N   UNL     1      -6.082   3.849 -33.722  1.00  0.00    -0.327 N 
HETATM   12  C   UNL     1      -6.158   2.554 -33.245  1.00  0.00     0.222 C 
HETATM   13  O   UNL     1      -5.240   1.906 -32.752  1.00  0.00    -0.273 OA
HETATM   14  H   UNL     1      -6.910   4.222 -34.164  1.00  0.00     0.169 HD
BRANCH  12  15
HETATM   15  C   UNL     1      -7.554   1.953 -33.325  1.00  0.00     0.107 C 
BRANCH  15  16
HETATM   16  C   UNL     1      -7.813   1.056 -34.536  1.00  0.00     0.036 C 
BRANCH  16  17
HETATM   17  C   UNL     1      -7.359  -0.378 -34.485  1.00  0.00    -0.025 C 
HETATM   18  C   UNL     1      -6.117  -0.849 -34.683  1.00  0.00     0.007 C 
BRANCH  18  19
HETATM   19  C   UNL     1      -5.776  -2.278 -34.626  1.00  0.00    -0.036 A 
HETATM   20  C   UNL     1      -4.486  -2.649 -34.225  1.00  0.00     0.011 A 
HETATM   21  C   UNL     1      -4.131  -3.998 -34.136  1.00  0.00     0.001 A 
HETATM   22  C   UNL     1      -5.064  -4.987 -34.437  1.00  0.00     0.000 A 
HETATM   23  C   UNL     1      -6.355  -4.630 -34.821  1.00  0.00     0.001 A 
HETATM   24  C   UNL     1      -6.711  -3.282 -34.910  1.00  0.00     0.011 A 
ENDBRANCH  18  19
ENDBRANCH  16  17
ENDBRANCH  15  16
ENDBRANCH  12  15
ENDBRANCH   1  11
BRANCH   8  25
HETATM   25  C   UNL     1      -3.063   7.531 -30.431  1.00  0.00     0.270 C 
HETATM   26  N   UNL     1      -2.592   6.630 -29.515  1.00  0.00    -0.365 N 
HETATM   27  H   UNL     1      -2.061   5.833 -29.848  1.00  0.00     0.159 HD
HETATM   28  H   UNL     1      -2.752   6.786 -28.533  1.00  0.00     0.159 HD
HETATM   29  O   UNL     1      -3.692   8.522 -30.077  1.00  0.00    -0.266 OA
ENDBRANCH   8  25
TORSDOF 6
ENDMDL
MODEL 6
REMARK VINA RESULT:      -8.2      4.981      8.105
REMARK  6 active torsions:
REMARK  status: ('A' for Active; 'I' for Inactive)
REMARK    1  A    between atoms: C_4  and  C_5 
REMARK    2  A    between atoms: C_6  and  C_7 
REMARK    3  A    between atoms: C_7  and  C_8 
REMARK    4  A    between atoms: C_8  and  C_9 
REMARK       I    between atoms: C_9  and  N_10 
REMARK    5  A    between atoms: N_10  and  C_11 
REMARK    6  A    between atoms: C_18  and  C_19 
REMARK       I    between atoms: C_19  and  N_20 
ROOT
HETATM    1  C   UNL     1      -3.885   4.045 -32.342  1.00  0.00     0.035 A 
HETATM    2  C   UNL     1      -3.859   4.972 -31.291  1.00  0.00     0.046 A 
HETATM    3  C   UNL     1      -2.750   5.836 -31.151  1.00  0.00     0.030 A 
HETATM    4  C   UNL     1      -1.701   5.733 -32.056  1.00  0.00     0.063 A 
HETATM    5  N   UNL     1      -0.789   6.672 -31.664  1.00  0.00    -0.277 N 
HETATM    6  H   UNL     1       0.107   6.874 -32.094  1.00  0.00     0.189 HD
HETATM    7  N   UNL     1      -1.157   7.393 -30.594  1.00  0.00    -0.168 NA
HETATM    8  C   UNL     1      -2.370   6.891 -30.266  1.00  0.00     0.156 A 
HETATM    9  C   UNL     1      -1.692   4.821 -33.113  1.00  0.00     0.034 A 
HETATM   10  C   UNL     1      -2.809   3.987 -33.240  1.00  0.00     0.032 A 
ENDROOT
BRANCH   1  11
HETATM   11  N   UNL     1      -4.955   3.154 -32.580  1.00  0.00    -0.327 N 
HETATM   12  C   UNL     1      -5.982   3.295 -33.494  1.00  0.00     0.222 C 
HETATM   13  O   UNL     1      -6.160   4.248 -34.246  1.00  0.00    -0.273 OA
HETATM   14  H   UNL     1      -4.985   2.341 -31.982  1.00  0.00     0.169 HD
BRANCH  12  15
HETATM   15  C   UNL     1      -6.916   2.095 -33.556  1.00  0.00     0.107 C 
BRANCH  15  16
HETATM   16  C   UNL     1      -6.993   1.394 -34.913  1.00  0.00     0.036 C 
BRANCH  16  17
HETATM   17  C   UNL     1      -6.629  -0.064 -34.996  1.00  0.00    -0.025 C 
HETATM   18  C   UNL     1      -6.134  -0.839 -34.018  1.00  0.00     0.007 C 
BRANCH  18  19
HETATM   19  C   UNL     1      -5.794  -2.257 -34.204  1.00  0.00    -0.036 A 
HETATM   20  C   UNL     1      -6.762  -3.121 -34.733  1.00  0.00     0.011 A 
HETATM   21  C   UNL     1      -6.469  -4.470 -34.947  1.00  0.00     0.001 A 
HETATM   22  C   UNL     1      -5.203  -4.967 -34.644  1.00  0.00     0.000 A 
HETATM   23  C   UNL     1      -4.227  -4.114 -34.133  1.00  0.00     0.001 A 
HETATM   24  C   UNL     1      -4.519  -2.764 -33.920  1.00  0.00     0.011 A 
ENDBRANCH  18  19
ENDBRANCH  16  17
ENDBRANCH  15  16
ENDBRANCH  12  15
ENDBRANCH   1  11
BRANCH   8  25
HETATM   25  C   UNL     1      -3.133   7.432 -29.134  1.00  0.00     0.270 C 
HETATM   26  N   UNL     1      -3.046   6.683 -27.992  1.00  0.00    -0.365 N 
HETATM   27  H   UNL     1      -2.473   5.847 -28.004  1.00  0.00     0.159 HD
HETATM   28  H   UNL     1      -3.522   6.985 -27.158  1.00  0.00     0.159 HD
HETATM   29  O   UNL     1      -3.796   8.464 -29.164  1.00  0.00    -0.266 OA
ENDBRANCH   8  25
TORSDOF 6
ENDMDL
MODEL 7
REMARK VINA RESULT:      -8.2      2.006      2.842
REMARK  6 active torsions:
REMARK  status: ('A' for Active; 'I' for Inactive)
REMARK    1  A    between atoms: C_4  and  C_5 
REMARK    2  A    between atoms: C_6  and  C_7 
REMARK    3  A    between atoms: C_7  and  C_8 
REMARK    4  A    between atoms: C_8  and  C_9 
REMARK       I    between atoms: C_9  and  N_10 
REMARK    5  A    between atoms: N_10  and  C_11 
REMARK    6  A    between atoms: C_18  and  C_19 
REMARK       I    between atoms: C_19  and  N_20 
ROOT
HETATM    1  C   UNL     1      -7.841   1.488 -33.222  1.00  0.00     0.035 A 
HETATM    2  C   UNL     1      -8.773   2.399 -33.740  1.00  0.00     0.046 A 
HETATM    3  C   UNL     1     -10.145   2.061 -33.752  1.00  0.00     0.030 A 
HETATM    4  C   UNL     1     -10.535   0.822 -33.262  1.00  0.00     0.063 A 
HETATM    5  N   UNL     1     -11.892   0.781 -33.414  1.00  0.00    -0.277 N 
HETATM    6  H   UNL     1     -12.515   0.020 -33.167  1.00  0.00     0.189 HD
HETATM    7  N   UNL     1     -12.426   1.893 -33.944  1.00  0.00    -0.168 NA
HETATM    8  C   UNL     1     -11.359   2.696 -34.156  1.00  0.00     0.156 A 
HETATM    9  C   UNL     1      -9.635  -0.110 -32.740  1.00  0.00     0.034 A 
HETATM   10  C   UNL     1      -8.284   0.254 -32.724  1.00  0.00     0.032 A 
ENDROOT
BRANCH   1  11
HETATM   11  N   UNL     1      -6.453   1.739 -33.145  1.00  0.00    -0.327 N 
HETATM   12  C   UNL     1      -5.710   2.030 -32.016  1.00  0.00     0.222 C 
HETATM   13  O   UNL     1      -6.141   2.151 -30.874  1.00  0.00    -0.273 OA
HETATM   14  H   UNL     1      -5.962   1.741 -34.028  1.00  0.00     0.169 HD
BRANCH  12  15
HETATM   15  C   UNL     1      -4.216   2.147 -32.281  1.00  0.00     0.107 C 
BRANCH  15  16
HETATM   16  C   UNL     1      -3.480   0.822 -32.484  1.00  0.00     0.036 C 
BRANCH  16  17
HETATM   17  C   UNL     1      -4.220  -0.326 -33.117  1.00  0.00    -0.025 C 
HETATM   18  C   UNL     1      -3.908  -1.631 -33.058  1.00  0.00     0.007 C 
BRANCH  18  19
HETATM   19  C   UNL     1      -4.690  -2.680 -33.729  1.00  0.00    -0.036 A 
HETATM   20  C   UNL     1      -5.968  -2.367 -34.209  1.00  0.00     0.011 A 
HETATM   21  C   UNL     1      -6.733  -3.330 -34.873  1.00  0.00     0.001 A 
HETATM   22  C   UNL     1      -6.222  -4.612 -35.071  1.00  0.00     0.000 A 
HETATM   23  C   UNL     1      -4.945  -4.929 -34.613  1.00  0.00     0.001 A 
HETATM   24  C   UNL     1      -4.180  -3.966 -33.950  1.00  0.00     0.011 A 
ENDBRANCH  18  19
ENDBRANCH  16  17
ENDBRANCH  15  16
ENDBRANCH  12  15
ENDBRANCH   1  11
BRANCH   8  25
HETATM   25  C   UNL     1     -11.524   4.042 -34.723  1.00  0.00     0.270 C 
HETATM   26  N   UNL     1     -12.554   4.756 -34.174  1.00  0.00    -0.365 N 
HETATM   27  H   UNL     1     -13.101   4.328 -33.436  1.00  0.00     0.159 HD
HETATM   28  H   UNL     1     -12.732   5.696 -34.487  1.00  0.00     0.159 HD
HETATM   29  O   UNL     1     -10.819   4.523 -35.603  1.00  0.00    -0.266 OA
ENDBRANCH   8  25
TORSDOF 6
ENDMDL
MODEL 8
REMARK VINA RESULT:      -7.8      6.209      9.420
REMARK  6 active torsions:
REMARK  status: ('A' for Active; 'I' for Inactive)
REMARK    1  A    between atoms: C_4  and  C_5 
REMARK    2  A    between atoms: C_6  and  C_7 
REMARK    3  A    between atoms: C_7  and  C_8 
REMARK    4  A    between atoms: C_8  and  C_9 
REMARK       I    between atoms: C_9  and  N_10 
REMARK    5  A    between atoms: N_10  and  C_11 
REMARK    6  A    between atoms: C_18  and  C_19 
REMARK       I    between atoms: C_19  and  N_20 
ROOT
HETATM    1  C   UNL     1      -3.562   3.355 -32.026  1.00  0.00     0.035 A 
HETATM    2  C   UNL     1      -3.917   2.031 -32.323  1.00  0.00     0.046 A 
HETATM    3  C   UNL     1      -4.957   1.410 -31.596  1.00  0.00     0.030 A 
HETATM    4  C   UNL     1      -5.593   2.125 -30.590  1.00  0.00     0.063 A 
HETATM    5  N   UNL     1      -6.526   1.272 -30.071  1.00  0.00    -0.277 N 
HETATM    6  H   UNL     1      -7.173   1.458 -29.313  1.00  0.00     0.189 HD
HETATM    7  N   UNL     1      -6.569   0.068 -30.662  1.00  0.00    -0.168 NA
HETATM    8  C   UNL     1      -5.606   0.137 -31.610  1.00  0.00     0.156 A 
HETATM    9  C   UNL     1      -5.265   3.443 -30.267  1.00  0.00     0.034 A 
HETATM   10  C   UNL     1      -4.242   4.042 -31.012  1.00  0.00     0.032 A 
ENDROOT
BRANCH   1  11
HETATM   11  N   UNL     1      -2.553   4.071 -32.708  1.00  0.00    -0.327 N 
HETATM   12  C   UNL     1      -2.717   5.070 -33.649  1.00  0.00     0.222 C 
HETATM   13  O   UNL     1      -3.785   5.490 -34.083  1.00  0.00    -0.273 OA
HETATM   14  H   UNL     1      -1.605   3.787 -32.504  1.00  0.00     0.169 HD
BRANCH  12  15
HETATM   15  C   UNL     1      -1.410   5.698 -34.111  1.00  0.00     0.107 C 
BRANCH  15  16
HETATM   16  C   UNL     1      -1.082   7.058 -33.493  1.00  0.00     0.036 C 
BRANCH  16  17
HETATM   17  C   UNL     1      -0.804   7.133 -32.016  1.00  0.00    -0.025 C 
HETATM   18  C   UNL     1       0.288   6.698 -31.367  1.00  0.00     0.007 C 
BRANCH  18  19
HETATM   19  C   UNL     1       0.458   6.804 -29.910  1.00  0.00    -0.036 A 
HETATM   20  C   UNL     1       0.769   8.052 -29.354  1.00  0.00     0.011 A 
HETATM   21  C   UNL     1       0.915   8.198 -27.973  1.00  0.00     0.001 A 
HETATM   22  C   UNL     1       0.743   7.099 -27.133  1.00  0.00     0.000 A 
HETATM   23  C   UNL     1       0.416   5.857 -27.672  1.00  0.00     0.001 A 
HETATM   24  C   UNL     1       0.270   5.711 -29.054  1.00  0.00     0.011 A 
ENDBRANCH  18  19
ENDBRANCH  16  17
ENDBRANCH  15  16
ENDBRANCH  12  15
ENDBRANCH   1  11
BRANCH   8  25
HETATM   25  C   UNL     1      -5.340  -0.997 -32.505  1.00  0.00     0.270 C 
HETATM   26  N   UNL     1      -6.277  -1.164 -33.488  1.00  0.00    -0.365 N 
HETATM   27  H   UNL     1      -7.051  -0.511 -33.536  1.00  0.00     0.159 HD
HETATM   28  H   UNL     1      -6.169  -1.906 -34.161  1.00  0.00     0.159 HD
HETATM   29  O   UNL     1      -4.374  -1.747 -32.418  1.00  0.00    -0.266 OA
ENDBRANCH   8  25
TORSDOF 6
ENDMDL
MODEL 9
REMARK VINA RESULT:      -7.6      7.624     10.666
REMARK  6 active torsions:
REMARK  status: ('A' for Active; 'I' for Inactive)
REMARK    1  A    between atoms: C_4  and  C_5 
REMARK    2  A    between atoms: C_6  and  C_7 
REMARK    3  A    between atoms: C_7  and  C_8 
REMARK    4  A    between atoms: C_8  and  C_9 
REMARK       I    between atoms: C_9  and  N_10 
REMARK    5  A    between atoms: N_10  and  C_11 
REMARK    6  A    between atoms: C_18  and  C_19 
REMARK       I    between atoms: C_19  and  N_20 
ROOT
HETATM    1  C   UNL     1      -0.768   6.866 -30.424  1.00  0.00     0.035 A 
HETATM    2  C   UNL     1      -1.913   6.775 -29.620  1.00  0.00     0.046 A 
HETATM    3  C   UNL     1      -1.839   7.142 -28.257  1.00  0.00     0.030 A 
HETATM    4  C   UNL     1      -0.621   7.569 -27.743  1.00  0.00     0.063 A 
HETATM    5  N   UNL     1      -0.856   7.836 -26.424  1.00  0.00    -0.277 N 
HETATM    6  H   UNL     1      -0.188   8.164 -25.735  1.00  0.00     0.189 HD
HETATM    7  N   UNL     1      -2.125   7.638 -26.034  1.00  0.00    -0.168 NA
HETATM    8  C   UNL     1      -2.747   7.212 -27.157  1.00  0.00     0.156 A 
HETATM    9  C   UNL     1       0.539   7.669 -28.513  1.00  0.00     0.034 A 
HETATM   10  C   UNL     1       0.435   7.316 -29.864  1.00  0.00     0.032 A 
ENDROOT
BRANCH   1  11
HETATM   11  N   UNL     1      -0.745   6.545 -31.799  1.00  0.00    -0.327 N 
HETATM   12  C   UNL     1      -1.254   7.288 -32.847  1.00  0.00     0.222 C 
HETATM   13  O   UNL     1      -1.850   8.357 -32.757  1.00  0.00    -0.273 OA
HETATM   14  H   UNL     1      -0.340   5.648 -32.029  1.00  0.00     0.169 HD
BRANCH  12  15
HETATM   15  C   UNL     1      -0.968   6.691 -34.218  1.00  0.00     0.107 C 
BRANCH  15  16
HETATM   16  C   UNL     1      -1.767   5.433 -34.564  1.00  0.00     0.036 C 
BRANCH  16  17
HETATM   17  C   UNL     1      -2.757   4.907 -33.560  1.00  0.00    -0.025 C 
HETATM   18  C   UNL     1      -2.643   3.806 -32.800  1.00  0.00     0.007 C 
BRANCH  18  19
HETATM   19  C   UNL     1      -3.680   3.365 -31.855  1.00  0.00    -0.036 A 
HETATM   20  C   UNL     1      -3.928   1.994 -31.716  1.00  0.00     0.011 A 
HETATM   21  C   UNL     1      -4.889   1.534 -30.811  1.00  0.00     0.001 A 
HETATM   22  C   UNL     1      -5.603   2.440 -30.030  1.00  0.00     0.000 A 
HETATM   23  C   UNL     1      -5.352   3.806 -30.148  1.00  0.00     0.001 A 
HETATM   24  C   UNL     1      -4.391   4.266 -31.052  1.00  0.00     0.011 A 
ENDBRANCH  18  19
ENDBRANCH  16  17
ENDBRANCH  15  16
ENDBRANCH  12  15
ENDBRANCH   1  11
BRANCH   8  25
HETATM   25  C   UNL     1      -4.182   6.896 -27.155  1.00  0.00     0.270 C 
HETATM   26  N   UNL     1      -4.477   5.644 -26.688  1.00  0.00    -0.365 N 
HETATM   27  H   UNL     1      -3.716   5.051 -26.376  1.00  0.00     0.159 HD
HETATM   28  H   UNL     1      -5.437   5.345 -26.632  1.00  0.00     0.159 HD
HETATM   29  O   UNL     1      -5.068   7.659 -27.524  1.00  0.00    -0.266 OA
ENDBRANCH   8  25
TORSDOF 6
ENDMDL
MODEL 10
REMARK VINA RESULT:      -7.5      6.695      9.451
REMARK  6 active torsions:
REMARK  status: ('A' for Active; 'I' for Inactive)
REMARK    1  A    between atoms: C_4  and  C_5 
REMARK    2  A    between atoms: C_6  and  C_7 
REMARK    3  A    between atoms: C_7  and  C_8 
REMARK    4  A    between atoms: C_8  and  C_9 
REMARK       I    between atoms: C_9  and  N_10 
REMARK    5  A    between atoms: N_10  and  C_11 
REMARK    6  A    between atoms: C_18  and  C_19 
REMARK       I    between atoms: C_19  and  N_20 
ROOT
HETATM    1  C   UNL     1      -2.844   6.772 -30.878  1.00  0.00     0.035 A 
HETATM    2  C   UNL     1      -2.862   6.834 -29.477  1.00  0.00     0.046 A 
HETATM    3  C   UNL     1      -2.588   8.061 -28.831  1.00  0.00     0.030 A 
HETATM    4  C   UNL     1      -2.291   9.175 -29.605  1.00  0.00     0.063 A 
HETATM    5  N   UNL     1      -2.065  10.187 -28.714  1.00  0.00    -0.277 N 
HETATM    6  H   UNL     1      -1.815  11.146 -28.926  1.00  0.00     0.189 HD
HETATM    7  N   UNL     1      -2.206   9.837 -27.427  1.00  0.00    -0.168 NA
HETATM    8  C   UNL     1      -2.534   8.525 -27.481  1.00  0.00     0.156 A 
HETATM    9  C   UNL     1      -2.262   9.149 -31.000  1.00  0.00     0.034 A 
HETATM   10  C   UNL     1      -2.553   7.927 -31.618  1.00  0.00     0.032 A 
ENDROOT
BRANCH   1  11
HETATM   11  N   UNL     1      -3.125   5.602 -31.618  1.00  0.00    -0.327 N 
HETATM   12  C   UNL     1      -2.328   4.481 -31.756  1.00  0.00     0.222 C 
HETATM   13  O   UNL     1      -1.210   4.321 -31.279  1.00  0.00    -0.273 OA
HETATM   14  H   UNL     1      -3.995   5.611 -32.131  1.00  0.00     0.169 HD
BRANCH  12  15
HETATM   15  C   UNL     1      -2.985   3.358 -32.547  1.00  0.00     0.107 C 
BRANCH  15  16
HETATM   16  C   UNL     1      -3.424   2.146 -31.724  1.00  0.00     0.036 C 
BRANCH  16  17
HETATM   17  C   UNL     1      -3.781   0.874 -32.443  1.00  0.00    -0.025 C 
HETATM   18  C   UNL     1      -5.009   0.428 -32.754  1.00  0.00     0.007 C 
BRANCH  18  19
HETATM   19  C   UNL     1      -5.255  -0.844 -33.448  1.00  0.00    -0.036 A 
HETATM   20  C   UNL     1      -6.539  -1.106 -33.945  1.00  0.00     0.011 A 
HETATM   21  C   UNL     1      -6.807  -2.293 -34.632  1.00  0.00     0.001 A 
HETATM   22  C   UNL     1      -5.792  -3.225 -34.837  1.00  0.00     0.000 A 
HETATM   23  C   UNL     1      -4.507  -2.968 -34.362  1.00  0.00     0.001 A 
HETATM   24  C   UNL     1      -4.239  -1.781 -33.676  1.00  0.00     0.011 A 
ENDBRANCH  18  19
ENDBRANCH  16  17
ENDBRANCH  15  16
ENDBRANCH  12  15
ENDBRANCH   1  11
BRANCH   8  25
HETATM   25  C   UNL     1      -2.795   7.757 -26.256  1.00  0.00     0.270 C 
HETATM   26  N   UNL     1      -4.087   7.325 -26.133  1.00  0.00    -0.365 N 
HETATM   27  H   UNL     1      -4.744   7.545 -26.873  1.00  0.00     0.159 HD
HETATM   28  H   UNL     1      -4.356   6.775 -25.334  1.00  0.00     0.159 HD
HETATM   29  O   UNL     1      -1.957   7.498 -25.399  1.00  0.00    -0.266 OA
ENDBRANCH   8  25
TORSDOF 6
ENDMDL
