MODEL 1
REMARK VINA RESULT:      -9.2      0.000      0.000
REMARK  5 active torsions:
REMARK  status: ('A' for Active; 'I' for Inactive)
REMARK    1  A    between atoms: C_8  and  N_9 
REMARK    2  A    between atoms: C_12  and  N_13 
REMARK    3  A    between atoms: N_13  and  C_15 
REMARK    4  A    between atoms: C_15  and  C_16 
REMARK    5  A    between atoms: C_17  and  C_18 
ROOT
HETATM    1  N   UNL     1      -7.201   1.815 -31.213  1.00  0.00    -0.067 N 
HETATM    2  H   UNL     1      -6.904   2.352 -32.038  1.00  0.00     0.280 HD
HETATM    3  C   UNL     1      -8.447   2.495 -30.687  1.00  0.00     0.270 C 
ENDROOT
BRANCH   1   4
HETATM    4  C   UNL     1      -6.032   1.727 -30.213  1.00  0.00     0.190 C 
HETATM    5  C   UNL     1      -4.825   1.009 -30.841  1.00  0.00     0.048 C 
HETATM    6  C   UNL     1      -4.021   1.896 -31.794  1.00  0.00     0.099 C 
HETATM    7  N   UNL     1      -3.647   3.133 -31.096  1.00  0.00    -0.268 NA
HETATM    8  C   UNL     1      -4.784   3.926 -30.617  1.00  0.00     0.099 C 
HETATM    9  C   UNL     1      -5.590   3.080 -29.635  1.00  0.00     0.048 C 
BRANCH   7  10
HETATM   10  C   UNL     1      -2.630   3.870 -31.723  1.00  0.00     0.109 A 
HETATM   11  N   UNL     1      -1.637   4.395 -30.985  1.00  0.00    -0.224 NA
HETATM   12  C   UNL     1      -0.707   5.160 -31.608  1.00  0.00     0.102 A 
HETATM   13  N   UNL     1      -0.735   5.427 -32.919  1.00  0.00    -0.348 N 
HETATM   14  C   UNL     1       0.372   5.777 -30.775  1.00  0.00     0.091 C 
HETATM   15  C   UNL     1      -1.711   4.917 -33.687  1.00  0.00     0.009 A 
HETATM   16  H   UNL     1      -0.018   6.026 -33.325  1.00  0.00     0.167 HD
HETATM   17  C   UNL     1      -1.733   5.241 -35.146  1.00  0.00     0.068 C 
HETATM   18  C   UNL     1      -2.691   4.123 -33.090  1.00  0.00     0.069 A 
ENDBRANCH   7  10
ENDBRANCH   1   4
BRANCH   1  19
HETATM   19  C   UNL     1      -7.575   0.420 -31.747  1.00  0.00     0.277 C 
BRANCH  19  20
HETATM   20  C   UNL     1      -8.019   0.420 -33.164  1.00  0.00     0.016 A 
HETATM   21  C   UNL     1      -7.505  -0.349 -34.253  1.00  0.00     0.096 A 
HETATM   22  N   UNL     1      -8.089   0.007 -35.401  1.00  0.00    -0.174 NA
HETATM   23  N   UNL     1      -9.045   0.877 -35.056  1.00  0.00    -0.288 N 
HETATM   24  H   UNL     1      -9.661   1.233 -35.784  1.00  0.00     0.188 HD
HETATM   25  C   UNL     1      -9.022   1.186 -33.727  1.00  0.00     0.120 A 
BRANCH  21  26
HETATM   26  C   UNL     1      -6.449  -1.357 -34.241  1.00  0.00    -0.005 A 
HETATM   27  C   UNL     1      -5.161  -1.040 -33.793  1.00  0.00     0.014 A 
HETATM   28  C   UNL     1      -4.164  -2.019 -33.766  1.00  0.00     0.001 A 
HETATM   29  C   UNL     1      -4.452  -3.320 -34.178  1.00  0.00     0.000 A 
HETATM   30  C   UNL     1      -5.736  -3.646 -34.610  1.00  0.00     0.001 A 
HETATM   31  C   UNL     1      -6.732  -2.669 -34.640  1.00  0.00     0.014 A 
ENDBRANCH  21  26
ENDBRANCH  19  20
ENDBRANCH   1  19
TORSDOF 5
ENDMDL
MODEL 2
REMARK VINA RESULT:      -8.8      1.360      2.171
REMARK  5 active torsions:
REMARK  status: ('A' for Active; 'I' for Inactive)
REMARK    1  A    between atoms: C_8  and  N_9 
REMARK    2  A    between atoms: C_12  and  N_13 
REMARK    3  A    between atoms: N_13  and  C_15 
REMARK    4  A    between atoms: C_15  and  C_16 
REMARK    5  A    between atoms: C_17  and  C_18 
ROOT
HETATM    1  N   UNL     1      -6.144   1.328 -31.445  1.00  0.00    -0.067 N 
HETATM    2  H   UNL     1      -6.714   2.172 -31.303  1.00  0.00     0.280 HD
HETATM    3  C   UNL     1      -5.478   1.034 -30.118  1.00  0.00     0.270 C 
ENDROOT
BRANCH   1   4
HETATM    4  C   UNL     1      -5.179   1.556 -32.626  1.00  0.00     0.190 C 
HETATM    5  C   UNL     1      -5.327   2.980 -33.187  1.00  0.00     0.048 C 
HETATM    6  C   UNL     1      -4.631   4.043 -32.336  1.00  0.00     0.099 C 
HETATM    7  N   UNL     1      -3.229   3.653 -32.134  1.00  0.00    -0.268 NA
HETATM    8  C   UNL     1      -3.049   2.366 -31.457  1.00  0.00     0.099 C 
HETATM    9  C   UNL     1      -3.704   1.275 -32.300  1.00  0.00     0.048 C 
BRANCH   7  10
HETATM   10  C   UNL     1      -2.398   4.688 -31.676  1.00  0.00     0.109 A 
HETATM   11  N   UNL     1      -1.280   4.389 -30.991  1.00  0.00    -0.224 NA
HETATM   12  C   UNL     1      -0.534   5.409 -30.501  1.00  0.00     0.102 A 
HETATM   13  N   UNL     1      -0.861   6.698 -30.655  1.00  0.00    -0.348 N 
HETATM   14  C   UNL     1       0.687   5.071 -29.703  1.00  0.00     0.091 C 
HETATM   15  C   UNL     1      -1.969   7.032 -31.335  1.00  0.00     0.009 A 
HETATM   16  H   UNL     1      -0.269   7.419 -30.245  1.00  0.00     0.167 HD
HETATM   17  C   UNL     1      -2.325   8.477 -31.482  1.00  0.00     0.068 C 
HETATM   18  C   UNL     1      -2.769   6.016 -31.860  1.00  0.00     0.069 A 
ENDBRANCH   7  10
ENDBRANCH   1   4
BRANCH   1  19
HETATM   19  C   UNL     1      -7.149   0.206 -31.764  1.00  0.00     0.277 C 
BRANCH  19  20
HETATM   20  C   UNL     1      -7.701   0.269 -33.141  1.00  0.00     0.016 A 
HETATM   21  C   UNL     1      -7.413  -0.583 -34.250  1.00  0.00     0.096 A 
HETATM   22  N   UNL     1      -8.021  -0.142 -35.357  1.00  0.00    -0.174 NA
HETATM   23  N   UNL     1      -8.787   0.878 -34.955  1.00  0.00    -0.288 N 
HETATM   24  H   UNL     1      -9.393   1.326 -35.639  1.00  0.00     0.188 HD
HETATM   25  C   UNL     1      -8.605   1.188 -33.639  1.00  0.00     0.120 A 
BRANCH  21  26
HETATM   26  C   UNL     1      -6.542  -1.753 -34.301  1.00  0.00    -0.005 A 
HETATM   27  C   UNL     1      -7.055  -3.016 -34.622  1.00  0.00     0.014 A 
HETATM   28  C   UNL     1      -6.208  -4.125 -34.689  1.00  0.00     0.001 A 
HETATM   29  C   UNL     1      -4.843  -3.975 -34.444  1.00  0.00     0.000 A 
HETATM   30  C   UNL     1      -4.322  -2.720 -34.138  1.00  0.00     0.001 A 
HETATM   31  C   UNL     1      -5.168  -1.612 -34.069  1.00  0.00     0.014 A 
ENDBRANCH  21  26
ENDBRANCH  19  20
ENDBRANCH   1  19
TORSDOF 5
ENDMDL
MODEL 3
REMARK VINA RESULT:      -8.8      3.099      7.359
REMARK  5 active torsions:
REMARK  status: ('A' for Active; 'I' for Inactive)
REMARK    1  A    between atoms: C_8  and  N_9 
REMARK    2  A    between atoms: C_12  and  N_13 
REMARK    3  A    between atoms: N_13  and  C_15 
REMARK    4  A    between atoms: C_15  and  C_16 
REMARK    5  A    between atoms: C_17  and  C_18 
ROOT
HETATM    1  N   UNL     1      -6.550   3.778 -32.467  1.00  0.00    -0.067 N 
HETATM    2  H   UNL     1      -7.239   3.601 -31.724  1.00  0.00     0.280 HD
HETATM    3  C   UNL     1      -5.778   5.011 -32.047  1.00  0.00     0.270 C 
ENDROOT
BRANCH   1   4
HETATM    4  C   UNL     1      -7.278   3.891 -33.821  1.00  0.00     0.190 C 
HETATM    5  C   UNL     1      -7.789   2.517 -34.286  1.00  0.00     0.048 C 
HETATM    6  C   UNL     1      -9.065   2.071 -33.570  1.00  0.00     0.099 C 
HETATM    7  N   UNL     1     -10.079   3.127 -33.695  1.00  0.00    -0.268 NA
HETATM    8  C   UNL     1      -9.685   4.416 -33.119  1.00  0.00     0.099 C 
HETATM    9  C   UNL     1      -8.431   4.908 -33.837  1.00  0.00     0.048 C 
BRANCH   7  10
HETATM   10  C   UNL     1     -11.387   2.716 -33.393  1.00  0.00     0.109 A 
HETATM   11  N   UNL     1     -12.193   3.527 -32.686  1.00  0.00    -0.224 NA
HETATM   12  C   UNL     1     -13.426   3.075 -32.349  1.00  0.00     0.102 A 
HETATM   13  N   UNL     1     -13.876   1.858 -32.678  1.00  0.00    -0.348 N 
HETATM   14  C   UNL     1     -14.303   3.965 -31.526  1.00  0.00     0.091 C 
HETATM   15  C   UNL     1     -13.099   1.023 -33.385  1.00  0.00     0.009 A 
HETATM   16  H   UNL     1     -14.806   1.569 -32.377  1.00  0.00     0.167 HD
HETATM   17  C   UNL     1     -13.615  -0.337 -33.727  1.00  0.00     0.068 C 
HETATM   18  C   UNL     1     -11.821   1.444 -33.755  1.00  0.00     0.069 A 
ENDBRANCH   7  10
ENDBRANCH   1   4
BRANCH   1  19
HETATM   19  C   UNL     1      -5.607   2.562 -32.449  1.00  0.00     0.277 C 
BRANCH  19  20
HETATM   20  C   UNL     1      -5.871   1.615 -31.336  1.00  0.00     0.016 A 
HETATM   21  C   UNL     1      -6.010   0.195 -31.396  1.00  0.00     0.096 A 
HETATM   22  N   UNL     1      -6.353  -0.299 -30.202  1.00  0.00    -0.174 NA
HETATM   23  N   UNL     1      -6.307   0.742 -29.364  1.00  0.00    -0.288 N 
HETATM   24  H   UNL     1      -6.476   0.574 -28.375  1.00  0.00     0.188 HD
HETATM   25  C   UNL     1      -6.056   1.922 -30.002  1.00  0.00     0.120 A 
BRANCH  21  26
HETATM   26  C   UNL     1      -5.883  -0.687 -32.552  1.00  0.00    -0.005 A 
HETATM   27  C   UNL     1      -4.659  -1.294 -32.861  1.00  0.00     0.014 A 
HETATM   28  C   UNL     1      -4.555  -2.153 -33.958  1.00  0.00     0.001 A 
HETATM   29  C   UNL     1      -5.675  -2.417 -34.746  1.00  0.00     0.000 A 
HETATM   30  C   UNL     1      -6.900  -1.829 -34.436  1.00  0.00     0.001 A 
HETATM   31  C   UNL     1      -7.005  -0.968 -33.343  1.00  0.00     0.014 A 
ENDBRANCH  21  26
ENDBRANCH  19  20
ENDBRANCH   1  19
TORSDOF 5
ENDMDL
MODEL 4
REMARK VINA RESULT:      -8.8      3.397      8.415
REMARK  5 active torsions:
REMARK  status: ('A' for Active; 'I' for Inactive)
REMARK    1  A    between atoms: C_8  and  N_9 
REMARK    2  A    between atoms: C_12  and  N_13 
REMARK    3  A    between atoms: N_13  and  C_15 
REMARK    4  A    between atoms: C_15  and  C_16 
REMARK    5  A    between atoms: C_17  and  C_18 
ROOT
HETATM    1  N   UNL     1      -2.327   6.861 -28.069  1.00  0.00    -0.067 N 
HETATM    2  H   UNL     1      -2.380   5.836 -28.138  1.00  0.00     0.280 HD
HETATM    3  C   UNL     1      -2.021   7.176 -26.620  1.00  0.00     0.270 C 
ENDROOT
BRANCH   1   4
HETATM    4  C   UNL     1      -3.632   7.476 -28.611  1.00  0.00     0.190 C 
HETATM    5  C   UNL     1      -3.844   7.101 -30.088  1.00  0.00     0.048 C 
HETATM    6  C   UNL     1      -4.365   5.676 -30.282  1.00  0.00     0.099 C 
HETATM    7  N   UNL     1      -5.575   5.493 -29.469  1.00  0.00    -0.268 NA
HETATM    8  C   UNL     1      -5.374   5.691 -28.031  1.00  0.00     0.099 C 
HETATM    9  C   UNL     1      -4.886   7.119 -27.798  1.00  0.00     0.048 C 
BRANCH   7  10
HETATM   10  C   UNL     1      -6.343   4.369 -29.814  1.00  0.00     0.109 A 
HETATM   11  N   UNL     1      -7.663   4.506 -30.031  1.00  0.00    -0.224 NA
HETATM   12  C   UNL     1      -8.391   3.393 -30.293  1.00  0.00     0.102 A 
HETATM   13  N   UNL     1      -7.862   2.164 -30.337  1.00  0.00    -0.348 N 
HETATM   14  C   UNL     1      -9.866   3.546 -30.491  1.00  0.00     0.091 C 
HETATM   15  C   UNL     1      -6.548   1.991 -30.127  1.00  0.00     0.009 A 
HETATM   16  H   UNL     1      -8.467   1.364 -30.519  1.00  0.00     0.167 HD
HETATM   17  C   UNL     1      -5.981   0.609 -30.164  1.00  0.00     0.068 C 
HETATM   18  C   UNL     1      -5.757   3.108 -29.854  1.00  0.00     0.069 A 
ENDBRANCH   7  10
ENDBRANCH   1   4
BRANCH   1  19
HETATM   19  C   UNL     1      -1.124   7.268 -28.938  1.00  0.00     0.277 C 
BRANCH  19  20
HETATM   20  C   UNL     1      -0.238   6.135 -29.304  1.00  0.00     0.016 A 
HETATM   21  C   UNL     1      -0.139   5.457 -30.558  1.00  0.00     0.096 A 
HETATM   22  N   UNL     1       0.694   4.414 -30.469  1.00  0.00    -0.174 NA
HETATM   23  N   UNL     1       1.223   4.490 -29.243  1.00  0.00    -0.288 N 
HETATM   24  H   UNL     1       1.940   3.816 -28.984  1.00  0.00     0.188 HD
HETATM   25  C   UNL     1       0.671   5.485 -28.490  1.00  0.00     0.120 A 
BRANCH  21  26
HETATM   26  C   UNL     1      -0.846   5.734 -31.804  1.00  0.00    -0.005 A 
HETATM   27  C   UNL     1      -1.588   4.734 -32.445  1.00  0.00     0.014 A 
HETATM   28  C   UNL     1      -2.279   5.017 -33.626  1.00  0.00     0.001 A 
HETATM   29  C   UNL     1      -2.240   6.302 -34.167  1.00  0.00     0.000 A 
HETATM   30  C   UNL     1      -1.516   7.306 -33.527  1.00  0.00     0.001 A 
HETATM   31  C   UNL     1      -0.823   7.025 -32.349  1.00  0.00     0.014 A 
ENDBRANCH  21  26
ENDBRANCH  19  20
ENDBRANCH   1  19
TORSDOF 5
ENDMDL
MODEL 5
REMARK VINA RESULT:      -8.8      3.115      7.502
REMARK  5 active torsions:
REMARK  status: ('A' for Active; 'I' for Inactive)
REMARK    1  A    between atoms: C_8  and  N_9 
REMARK    2  A    between atoms: C_12  and  N_13 
REMARK    3  A    between atoms: N_13  and  C_15 
REMARK    4  A    between atoms: C_15  and  C_16 
REMARK    5  A    between atoms: C_17  and  C_18 
ROOT
HETATM    1  N   UNL     1      -7.407   0.704 -31.406  1.00  0.00    -0.067 N 
HETATM    2  H   UNL     1      -8.271   0.342 -30.983  1.00  0.00     0.280 HD
HETATM    3  C   UNL     1      -6.945   1.843 -30.522  1.00  0.00     0.270 C 
ENDROOT
BRANCH   1   4
HETATM    4  C   UNL     1      -7.677   1.084 -32.875  1.00  0.00     0.190 C 
HETATM    5  C   UNL     1      -8.697   0.124 -33.511  1.00  0.00     0.048 C 
HETATM    6  C   UNL     1     -10.142   0.420 -33.106  1.00  0.00     0.099 C 
HETATM    7  N   UNL     1     -10.438   1.832 -33.385  1.00  0.00    -0.268 NA
HETATM    8  C   UNL     1      -9.582   2.783 -32.671  1.00  0.00     0.099 C 
HETATM    9  C   UNL     1      -8.132   2.538 -33.080  1.00  0.00     0.048 C 
BRANCH   7  10
HETATM   10  C   UNL     1     -11.806   2.149 -33.390  1.00  0.00     0.109 A 
HETATM   11  N   UNL     1     -12.227   3.286 -32.809  1.00  0.00    -0.224 NA
HETATM   12  C   UNL     1     -13.560   3.532 -32.767  1.00  0.00     0.102 A 
HETATM   13  N   UNL     1     -14.477   2.694 -33.266  1.00  0.00    -0.348 N 
HETATM   14  C   UNL     1     -14.026   4.778 -32.081  1.00  0.00     0.091 C 
HETATM   15  C   UNL     1     -14.091   1.551 -33.855  1.00  0.00     0.009 A 
HETATM   16  H   UNL     1     -15.466   2.926 -33.185  1.00  0.00     0.167 HD
HETATM   17  C   UNL     1     -15.132   0.622 -34.390  1.00  0.00     0.068 C 
HETATM   18  C   UNL     1     -12.729   1.255 -33.923  1.00  0.00     0.069 A 
ENDBRANCH   7  10
ENDBRANCH   1   4
BRANCH   1  19
HETATM   19  C   UNL     1      -6.392  -0.449 -31.313  1.00  0.00     0.277 C 
BRANCH  19  20
HETATM   20  C   UNL     1      -5.113  -0.181 -32.018  1.00  0.00     0.016 A 
HETATM   21  C   UNL     1      -4.493  -0.950 -33.050  1.00  0.00     0.096 A 
HETATM   22  N   UNL     1      -3.292  -0.449 -33.358  1.00  0.00    -0.174 NA
HETATM   23  N   UNL     1      -3.190   0.682 -32.651  1.00  0.00    -0.288 N 
HETATM   24  H   UNL     1      -2.366   1.263 -32.785  1.00  0.00     0.188 HD
HETATM   25  C   UNL     1      -4.243   0.871 -31.804  1.00  0.00     0.120 A 
BRANCH  21  26
HETATM   26  C   UNL     1      -4.979  -2.162 -33.703  1.00  0.00    -0.005 A 
HETATM   27  C   UNL     1      -4.195  -3.322 -33.735  1.00  0.00     0.014 A 
HETATM   28  C   UNL     1      -4.678  -4.483 -34.343  1.00  0.00     0.001 A 
HETATM   29  C   UNL     1      -5.951  -4.493 -34.914  1.00  0.00     0.000 A 
HETATM   30  C   UNL     1      -6.743  -3.347 -34.873  1.00  0.00     0.001 A 
HETATM   31  C   UNL     1      -6.260  -2.186 -34.268  1.00  0.00     0.014 A 
ENDBRANCH  21  26
ENDBRANCH  19  20
ENDBRANCH   1  19
TORSDOF 5
ENDMDL
MODEL 6
REMARK VINA RESULT:      -8.6     16.068     18.116
REMARK  5 active torsions:
REMARK  status: ('A' for Active; 'I' for Inactive)
REMARK    1  A    between atoms: C_8  and  N_9 
REMARK    2  A    between atoms: C_12  and  N_13 
REMARK    3  A    between atoms: N_13  and  C_15 
REMARK    4  A    between atoms: C_15  and  C_16 
REMARK    5  A    between atoms: C_17  and  C_18 
ROOT
HETATM    1  N   UNL     1      -4.916 -15.066 -36.588  1.00  0.00    -0.067 N 
HETATM    2  H   UNL     1      -5.046 -15.152 -37.604  1.00  0.00     0.280 HD
HETATM    3  C   UNL     1      -4.059 -16.241 -36.167  1.00  0.00     0.270 C 
ENDROOT
BRANCH   1   4
HETATM    4  C   UNL     1      -6.295 -14.983 -35.903  1.00  0.00     0.190 C 
HETATM    5  C   UNL     1      -6.906 -13.581 -36.069  1.00  0.00     0.048 C 
HETATM    6  C   UNL     1      -7.513 -13.345 -37.453  1.00  0.00     0.099 C 
HETATM    7  N   UNL     1      -8.469 -14.421 -37.747  1.00  0.00    -0.268 NA
HETATM    8  C   UNL     1      -7.885 -15.766 -37.751  1.00  0.00     0.099 C 
HETATM    9  C   UNL     1      -7.299 -16.048 -36.370  1.00  0.00     0.048 C 
BRANCH   7  10
HETATM   10  C   UNL     1      -9.342 -14.148 -38.812  1.00  0.00     0.109 A 
HETATM   11  N   UNL     1      -9.761 -15.152 -39.603  1.00  0.00    -0.224 NA
HETATM   12  C   UNL     1     -10.547 -14.849 -40.665  1.00  0.00     0.102 A 
HETATM   13  N   UNL     1     -10.918 -13.600 -40.970  1.00  0.00    -0.348 N 
HETATM   14  C   UNL     1     -10.975 -15.964 -41.566  1.00  0.00     0.091 C 
HETATM   15  C   UNL     1     -10.520 -12.574 -40.201  1.00  0.00     0.009 A 
HETATM   16  H   UNL     1     -11.494 -13.435 -41.795  1.00  0.00     0.167 HD
HETATM   17  C   UNL     1     -10.933 -11.186 -40.570  1.00  0.00     0.068 C 
HETATM   18  C   UNL     1      -9.710 -12.837 -39.096  1.00  0.00     0.069 A 
ENDBRANCH   7  10
ENDBRANCH   1   4
BRANCH   1  19
HETATM   19  C   UNL     1      -4.121 -13.764 -36.385  1.00  0.00     0.277 C 
BRANCH  19  20
HETATM   20  C   UNL     1      -3.041 -13.560 -37.382  1.00  0.00     0.016 A 
HETATM   21  C   UNL     1      -3.162 -13.373 -38.793  1.00  0.00     0.096 A 
HETATM   22  N   UNL     1      -1.957 -13.333 -39.371  1.00  0.00    -0.174 NA
HETATM   23  N   UNL     1      -1.080 -13.354 -38.361  1.00  0.00    -0.288 N 
HETATM   24  H   UNL     1      -0.090 -13.268 -38.578  1.00  0.00     0.188 HD
HETATM   25  C   UNL     1      -1.679 -13.525 -37.147  1.00  0.00     0.120 A 
BRANCH  21  26
HETATM   26  C   UNL     1      -4.373 -13.291 -39.603  1.00  0.00    -0.005 A 
HETATM   27  C   UNL     1      -4.976 -14.448 -40.111  1.00  0.00     0.014 A 
HETATM   28  C   UNL     1      -6.148 -14.359 -40.866  1.00  0.00     0.001 A 
HETATM   29  C   UNL     1      -6.727 -13.114 -41.110  1.00  0.00     0.000 A 
HETATM   30  C   UNL     1      -6.142 -11.959 -40.596  1.00  0.00     0.001 A 
HETATM   31  C   UNL     1      -4.970 -12.047 -39.843  1.00  0.00     0.014 A 
ENDBRANCH  21  26
ENDBRANCH  19  20
ENDBRANCH   1  19
TORSDOF 5
ENDMDL
MODEL 7
REMARK VINA RESULT:      -8.2      2.415      3.963
REMARK  5 active torsions:
REMARK  status: ('A' for Active; 'I' for Inactive)
REMARK    1  A    between atoms: C_8  and  N_9 
REMARK    2  A    between atoms: C_12  and  N_13 
REMARK    3  A    between atoms: N_13  and  C_15 
REMARK    4  A    between atoms: C_15  and  C_16 
REMARK    5  A    between atoms: C_17  and  C_18 
ROOT
HETATM    1  N   UNL     1      -4.330   3.239 -32.377  1.00  0.00    -0.067 N 
HETATM    2  H   UNL     1      -4.720   3.637 -31.513  1.00  0.00     0.280 HD
HETATM    3  C   UNL     1      -3.410   2.115 -31.952  1.00  0.00     0.270 C 
ENDROOT
BRANCH   1   4
HETATM    4  C   UNL     1      -3.660   4.359 -33.198  1.00  0.00     0.190 C 
HETATM    5  C   UNL     1      -4.282   5.727 -32.869  1.00  0.00     0.048 C 
HETATM    6  C   UNL     1      -3.785   6.317 -31.548  1.00  0.00     0.099 C 
HETATM    7  N   UNL     1      -2.317   6.346 -31.558  1.00  0.00    -0.268 NA
HETATM    8  C   UNL     1      -1.685   5.033 -31.714  1.00  0.00     0.099 C 
HETATM    9  C   UNL     1      -2.133   4.430 -33.043  1.00  0.00     0.048 C 
BRANCH   7  10
HETATM   10  C   UNL     1      -1.745   7.169 -30.574  1.00  0.00     0.109 A 
HETATM   11  N   UNL     1      -0.765   6.686 -29.790  1.00  0.00    -0.224 NA
HETATM   12  C   UNL     1      -0.281   7.478 -28.803  1.00  0.00     0.102 A 
HETATM   13  N   UNL     1      -0.737   8.714 -28.564  1.00  0.00    -0.348 N 
HETATM   14  C   UNL     1       0.780   6.921 -27.907  1.00  0.00     0.091 C 
HETATM   15  C   UNL     1      -1.713   9.229 -29.329  1.00  0.00     0.009 A 
HETATM   16  H   UNL     1      -0.345   9.253 -27.793  1.00  0.00     0.167 HD
HETATM   17  C   UNL     1      -2.218  10.604 -29.034  1.00  0.00     0.068 C 
HETATM   18  C   UNL     1      -2.243   8.450 -30.358  1.00  0.00     0.069 A 
ENDBRANCH   7  10
ENDBRANCH   1   4
BRANCH   1  19
HETATM   19  C   UNL     1      -5.533   2.647 -33.133  1.00  0.00     0.277 C 
BRANCH  19  20
HETATM   20  C   UNL     1      -6.522   1.974 -32.254  1.00  0.00     0.016 A 
HETATM   21  C   UNL     1      -6.893   0.595 -32.231  1.00  0.00     0.096 A 
HETATM   22  N   UNL     1      -7.899   0.389 -31.375  1.00  0.00    -0.174 NA
HETATM   23  N   UNL     1      -8.087   1.562 -30.762  1.00  0.00    -0.288 N 
HETATM   24  H   UNL     1      -8.776   1.613 -30.016  1.00  0.00     0.188 HD
HETATM   25  C   UNL     1      -7.308   2.557 -31.278  1.00  0.00     0.120 A 
BRANCH  21  26
HETATM   26  C   UNL     1      -6.364  -0.506 -33.030  1.00  0.00    -0.005 A 
HETATM   27  C   UNL     1      -5.078  -1.008 -32.796  1.00  0.00     0.014 A 
HETATM   28  C   UNL     1      -4.590  -2.077 -33.553  1.00  0.00     0.001 A 
HETATM   29  C   UNL     1      -5.388  -2.653 -34.541  1.00  0.00     0.000 A 
HETATM   30  C   UNL     1      -6.675  -2.169 -34.770  1.00  0.00     0.001 A 
HETATM   31  C   UNL     1      -7.162  -1.100 -34.016  1.00  0.00     0.014 A 
ENDBRANCH  21  26
ENDBRANCH  19  20
ENDBRANCH   1  19
TORSDOF 5
ENDMDL
MODEL 8
REMARK VINA RESULT:      -8.2      2.268      3.522
REMARK  5 active torsions:
REMARK  status: ('A' for Active; 'I' for Inactive)
REMARK    1  A    between atoms: C_8  and  N_9 
REMARK    2  A    between atoms: C_12  and  N_13 
REMARK    3  A    between atoms: N_13  and  C_15 
REMARK    4  A    between atoms: C_15  and  C_16 
REMARK    5  A    between atoms: C_17  and  C_18 
ROOT
HETATM    1  N   UNL     1      -5.764   1.461 -33.035  1.00  0.00    -0.067 N 
HETATM    2  H   UNL     1      -4.770   1.633 -33.238  1.00  0.00     0.280 HD
HETATM    3  C   UNL     1      -6.429   1.184 -34.366  1.00  0.00     0.270 C 
ENDROOT
BRANCH   1   4
HETATM    4  C   UNL     1      -6.339   2.658 -32.252  1.00  0.00     0.190 C 
HETATM    5  C   UNL     1      -5.695   2.762 -30.859  1.00  0.00     0.048 C 
HETATM    6  C   UNL     1      -4.294   3.375 -30.883  1.00  0.00     0.099 C 
HETATM    7  N   UNL     1      -4.347   4.666 -31.583  1.00  0.00    -0.268 NA
HETATM    8  C   UNL     1      -4.811   4.583 -32.971  1.00  0.00     0.099 C 
HETATM    9  C   UNL     1      -6.224   4.006 -32.981  1.00  0.00     0.048 C 
BRANCH   7  10
HETATM   10  C   UNL     1      -3.227   5.486 -31.378  1.00  0.00     0.109 A 
HETATM   11  N   UNL     1      -3.377   6.821 -31.339  1.00  0.00    -0.224 NA
HETATM   12  C   UNL     1      -2.269   7.591 -31.210  1.00  0.00     0.102 A 
HETATM   13  N   UNL     1      -1.031   7.086 -31.129  1.00  0.00    -0.348 N 
HETATM   14  C   UNL     1      -2.438   9.077 -31.211  1.00  0.00     0.091 C 
HETATM   15  C   UNL     1      -0.844   5.758 -31.162  1.00  0.00     0.009 A 
HETATM   16  H   UNL     1      -0.236   7.719 -31.053  1.00  0.00     0.167 HD
HETATM   17  C   UNL     1       0.547   5.217 -31.086  1.00  0.00     0.068 C 
HETATM   18  C   UNL     1      -1.956   4.925 -31.293  1.00  0.00     0.069 A 
ENDBRANCH   7  10
ENDBRANCH   1   4
BRANCH   1  19
HETATM   19  C   UNL     1      -5.790   0.181 -32.181  1.00  0.00     0.277 C 
BRANCH  19  20
HETATM   20  C   UNL     1      -4.462  -0.462 -32.022  1.00  0.00     0.016 A 
HETATM   21  C   UNL     1      -4.010  -1.706 -32.559  1.00  0.00     0.096 A 
HETATM   22  N   UNL     1      -2.788  -2.003 -32.105  1.00  0.00    -0.174 NA
HETATM   23  N   UNL     1      -2.402  -0.929 -31.407  1.00  0.00    -0.288 N 
HETATM   24  H   UNL     1      -1.461  -0.919 -31.018  1.00  0.00     0.188 HD
HETATM   25  C   UNL     1      -3.385   0.011 -31.297  1.00  0.00     0.120 A 
BRANCH  21  26
HETATM   26  C   UNL     1      -4.719  -2.635 -33.434  1.00  0.00    -0.005 A 
HETATM   27  C   UNL     1      -5.896  -2.248 -34.087  1.00  0.00     0.014 A 
HETATM   28  C   UNL     1      -6.555  -3.138 -34.940  1.00  0.00     0.001 A 
HETATM   29  C   UNL     1      -6.036  -4.415 -35.149  1.00  0.00     0.000 A 
HETATM   30  C   UNL     1      -4.857  -4.803 -34.515  1.00  0.00     0.001 A 
HETATM   31  C   UNL     1      -4.200  -3.916 -33.662  1.00  0.00     0.014 A 
ENDBRANCH  21  26
ENDBRANCH  19  20
ENDBRANCH   1  19
TORSDOF 5
ENDMDL
MODEL 9
REMARK VINA RESULT:      -8.1      1.540      2.271
REMARK  5 active torsions:
REMARK  status: ('A' for Active; 'I' for Inactive)
REMARK    1  A    between atoms: C_8  and  N_9 
REMARK    2  A    between atoms: C_12  and  N_13 
REMARK    3  A    between atoms: N_13  and  C_15 
REMARK    4  A    between atoms: C_15  and  C_16 
REMARK    5  A    between atoms: C_17  and  C_18 
ROOT
HETATM    1  N   UNL     1      -7.793   3.135 -31.606  1.00  0.00    -0.067 N 
HETATM    2  H   UNL     1      -7.701   3.047 -32.627  1.00  0.00     0.280 HD
HETATM    3  C   UNL     1      -7.782   4.619 -31.304  1.00  0.00     0.270 C 
ENDROOT
BRANCH   1   4
HETATM    4  C   UNL     1      -6.678   2.320 -30.922  1.00  0.00     0.190 C 
HETATM    5  C   UNL     1      -5.752   1.672 -31.966  1.00  0.00     0.048 C 
HETATM    6  C   UNL     1      -4.745   2.651 -32.573  1.00  0.00     0.099 C 
HETATM    7  N   UNL     1      -4.006   3.313 -31.490  1.00  0.00    -0.268 NA
HETATM    8  C   UNL     1      -4.846   4.073 -30.559  1.00  0.00     0.099 C 
HETATM    9  C   UNL     1      -5.842   3.117 -29.908  1.00  0.00     0.048 C 
BRANCH   7  10
HETATM   10  C   UNL     1      -2.832   3.964 -31.900  1.00  0.00     0.109 A 
HETATM   11  N   UNL     1      -1.912   4.315 -30.984  1.00  0.00    -0.224 NA
HETATM   12  C   UNL     1      -0.821   5.005 -31.400  1.00  0.00     0.102 A 
HETATM   13  N   UNL     1      -0.621   5.363 -32.675  1.00  0.00    -0.348 N 
HETATM   14  C   UNL     1       0.179   5.430 -30.372  1.00  0.00     0.091 C 
HETATM   15  C   UNL     1      -1.519   5.027 -33.615  1.00  0.00     0.009 A 
HETATM   16  H   UNL     1       0.210   5.899 -32.921  1.00  0.00     0.167 HD
HETATM   17  C   UNL     1      -1.284   5.451 -35.029  1.00  0.00     0.068 C 
HETATM   18  C   UNL     1      -2.657   4.316 -33.235  1.00  0.00     0.069 A 
ENDBRANCH   7  10
ENDBRANCH   1   4
BRANCH   1  19
HETATM   19  C   UNL     1      -9.180   2.562 -31.269  1.00  0.00     0.277 C 
BRANCH  19  20
HETATM   20  C   UNL     1     -10.081   2.440 -32.442  1.00  0.00     0.016 A 
HETATM   21  C   UNL     1      -9.889   1.668 -33.629  1.00  0.00     0.096 A 
HETATM   22  N   UNL     1     -10.868   1.901 -34.509  1.00  0.00    -0.174 NA
HETATM   23  N   UNL     1     -11.739   2.689 -33.868  1.00  0.00    -0.288 N 
HETATM   24  H   UNL     1     -12.603   2.941 -34.342  1.00  0.00     0.188 HD
HETATM   25  C   UNL     1     -11.295   3.070 -32.635  1.00  0.00     0.120 A 
BRANCH  21  26
HETATM   26  C   UNL     1      -8.787   0.773 -33.969  1.00  0.00    -0.005 A 
HETATM   27  C   UNL     1      -7.892   1.096 -34.996  1.00  0.00     0.014 A 
HETATM   28  C   UNL     1      -6.828   0.241 -35.297  1.00  0.00     0.001 A 
HETATM   29  C   UNL     1      -6.649  -0.934 -34.568  1.00  0.00     0.000 A 
HETATM   30  C   UNL     1      -7.527  -1.254 -33.534  1.00  0.00     0.001 A 
HETATM   31  C   UNL     1      -8.591  -0.403 -33.234  1.00  0.00     0.014 A 
ENDBRANCH  21  26
ENDBRANCH  19  20
ENDBRANCH   1  19
TORSDOF 5
ENDMDL
MODEL 10
REMARK VINA RESULT:      -8.0      2.058      2.989
REMARK  5 active torsions:
REMARK  status: ('A' for Active; 'I' for Inactive)
REMARK    1  A    between atoms: C_8  and  N_9 
REMARK    2  A    between atoms: C_12  and  N_13 
REMARK    3  A    between atoms: N_13  and  C_15 
REMARK    4  A    between atoms: C_15  and  C_16 
REMARK    5  A    between atoms: C_17  and  C_18 
ROOT
HETATM    1  N   UNL     1      -7.638   3.934 -32.508  1.00  0.00    -0.067 N 
HETATM    2  H   UNL     1      -7.391   4.931 -32.460  1.00  0.00     0.280 HD
HETATM    3  C   UNL     1      -8.336   3.604 -31.206  1.00  0.00     0.270 C 
ENDROOT
BRANCH   1   4
HETATM    4  C   UNL     1      -6.369   3.108 -32.798  1.00  0.00     0.190 C 
HETATM    5  C   UNL     1      -5.485   3.809 -33.844  1.00  0.00     0.048 C 
HETATM    6  C   UNL     1      -4.670   4.969 -33.269  1.00  0.00     0.099 C 
HETATM    7  N   UNL     1      -3.908   4.491 -32.108  1.00  0.00    -0.268 NA
HETATM    8  C   UNL     1      -4.732   3.956 -31.020  1.00  0.00     0.099 C 
HETATM    9  C   UNL     1      -5.534   2.771 -31.552  1.00  0.00     0.048 C 
BRANCH   7  10
HETATM   10  C   UNL     1      -2.869   5.344 -31.704  1.00  0.00     0.109 A 
HETATM   11  N   UNL     1      -3.081   6.671 -31.649  1.00  0.00    -0.224 NA
HETATM   12  C   UNL     1      -2.040   7.476 -31.323  1.00  0.00     0.102 A 
HETATM   13  N   UNL     1      -0.809   7.015 -31.063  1.00  0.00    -0.348 N 
HETATM   14  C   UNL     1      -2.270   8.954 -31.305  1.00  0.00     0.091 C 
HETATM   15  C   UNL     1      -0.563   5.697 -31.107  1.00  0.00     0.009 A 
HETATM   16  H   UNL     1      -0.063   7.674 -30.844  1.00  0.00     0.167 HD
HETATM   17  C   UNL     1       0.821   5.206 -30.830  1.00  0.00     0.068 C 
HETATM   18  C   UNL     1      -1.604   4.828 -31.438  1.00  0.00     0.069 A 
ENDBRANCH   7  10
ENDBRANCH   1   4
BRANCH   1  19
HETATM   19  C   UNL     1      -8.647   3.817 -33.664  1.00  0.00     0.277 C 
BRANCH  19  20
HETATM   20  C   UNL     1      -9.697   2.791 -33.443  1.00  0.00     0.016 A 
HETATM   21  C   UNL     1      -9.565   1.369 -33.471  1.00  0.00     0.096 A 
HETATM   22  N   UNL     1     -10.758   0.781 -33.336  1.00  0.00    -0.174 NA
HETATM   23  N   UNL     1     -11.617   1.776 -33.091  1.00  0.00    -0.288 N 
HETATM   24  H   UNL     1     -12.587   1.540 -32.892  1.00  0.00     0.188 HD
HETATM   25  C   UNL     1     -11.036   3.008 -33.179  1.00  0.00     0.120 A 
BRANCH  21  26
HETATM   26  C   UNL     1      -8.364   0.567 -33.678  1.00  0.00    -0.005 A 
HETATM   27  C   UNL     1      -7.713  -0.041 -32.597  1.00  0.00     0.014 A 
HETATM   28  C   UNL     1      -6.575  -0.825 -32.810  1.00  0.00     0.001 A 
HETATM   29  C   UNL     1      -6.089  -1.011 -34.103  1.00  0.00     0.000 A 
HETATM   30  C   UNL     1      -6.740  -0.422 -35.186  1.00  0.00     0.001 A 
HETATM   31  C   UNL     1      -7.875   0.363 -34.975  1.00  0.00     0.014 A 
ENDBRANCH  21  26
ENDBRANCH  19  20
ENDBRANCH   1  19
TORSDOF 5
ENDMDL
