MODEL 1
REMARK VINA RESULT:      -9.8      0.000      0.000
REMARK  7 active torsions:
REMARK  status: ('A' for Active; 'I' for Inactive)
REMARK    1  A    between atoms: C_4  and  C_5 
REMARK    2  A    between atoms: N_6  and  C_7 
REMARK    3  A    between atoms: C_14  and  C_15 
REMARK       I    between atoms: C_15  and  N_16 
REMARK    4  A    between atoms: N_16  and  N_17 
REMARK       I    between atoms: N_17  and  C_18 
REMARK    5  A    between atoms: C_18  and  C_19 
REMARK    6  A    between atoms: C_19  and  C_20 
REMARK    7  A    between atoms: C_23  and  O_24 
ROOT
HETATM    1  C   UNL     1      -5.217   0.025 -33.358  1.00  0.00     0.164 C 
HETATM    2  N   UNL     1      -6.219   0.910 -32.964  1.00  0.00    -0.213 N 
HETATM    3  N   UNL     1      -5.648   1.996 -32.368  1.00  0.00    -0.139 NA
HETATM    4  C   UNL     1      -4.339   1.819 -32.614  1.00  0.00     0.241 C 
HETATM    5  N   UNL     1      -4.049   0.630 -33.235  1.00  0.00    -0.202 NA
ENDROOT
BRANCH   4   6
HETATM    6  C   UNL     1      -3.310   2.807 -32.238  1.00  0.00     0.309 C 
HETATM    7  N   UNL     1      -3.141   3.820 -33.167  1.00  0.00    -0.261 N 
HETATM    8  H   UNL     1      -3.666   3.830 -34.043  1.00  0.00     0.190 HD
HETATM    9  O   UNL     1      -2.642   2.755 -31.204  1.00  0.00    -0.262 OA
BRANCH   7  10
HETATM   10  N   UNL     1      -2.136   4.769 -32.972  1.00  0.00    -0.267 N 
HETATM   11  C   UNL     1      -2.198   5.958 -33.668  1.00  0.00     0.240 C 
HETATM   12  O   UNL     1      -3.101   6.225 -34.459  1.00  0.00    -0.272 OA
HETATM   13  H   UNL     1      -1.450   4.571 -32.246  1.00  0.00     0.190 HD
BRANCH  11  14
HETATM   14  C   UNL     1      -1.042   6.897 -33.385  1.00  0.00     0.143 C 
BRANCH  14  15
HETATM   15  C   UNL     1      -0.884   7.222 -31.921  1.00  0.00    -0.049 A 
HETATM   16  C   UNL     1       0.237   6.777 -31.204  1.00  0.00     0.010 A 
HETATM   17  C   UNL     1       0.391   7.101 -29.853  1.00  0.00     0.037 A 
HETATM   18  C   UNL     1      -0.578   7.871 -29.218  1.00  0.00     0.065 A 
HETATM   19  C   UNL     1      -1.696   8.318 -29.910  1.00  0.00     0.037 A 
HETATM   20  C   UNL     1      -1.850   7.994 -31.259  1.00  0.00     0.010 A 
BRANCH  18  21
HETATM   21  O   UNL     1      -0.463   8.217 -27.905  1.00  0.00    -0.361 OA
HETATM   22  H   UNL     1      -0.643   7.434 -27.360  1.00  0.00     0.217 HD
ENDBRANCH  18  21
ENDBRANCH  14  15
ENDBRANCH  11  14
ENDBRANCH   7  10
ENDBRANCH   4   6
BRANCH   2  23
HETATM   23  C   UNL     1      -7.635   0.857 -33.124  1.00  0.00     0.060 A 
HETATM   24  C   UNL     1      -8.410   0.236 -32.130  1.00  0.00     0.031 A 
HETATM   25  C   UNL     1      -9.800   0.167 -32.256  1.00  0.00     0.002 A 
HETATM   26  C   UNL     1     -10.429   0.732 -33.362  1.00  0.00     0.000 A 
HETATM   27  C   UNL     1      -9.672   1.375 -34.339  1.00  0.00     0.002 A 
HETATM   28  C   UNL     1      -8.280   1.446 -34.219  1.00  0.00     0.031 A 
ENDBRANCH   2  23
BRANCH   1  29
HETATM   29  C   UNL     1      -5.359  -1.371 -33.776  1.00  0.00     0.012 A 
HETATM   30  C   UNL     1      -6.562  -1.798 -34.355  1.00  0.00     0.015 A 
HETATM   31  C   UNL     1      -6.715  -3.116 -34.787  1.00  0.00     0.001 A 
HETATM   32  C   UNL     1      -5.660  -4.018 -34.658  1.00  0.00     0.000 A 
HETATM   33  C   UNL     1      -4.451  -3.600 -34.108  1.00  0.00     0.001 A 
HETATM   34  C   UNL     1      -4.295  -2.280 -33.678  1.00  0.00     0.015 A 
ENDBRANCH   1  29
TORSDOF 7
ENDMDL
MODEL 2
REMARK VINA RESULT:      -9.7      0.351      3.513
REMARK  7 active torsions:
REMARK  status: ('A' for Active; 'I' for Inactive)
REMARK    1  A    between atoms: C_4  and  C_5 
REMARK    2  A    between atoms: N_6  and  C_7 
REMARK    3  A    between atoms: C_14  and  C_15 
REMARK       I    between atoms: C_15  and  N_16 
REMARK    4  A    between atoms: N_16  and  N_17 
REMARK       I    between atoms: N_17  and  C_18 
REMARK    5  A    between atoms: C_18  and  C_19 
REMARK    6  A    between atoms: C_19  and  C_20 
REMARK    7  A    between atoms: C_23  and  O_24 
ROOT
HETATM    1  C   UNL     1      -6.305   1.055 -32.938  1.00  0.00     0.164 C 
HETATM    2  N   UNL     1      -5.333   0.163 -33.385  1.00  0.00    -0.213 N 
HETATM    3  N   UNL     1      -4.111   0.767 -33.327  1.00  0.00    -0.139 NA
HETATM    4  C   UNL     1      -4.370   1.904 -32.660  1.00  0.00     0.241 C 
HETATM    5  N   UNL     1      -5.701   2.096 -32.392  1.00  0.00    -0.202 NA
ENDROOT
BRANCH   4   6
HETATM    6  C   UNL     1      -3.319   2.861 -32.264  1.00  0.00     0.309 C 
HETATM    7  N   UNL     1      -3.138   3.897 -33.165  1.00  0.00    -0.261 N 
HETATM    8  H   UNL     1      -3.670   3.942 -34.036  1.00  0.00     0.190 HD
HETATM    9  O   UNL     1      -2.644   2.767 -31.239  1.00  0.00    -0.262 OA
BRANCH   7  10
HETATM   10  N   UNL     1      -2.114   4.821 -32.953  1.00  0.00    -0.267 N 
HETATM   11  C   UNL     1      -2.131   6.009 -33.653  1.00  0.00     0.240 C 
HETATM   12  O   UNL     1      -3.011   6.297 -34.462  1.00  0.00    -0.272 OA
HETATM   13  H   UNL     1      -1.448   4.607 -32.213  1.00  0.00     0.190 HD
BRANCH  11  14
HETATM   14  C   UNL     1      -0.957   6.919 -33.348  1.00  0.00     0.143 C 
BRANCH  14  15
HETATM   15  C   UNL     1      -0.835   7.264 -31.885  1.00  0.00    -0.049 A 
HETATM   16  C   UNL     1      -1.824   8.025 -31.242  1.00  0.00     0.010 A 
HETATM   17  C   UNL     1      -1.719   8.322 -29.880  1.00  0.00     0.037 A 
HETATM   18  C   UNL     1      -0.623   7.858 -29.161  1.00  0.00     0.065 A 
HETATM   19  C   UNL     1       0.368   7.108 -29.780  1.00  0.00     0.037 A 
HETATM   20  C   UNL     1       0.263   6.811 -31.140  1.00  0.00     0.010 A 
BRANCH  18  21
HETATM   21  O   UNL     1      -0.485   8.117 -27.830  1.00  0.00    -0.361 OA
HETATM   22  H   UNL     1       0.432   7.933 -27.570  1.00  0.00     0.217 HD
ENDBRANCH  18  21
ENDBRANCH  14  15
ENDBRANCH  11  14
ENDBRANCH   7  10
ENDBRANCH   4   6
BRANCH   2  23
HETATM   23  C   UNL     1      -5.429  -1.192 -33.818  1.00  0.00     0.060 A 
HETATM   24  C   UNL     1      -4.314  -2.035 -33.675  1.00  0.00     0.031 A 
HETATM   25  C   UNL     1      -4.376  -3.367 -34.089  1.00  0.00     0.002 A 
HETATM   26  C   UNL     1      -5.553  -3.876 -34.632  1.00  0.00     0.000 A 
HETATM   27  C   UNL     1      -6.673  -3.056 -34.752  1.00  0.00     0.002 A 
HETATM   28  C   UNL     1      -6.617  -1.720 -34.341  1.00  0.00     0.031 A 
ENDBRANCH   2  23
BRANCH   1  29
HETATM   29  C   UNL     1      -7.758   0.952 -33.080  1.00  0.00     0.012 A 
HETATM   30  C   UNL     1      -8.384   1.522 -34.197  1.00  0.00     0.015 A 
HETATM   31  C   UNL     1      -9.765   1.415 -34.371  1.00  0.00     0.001 A 
HETATM   32  C   UNL     1     -10.533   0.724 -33.436  1.00  0.00     0.000 A 
HETATM   33  C   UNL     1      -9.921   0.132 -32.334  1.00  0.00     0.001 A 
HETATM   34  C   UNL     1      -8.539   0.236 -32.160  1.00  0.00     0.015 A 
ENDBRANCH   1  29
TORSDOF 7
ENDMDL
MODEL 3
REMARK VINA RESULT:      -9.4      1.750      2.588
REMARK  7 active torsions:
REMARK  status: ('A' for Active; 'I' for Inactive)
REMARK    1  A    between atoms: C_4  and  C_5 
REMARK    2  A    between atoms: N_6  and  C_7 
REMARK    3  A    between atoms: C_14  and  C_15 
REMARK       I    between atoms: C_15  and  N_16 
REMARK    4  A    between atoms: N_16  and  N_17 
REMARK       I    between atoms: N_17  and  C_18 
REMARK    5  A    between atoms: C_18  and  C_19 
REMARK    6  A    between atoms: C_19  and  C_20 
REMARK    7  A    between atoms: C_23  and  O_24 
ROOT
HETATM    1  C   UNL     1      -4.453   1.149 -32.447  1.00  0.00     0.164 C 
HETATM    2  N   UNL     1      -5.691   1.783 -32.354  1.00  0.00    -0.213 N 
HETATM    3  N   UNL     1      -5.511   3.045 -31.868  1.00  0.00    -0.139 NA
HETATM    4  C   UNL     1      -4.175   3.187 -31.889  1.00  0.00     0.241 C 
HETATM    5  N   UNL     1      -3.504   2.049 -32.258  1.00  0.00    -0.202 NA
ENDROOT
BRANCH   4   6
HETATM    6  C   UNL     1      -3.496   4.448 -31.536  1.00  0.00     0.309 C 
HETATM    7  N   UNL     1      -2.237   4.582 -32.096  1.00  0.00    -0.261 N 
HETATM    8  H   UNL     1      -1.826   3.838 -32.663  1.00  0.00     0.190 HD
HETATM    9  O   UNL     1      -3.977   5.315 -30.805  1.00  0.00    -0.262 OA
BRANCH   7  10
HETATM   10  N   UNL     1      -1.453   5.689 -31.769  1.00  0.00    -0.267 N 
HETATM   11  C   UNL     1      -0.389   5.523 -30.907  1.00  0.00     0.240 C 
HETATM   12  O   UNL     1      -0.095   4.437 -30.408  1.00  0.00    -0.272 OA
HETATM   13  H   UNL     1      -1.653   6.557 -32.262  1.00  0.00     0.190 HD
BRANCH  11  14
HETATM   14  C   UNL     1       0.372   6.801 -30.615  1.00  0.00     0.143 C 
BRANCH  14  15
HETATM   15  C   UNL     1       0.125   7.337 -29.227  1.00  0.00    -0.049 A 
HETATM   16  C   UNL     1      -1.119   7.163 -28.602  1.00  0.00     0.010 A 
HETATM   17  C   UNL     1      -1.336   7.641 -27.306  1.00  0.00     0.037 A 
HETATM   18  C   UNL     1      -0.307   8.293 -26.635  1.00  0.00     0.065 A 
HETATM   19  C   UNL     1       0.929   8.478 -27.239  1.00  0.00     0.037 A 
HETATM   20  C   UNL     1       1.146   8.002 -28.533  1.00  0.00     0.010 A 
BRANCH  18  21
HETATM   21  O   UNL     1      -0.473   8.767 -25.368  1.00  0.00    -0.361 OA
HETATM   22  H   UNL     1       0.400   8.853 -24.952  1.00  0.00     0.217 HD
ENDBRANCH  18  21
ENDBRANCH  14  15
ENDBRANCH  11  14
ENDBRANCH   7  10
ENDBRANCH   4   6
BRANCH   2  23
HETATM   23  C   UNL     1      -7.000   1.343 -32.707  1.00  0.00     0.060 A 
HETATM   24  C   UNL     1      -7.808   0.750 -31.722  1.00  0.00     0.031 A 
HETATM   25  C   UNL     1      -9.095   0.308 -32.034  1.00  0.00     0.002 A 
HETATM   26  C   UNL     1      -9.595   0.469 -33.324  1.00  0.00     0.000 A 
HETATM   27  C   UNL     1      -8.813   1.082 -34.300  1.00  0.00     0.002 A 
HETATM   28  C   UNL     1      -7.522   1.525 -33.994  1.00  0.00     0.031 A 
ENDBRANCH   2  23
BRANCH   1  29
HETATM   29  C   UNL     1      -4.181  -0.275 -32.647  1.00  0.00     0.012 A 
HETATM   30  C   UNL     1      -3.394  -0.964 -31.715  1.00  0.00     0.015 A 
HETATM   31  C   UNL     1      -3.142  -2.329 -31.866  1.00  0.00     0.001 A 
HETATM   32  C   UNL     1      -3.687  -3.022 -32.946  1.00  0.00     0.000 A 
HETATM   33  C   UNL     1      -4.492  -2.355 -33.866  1.00  0.00     0.001 A 
HETATM   34  C   UNL     1      -4.748  -0.990 -33.714  1.00  0.00     0.015 A 
ENDBRANCH   1  29
TORSDOF 7
ENDMDL
MODEL 4
REMARK VINA RESULT:      -9.4      1.763      4.234
REMARK  7 active torsions:
REMARK  status: ('A' for Active; 'I' for Inactive)
REMARK    1  A    between atoms: C_4  and  C_5 
REMARK    2  A    between atoms: N_6  and  C_7 
REMARK    3  A    between atoms: C_14  and  C_15 
REMARK       I    between atoms: C_15  and  N_16 
REMARK    4  A    between atoms: N_16  and  N_17 
REMARK       I    between atoms: N_17  and  C_18 
REMARK    5  A    between atoms: C_18  and  C_19 
REMARK    6  A    between atoms: C_19  and  C_20 
REMARK    7  A    between atoms: C_23  and  O_24 
ROOT
HETATM    1  C   UNL     1      -5.203   1.656 -32.502  1.00  0.00     0.164 C 
HETATM    2  N   UNL     1      -4.079   0.850 -32.676  1.00  0.00    -0.213 N 
HETATM    3  N   UNL     1      -2.972   1.642 -32.776  1.00  0.00    -0.139 NA
HETATM    4  C   UNL     1      -3.443   2.858 -32.450  1.00  0.00     0.241 C 
HETATM    5  N   UNL     1      -4.801   2.892 -32.259  1.00  0.00    -0.202 NA
ENDROOT
BRANCH   4   6
HETATM    6  C   UNL     1      -2.578   4.046 -32.324  1.00  0.00     0.309 C 
HETATM    7  N   UNL     1      -2.280   4.385 -31.015  1.00  0.00    -0.261 N 
HETATM    8  H   UNL     1      -2.674   3.865 -30.229  1.00  0.00     0.190 HD
HETATM    9  O   UNL     1      -2.153   4.700 -33.277  1.00  0.00    -0.262 OA
BRANCH   7  10
HETATM   10  N   UNL     1      -1.543   5.541 -30.756  1.00  0.00    -0.267 N 
HETATM   11  C   UNL     1      -0.192   5.429 -30.500  1.00  0.00     0.240 C 
HETATM   12  O   UNL     1       0.399   4.351 -30.487  1.00  0.00    -0.272 OA
HETATM   13  H   UNL     1      -2.028   6.430 -30.863  1.00  0.00     0.190 HD
BRANCH  11  14
HETATM   14  C   UNL     1       0.492   6.752 -30.216  1.00  0.00     0.143 C 
BRANCH  14  15
HETATM   15  C   UNL     1       0.174   7.305 -28.849  1.00  0.00    -0.049 A 
HETATM   16  C   UNL     1       0.717   6.721 -27.694  1.00  0.00     0.010 A 
HETATM   17  C   UNL     1       0.438   7.252 -26.431  1.00  0.00     0.037 A 
HETATM   18  C   UNL     1      -0.385   8.367 -26.323  1.00  0.00     0.065 A 
HETATM   19  C   UNL     1      -0.935   8.957 -27.454  1.00  0.00     0.037 A 
HETATM   20  C   UNL     1      -0.657   8.427 -28.715  1.00  0.00     0.010 A 
BRANCH  18  21
HETATM   21  O   UNL     1      -0.675   8.922 -25.113  1.00  0.00    -0.361 OA
HETATM   22  H   UNL     1      -0.047   9.642 -24.942  1.00  0.00     0.217 HD
ENDBRANCH  18  21
ENDBRANCH  14  15
ENDBRANCH  11  14
ENDBRANCH   7  10
ENDBRANCH   4   6
BRANCH   2  23
HETATM   23  C   UNL     1      -3.938  -0.568 -32.720  1.00  0.00     0.060 A 
HETATM   24  C   UNL     1      -4.526  -1.279 -33.780  1.00  0.00     0.031 A 
HETATM   25  C   UNL     1      -4.406  -2.669 -33.851  1.00  0.00     0.002 A 
HETATM   26  C   UNL     1      -3.686  -3.359 -32.880  1.00  0.00     0.000 A 
HETATM   27  C   UNL     1      -3.075  -2.660 -31.841  1.00  0.00     0.002 A 
HETATM   28  C   UNL     1      -3.193  -1.268 -31.762  1.00  0.00     0.031 A 
ENDBRANCH   2  23
BRANCH   1  29
HETATM   29  C   UNL     1      -6.612   1.279 -32.625  1.00  0.00     0.012 A 
HETATM   30  C   UNL     1      -7.226   1.307 -33.884  1.00  0.00     0.015 A 
HETATM   31  C   UNL     1      -8.561   0.926 -34.033  1.00  0.00     0.001 A 
HETATM   32  C   UNL     1      -9.291   0.500 -32.926  1.00  0.00     0.000 A 
HETATM   33  C   UNL     1      -8.686   0.444 -31.672  1.00  0.00     0.001 A 
HETATM   34  C   UNL     1      -7.349   0.822 -31.522  1.00  0.00     0.015 A 
ENDBRANCH   1  29
TORSDOF 7
ENDMDL
MODEL 5
REMARK VINA RESULT:      -9.3      1.966      2.769
REMARK  7 active torsions:
REMARK  status: ('A' for Active; 'I' for Inactive)
REMARK    1  A    between atoms: C_4  and  C_5 
REMARK    2  A    between atoms: N_6  and  C_7 
REMARK    3  A    between atoms: C_14  and  C_15 
REMARK       I    between atoms: C_15  and  N_16 
REMARK    4  A    between atoms: N_16  and  N_17 
REMARK       I    between atoms: N_17  and  C_18 
REMARK    5  A    between atoms: C_18  and  C_19 
REMARK    6  A    between atoms: C_19  and  C_20 
REMARK    7  A    between atoms: C_23  and  O_24 
ROOT
HETATM    1  C   UNL     1      -4.131   0.609 -32.520  1.00  0.00     0.164 C 
HETATM    2  N   UNL     1      -5.308   1.352 -32.441  1.00  0.00    -0.213 N 
HETATM    3  N   UNL     1      -5.019   2.596 -31.961  1.00  0.00    -0.139 NA
HETATM    4  C   UNL     1      -3.676   2.618 -31.972  1.00  0.00     0.241 C 
HETATM    5  N   UNL     1      -3.107   1.421 -32.328  1.00  0.00    -0.202 NA
ENDROOT
BRANCH   4   6
HETATM    6  C   UNL     1      -2.889   3.814 -31.619  1.00  0.00     0.309 C 
HETATM    7  N   UNL     1      -3.557   4.699 -30.790  1.00  0.00    -0.261 N 
HETATM    8  H   UNL     1      -4.523   4.531 -30.502  1.00  0.00     0.190 HD
HETATM    9  O   UNL     1      -1.744   4.036 -32.018  1.00  0.00    -0.262 OA
BRANCH   7  10
HETATM   10  N   UNL     1      -2.956   5.913 -30.454  1.00  0.00    -0.267 N 
HETATM   11  C   UNL     1      -3.533   6.696 -29.476  1.00  0.00     0.240 C 
HETATM   12  O   UNL     1      -4.560   6.375 -28.881  1.00  0.00    -0.272 OA
HETATM   13  H   UNL     1      -2.058   6.118 -30.889  1.00  0.00     0.190 HD
BRANCH  11  14
HETATM   14  C   UNL     1      -2.797   7.996 -29.215  1.00  0.00     0.143 C 
BRANCH  14  15
HETATM   15  C   UNL     1      -1.520   7.811 -28.435  1.00  0.00    -0.049 A 
HETATM   16  C   UNL     1      -0.277   8.122 -29.008  1.00  0.00     0.010 A 
HETATM   17  C   UNL     1       0.902   7.972 -28.273  1.00  0.00     0.037 A 
HETATM   18  C   UNL     1       0.838   7.510 -26.963  1.00  0.00     0.065 A 
HETATM   19  C   UNL     1      -0.382   7.193 -26.380  1.00  0.00     0.037 A 
HETATM   20  C   UNL     1      -1.559   7.343 -27.114  1.00  0.00     0.010 A 
BRANCH  18  21
HETATM   21  O   UNL     1       1.962   7.357 -26.207  1.00  0.00    -0.361 OA
HETATM   22  H   UNL     1       1.702   7.079 -25.315  1.00  0.00     0.217 HD
ENDBRANCH  18  21
ENDBRANCH  14  15
ENDBRANCH  11  14
ENDBRANCH   7  10
ENDBRANCH   4   6
BRANCH   2  23
HETATM   23  C   UNL     1      -6.649   1.029 -32.802  1.00  0.00     0.060 A 
HETATM   24  C   UNL     1      -7.015   1.056 -34.158  1.00  0.00     0.031 A 
HETATM   25  C   UNL     1      -8.321   0.746 -34.545  1.00  0.00     0.002 A 
HETATM   26  C   UNL     1      -9.266   0.387 -33.587  1.00  0.00     0.000 A 
HETATM   27  C   UNL     1      -8.905   0.329 -32.243  1.00  0.00     0.002 A 
HETATM   28  C   UNL     1      -7.600   0.641 -31.849  1.00  0.00     0.031 A 
ENDBRANCH   2  23
BRANCH   1  29
HETATM   29  C   UNL     1      -3.988  -0.835 -32.710  1.00  0.00     0.012 A 
HETATM   30  C   UNL     1      -4.506  -1.434 -33.866  1.00  0.00     0.015 A 
HETATM   31  C   UNL     1      -4.359  -2.805 -34.085  1.00  0.00     0.001 A 
HETATM   32  C   UNL     1      -3.680  -3.589 -33.155  1.00  0.00     0.000 A 
HETATM   33  C   UNL     1      -3.138  -3.003 -32.013  1.00  0.00     0.001 A 
HETATM   34  C   UNL     1      -3.282  -1.631 -31.795  1.00  0.00     0.015 A 
ENDBRANCH   1  29
TORSDOF 7
ENDMDL
MODEL 6
REMARK VINA RESULT:      -8.9      1.732      4.160
REMARK  7 active torsions:
REMARK  status: ('A' for Active; 'I' for Inactive)
REMARK    1  A    between atoms: C_4  and  C_5 
REMARK    2  A    between atoms: N_6  and  C_7 
REMARK    3  A    between atoms: C_14  and  C_15 
REMARK       I    between atoms: C_15  and  N_16 
REMARK    4  A    between atoms: N_16  and  N_17 
REMARK       I    between atoms: N_17  and  C_18 
REMARK    5  A    between atoms: C_18  and  C_19 
REMARK    6  A    between atoms: C_19  and  C_20 
REMARK    7  A    between atoms: C_23  and  O_24 
ROOT
HETATM    1  C   UNL     1      -8.116   2.838 -33.807  1.00  0.00     0.164 C 
HETATM    2  N   UNL     1      -6.949   2.092 -33.962  1.00  0.00    -0.213 N 
HETATM    3  N   UNL     1      -5.878   2.937 -33.992  1.00  0.00    -0.139 NA
HETATM    4  C   UNL     1      -6.419   4.118 -33.647  1.00  0.00     0.241 C 
HETATM    5  N   UNL     1      -7.783   4.082 -33.509  1.00  0.00    -0.202 NA
ENDROOT
BRANCH   4   6
HETATM    6  C   UNL     1      -5.618   5.341 -33.450  1.00  0.00     0.309 C 
HETATM    7  N   UNL     1      -4.293   5.208 -33.828  1.00  0.00    -0.261 N 
HETATM    8  H   UNL     1      -3.924   4.319 -34.169  1.00  0.00     0.190 HD
HETATM    9  O   UNL     1      -6.059   6.393 -32.986  1.00  0.00    -0.262 OA
BRANCH   7  10
HETATM   10  N   UNL     1      -3.407   6.265 -33.610  1.00  0.00    -0.267 N 
HETATM   11  C   UNL     1      -2.081   5.984 -33.355  1.00  0.00     0.240 C 
HETATM   12  O   UNL     1      -1.637   4.838 -33.310  1.00  0.00    -0.272 OA
HETATM   13  H   UNL     1      -3.772   7.206 -33.744  1.00  0.00     0.190 HD
BRANCH  11  14
HETATM   14  C   UNL     1      -1.226   7.213 -33.117  1.00  0.00     0.143 C 
BRANCH  14  15
HETATM   15  C   UNL     1      -0.949   7.471 -31.657  1.00  0.00    -0.049 A 
HETATM   16  C   UNL     1      -1.827   8.247 -30.886  1.00  0.00     0.010 A 
HETATM   17  C   UNL     1      -1.578   8.464 -29.528  1.00  0.00     0.037 A 
HETATM   18  C   UNL     1      -0.449   7.903 -28.940  1.00  0.00     0.065 A 
HETATM   19  C   UNL     1       0.434   7.136 -29.688  1.00  0.00     0.037 A 
HETATM   20  C   UNL     1       0.186   6.919 -31.044  1.00  0.00     0.010 A 
BRANCH  18  21
HETATM   21  O   UNL     1      -0.173   8.082 -27.618  1.00  0.00    -0.361 OA
HETATM   22  H   UNL     1       0.751   7.833 -27.456  1.00  0.00     0.217 HD
ENDBRANCH  18  21
ENDBRANCH  14  15
ENDBRANCH  11  14
ENDBRANCH   7  10
ENDBRANCH   4   6
BRANCH   2  23
HETATM   23  C   UNL     1      -6.739   0.684 -34.044  1.00  0.00     0.060 A 
HETATM   24  C   UNL     1      -6.148   0.018 -32.957  1.00  0.00     0.031 A 
HETATM   25  C   UNL     1      -5.928  -1.360 -33.006  1.00  0.00     0.002 A 
HETATM   26  C   UNL     1      -6.311  -2.089 -34.129  1.00  0.00     0.000 A 
HETATM   27  C   UNL     1      -6.924  -1.443 -35.200  1.00  0.00     0.002 A 
HETATM   28  C   UNL     1      -7.145  -0.062 -35.158  1.00  0.00     0.031 A 
ENDBRANCH   2  23
BRANCH   1  29
HETATM   29  C   UNL     1      -9.500   2.400 -33.997  1.00  0.00     0.012 A 
HETATM   30  C   UNL     1      -9.960   1.259 -33.326  1.00  0.00     0.015 A 
HETATM   31  C   UNL     1     -11.282   0.834 -33.468  1.00  0.00     0.001 A 
HETATM   32  C   UNL     1     -12.162   1.555 -34.273  1.00  0.00     0.000 A 
HETATM   33  C   UNL     1     -11.725   2.705 -34.926  1.00  0.00     0.001 A 
HETATM   34  C   UNL     1     -10.402   3.133 -34.782  1.00  0.00     0.015 A 
ENDBRANCH   1  29
TORSDOF 7
ENDMDL
MODEL 7
REMARK VINA RESULT:      -8.9      2.020      2.845
REMARK  7 active torsions:
REMARK  status: ('A' for Active; 'I' for Inactive)
REMARK    1  A    between atoms: C_4  and  C_5 
REMARK    2  A    between atoms: N_6  and  C_7 
REMARK    3  A    between atoms: C_14  and  C_15 
REMARK       I    between atoms: C_15  and  N_16 
REMARK    4  A    between atoms: N_16  and  N_17 
REMARK       I    between atoms: N_17  and  C_18 
REMARK    5  A    between atoms: C_18  and  C_19 
REMARK    6  A    between atoms: C_19  and  C_20 
REMARK    7  A    between atoms: C_23  and  O_24 
ROOT
HETATM    1  C   UNL     1      -5.990   2.239 -32.898  1.00  0.00     0.164 C 
HETATM    2  N   UNL     1      -6.892   3.238 -32.535  1.00  0.00    -0.213 N 
HETATM    3  N   UNL     1      -6.255   4.154 -31.750  1.00  0.00    -0.139 NA
HETATM    4  C   UNL     1      -4.966   3.786 -31.847  1.00  0.00     0.241 C 
HETATM    5  N   UNL     1      -4.773   2.629 -32.560  1.00  0.00    -0.202 NA
ENDROOT
BRANCH   4   6
HETATM    6  C   UNL     1      -3.864   4.550 -31.233  1.00  0.00     0.309 C 
HETATM    7  N   UNL     1      -2.613   3.992 -31.437  1.00  0.00    -0.261 N 
HETATM    8  H   UNL     1      -2.502   3.107 -31.935  1.00  0.00     0.190 HD
HETATM    9  O   UNL     1      -4.014   5.588 -30.586  1.00  0.00    -0.262 OA
BRANCH   7  10
HETATM   10  N   UNL     1      -1.496   4.570 -30.832  1.00  0.00    -0.267 N 
HETATM   11  C   UNL     1      -0.629   5.314 -31.605  1.00  0.00     0.240 C 
HETATM   12  O   UNL     1      -0.793   5.494 -32.810  1.00  0.00    -0.272 OA
HETATM   13  H   UNL     1      -1.427   4.489 -29.820  1.00  0.00     0.190 HD
BRANCH  11  14
HETATM   14  C   UNL     1       0.553   5.873 -30.838  1.00  0.00     0.143 C 
BRANCH  14  15
HETATM   15  C   UNL     1       0.162   6.537 -29.541  1.00  0.00    -0.049 A 
HETATM   16  C   UNL     1      -0.541   7.752 -29.540  1.00  0.00     0.010 A 
HETATM   17  C   UNL     1      -0.922   8.350 -28.337  1.00  0.00     0.037 A 
HETATM   18  C   UNL     1      -0.600   7.734 -27.132  1.00  0.00     0.065 A 
HETATM   19  C   UNL     1       0.098   6.534 -27.113  1.00  0.00     0.037 A 
HETATM   20  C   UNL     1       0.479   5.936 -28.314  1.00  0.00     0.010 A 
BRANCH  18  21
HETATM   21  O   UNL     1      -0.961   8.280 -25.936  1.00  0.00    -0.361 OA
HETATM   22  H   UNL     1      -0.160   8.420 -25.405  1.00  0.00     0.217 HD
ENDBRANCH  18  21
ENDBRANCH  14  15
ENDBRANCH  11  14
ENDBRANCH   7  10
ENDBRANCH   4   6
BRANCH   2  23
HETATM   23  C   UNL     1      -8.262   3.435 -32.878  1.00  0.00     0.060 A 
HETATM   24  C   UNL     1      -8.586   4.359 -33.885  1.00  0.00     0.031 A 
HETATM   25  C   UNL     1      -9.919   4.576 -34.244  1.00  0.00     0.002 A 
HETATM   26  C   UNL     1     -10.936   3.861 -33.617  1.00  0.00     0.000 A 
HETATM   27  C   UNL     1     -10.623   2.921 -32.638  1.00  0.00     0.002 A 
HETATM   28  C   UNL     1      -9.291   2.701 -32.272  1.00  0.00     0.031 A 
ENDBRANCH   2  23
BRANCH   1  29
HETATM   29  C   UNL     1      -6.279   0.932 -33.489  1.00  0.00     0.012 A 
HETATM   30  C   UNL     1      -6.974   0.864 -34.704  1.00  0.00     0.015 A 
HETATM   31  C   UNL     1      -7.240  -0.368 -35.303  1.00  0.00     0.001 A 
HETATM   32  C   UNL     1      -6.802  -1.545 -34.700  1.00  0.00     0.000 A 
HETATM   33  C   UNL     1      -6.088  -1.490 -33.505  1.00  0.00     0.001 A 
HETATM   34  C   UNL     1      -5.819  -0.258 -32.905  1.00  0.00     0.015 A 
ENDBRANCH   1  29
TORSDOF 7
ENDMDL
MODEL 8
REMARK VINA RESULT:      -8.8      3.099      9.590
REMARK  7 active torsions:
REMARK  status: ('A' for Active; 'I' for Inactive)
REMARK    1  A    between atoms: C_4  and  C_5 
REMARK    2  A    between atoms: N_6  and  C_7 
REMARK    3  A    between atoms: C_14  and  C_15 
REMARK       I    between atoms: C_15  and  N_16 
REMARK    4  A    between atoms: N_16  and  N_17 
REMARK       I    between atoms: N_17  and  C_18 
REMARK    5  A    between atoms: C_18  and  C_19 
REMARK    6  A    between atoms: C_19  and  C_20 
REMARK    7  A    between atoms: C_23  and  O_24 
ROOT
HETATM    1  C   UNL     1      -3.536   5.324 -31.309  1.00  0.00     0.164 C 
HETATM    2  N   UNL     1      -4.704   5.817 -30.729  1.00  0.00    -0.213 N 
HETATM    3  N   UNL     1      -5.783   5.265 -31.356  1.00  0.00    -0.139 NA
HETATM    4  C   UNL     1      -5.226   4.319 -32.132  1.00  0.00     0.241 C 
HETATM    5  N   UNL     1      -3.855   4.320 -32.107  1.00  0.00    -0.202 NA
ENDROOT
BRANCH   4   6
HETATM    6  C   UNL     1      -6.020   3.376 -32.943  1.00  0.00     0.309 C 
HETATM    7  N   UNL     1      -5.430   2.132 -33.092  1.00  0.00    -0.261 N 
HETATM    8  H   UNL     1      -4.508   1.932 -32.701  1.00  0.00     0.190 HD
HETATM    9  O   UNL     1      -7.106   3.646 -33.458  1.00  0.00    -0.262 OA
BRANCH   7  10
HETATM   10  N   UNL     1      -6.036   1.178 -33.911  1.00  0.00    -0.267 N 
HETATM   11  C   UNL     1      -6.658   0.095 -33.326  1.00  0.00     0.240 C 
HETATM   12  O   UNL     1      -6.703  -0.074 -32.108  1.00  0.00    -0.272 OA
HETATM   13  H   UNL     1      -6.071   1.382 -34.908  1.00  0.00     0.190 HD
BRANCH  11  14
HETATM   14  C   UNL     1      -7.262  -0.878 -34.319  1.00  0.00     0.143 C 
BRANCH  14  15
HETATM   15  C   UNL     1      -6.503  -2.178 -34.415  1.00  0.00    -0.049 A 
HETATM   16  C   UNL     1      -5.116  -2.217 -34.205  1.00  0.00     0.010 A 
HETATM   17  C   UNL     1      -4.422  -3.428 -34.271  1.00  0.00     0.037 A 
HETATM   18  C   UNL     1      -5.114  -4.601 -34.548  1.00  0.00     0.065 A 
HETATM   19  C   UNL     1      -6.486  -4.582 -34.764  1.00  0.00     0.037 A 
HETATM   20  C   UNL     1      -7.180  -3.374 -34.697  1.00  0.00     0.010 A 
BRANCH  18  21
HETATM   21  O   UNL     1      -4.477  -5.805 -34.614  1.00  0.00    -0.361 OA
HETATM   22  H   UNL     1      -3.873  -5.878 -33.858  1.00  0.00     0.217 HD
ENDBRANCH  18  21
ENDBRANCH  14  15
ENDBRANCH  11  14
ENDBRANCH   7  10
ENDBRANCH   4   6
BRANCH   2  23
HETATM   23  C   UNL     1      -4.905   6.712 -29.637  1.00  0.00     0.060 A 
HETATM   24  C   UNL     1      -4.788   6.222 -28.325  1.00  0.00     0.031 A 
HETATM   25  C   UNL     1      -4.979   7.072 -27.234  1.00  0.00     0.002 A 
HETATM   26  C   UNL     1      -5.270   8.418 -27.439  1.00  0.00     0.000 A 
HETATM   27  C   UNL     1      -5.360   8.919 -28.736  1.00  0.00     0.002 A 
HETATM   28  C   UNL     1      -5.171   8.073 -29.834  1.00  0.00     0.031 A 
ENDBRANCH   2  23
BRANCH   1  29
HETATM   29  C   UNL     1      -2.171   5.830 -31.159  1.00  0.00     0.012 A 
HETATM   30  C   UNL     1      -1.122   4.928 -30.940  1.00  0.00     0.015 A 
HETATM   31  C   UNL     1       0.193   5.381 -30.820  1.00  0.00     0.001 A 
HETATM   32  C   UNL     1       0.474   6.741 -30.932  1.00  0.00     0.000 A 
HETATM   33  C   UNL     1      -0.557   7.646 -31.175  1.00  0.00     0.001 A 
HETATM   34  C   UNL     1      -1.873   7.194 -31.298  1.00  0.00     0.015 A 
ENDBRANCH   1  29
TORSDOF 7
ENDMDL
MODEL 9
REMARK VINA RESULT:      -8.8      2.570      4.638
REMARK  7 active torsions:
REMARK  status: ('A' for Active; 'I' for Inactive)
REMARK    1  A    between atoms: C_4  and  C_5 
REMARK    2  A    between atoms: N_6  and  C_7 
REMARK    3  A    between atoms: C_14  and  C_15 
REMARK       I    between atoms: C_15  and  N_16 
REMARK    4  A    between atoms: N_16  and  N_17 
REMARK       I    between atoms: N_17  and  C_18 
REMARK    5  A    between atoms: C_18  and  C_19 
REMARK    6  A    between atoms: C_19  and  C_20 
REMARK    7  A    between atoms: C_23  and  O_24 
ROOT
HETATM    1  C   UNL     1      -5.924   3.312 -31.941  1.00  0.00     0.164 C 
HETATM    2  N   UNL     1      -5.432   2.373 -32.846  1.00  0.00    -0.213 N 
HETATM    3  N   UNL     1      -4.134   2.675 -33.141  1.00  0.00    -0.139 NA
HETATM    4  C   UNL     1      -3.842   3.642 -32.254  1.00  0.00     0.241 C 
HETATM    5  N   UNL     1      -4.913   4.037 -31.495  1.00  0.00    -0.202 NA
ENDROOT
BRANCH   4   6
HETATM    6  C   UNL     1      -2.496   4.230 -32.123  1.00  0.00     0.309 C 
HETATM    7  N   UNL     1      -2.114   4.465 -30.812  1.00  0.00    -0.261 N 
HETATM    8  H   UNL     1      -2.747   4.278 -30.033  1.00  0.00     0.190 HD
HETATM    9  O   UNL     1      -1.761   4.504 -33.072  1.00  0.00    -0.262 OA
BRANCH   7  10
HETATM   10  N   UNL     1      -0.898   5.101 -30.555  1.00  0.00    -0.267 N 
HETATM   11  C   UNL     1      -0.903   6.438 -30.215  1.00  0.00     0.240 C 
HETATM   12  O   UNL     1      -1.934   7.103 -30.128  1.00  0.00    -0.272 OA
HETATM   13  H   UNL     1      -0.066   4.515 -30.540  1.00  0.00     0.190 HD
BRANCH  11  14
HETATM   14  C   UNL     1       0.478   7.017 -29.978  1.00  0.00     0.143 C 
BRANCH  14  15
HETATM   15  C   UNL     1       0.712   7.431 -28.547  1.00  0.00    -0.049 A 
HETATM   16  C   UNL     1       0.165   6.691 -27.487  1.00  0.00     0.010 A 
HETATM   17  C   UNL     1       0.406   7.064 -26.161  1.00  0.00     0.037 A 
HETATM   18  C   UNL     1       1.193   8.179 -25.896  1.00  0.00     0.065 A 
HETATM   19  C   UNL     1       1.740   8.926 -26.931  1.00  0.00     0.037 A 
HETATM   20  C   UNL     1       1.500   8.554 -28.254  1.00  0.00     0.010 A 
BRANCH  18  21
HETATM   21  O   UNL     1       1.459   8.573 -24.618  1.00  0.00    -0.361 OA
HETATM   22  H   UNL     1       0.741   8.266 -24.042  1.00  0.00     0.217 HD
ENDBRANCH  18  21
ENDBRANCH  14  15
ENDBRANCH  11  14
ENDBRANCH   7  10
ENDBRANCH   4   6
BRANCH   2  23
HETATM   23  C   UNL     1      -6.035   1.218 -33.422  1.00  0.00     0.060 A 
HETATM   24  C   UNL     1      -5.914  -0.016 -32.761  1.00  0.00     0.031 A 
HETATM   25  C   UNL     1      -6.493  -1.167 -33.300  1.00  0.00     0.002 A 
HETATM   26  C   UNL     1      -7.214  -1.096 -34.489  1.00  0.00     0.000 A 
HETATM   27  C   UNL     1      -7.365   0.128 -35.137  1.00  0.00     0.002 A 
HETATM   28  C   UNL     1      -6.785   1.285 -34.604  1.00  0.00     0.031 A 
ENDBRANCH   2  23
BRANCH   1  29
HETATM   29  C   UNL     1      -7.316   3.554 -31.560  1.00  0.00     0.012 A 
HETATM   30  C   UNL     1      -8.048   2.533 -30.938  1.00  0.00     0.015 A 
HETATM   31  C   UNL     1      -9.369   2.745 -30.540  1.00  0.00     0.001 A 
HETATM   32  C   UNL     1      -9.968   3.986 -30.747  1.00  0.00     0.000 A 
HETATM   33  C   UNL     1      -9.244   5.018 -31.341  1.00  0.00     0.001 A 
HETATM   34  C   UNL     1      -7.921   4.807 -31.737  1.00  0.00     0.015 A 
ENDBRANCH   1  29
TORSDOF 7
ENDMDL
MODEL 10
REMARK VINA RESULT:      -8.7      2.993      9.655
REMARK  7 active torsions:
REMARK  status: ('A' for Active; 'I' for Inactive)
REMARK    1  A    between atoms: C_4  and  C_5 
REMARK    2  A    between atoms: N_6  and  C_7 
REMARK    3  A    between atoms: C_14  and  C_15 
REMARK       I    between atoms: C_15  and  N_16 
REMARK    4  A    between atoms: N_16  and  N_17 
REMARK       I    between atoms: N_17  and  C_18 
REMARK    5  A    between atoms: C_18  and  C_19 
REMARK    6  A    between atoms: C_19  and  C_20 
REMARK    7  A    between atoms: C_23  and  O_24 
ROOT
HETATM    1  C   UNL     1      -3.226   5.665 -31.313  1.00  0.00     0.164 C 
HETATM    2  N   UNL     1      -4.493   6.069 -30.895  1.00  0.00    -0.213 N 
HETATM    3  N   UNL     1      -5.430   5.557 -31.745  1.00  0.00    -0.139 NA
HETATM    4  C   UNL     1      -4.715   4.706 -32.501  1.00  0.00     0.241 C 
HETATM    5  N   UNL     1      -3.367   4.739 -32.245  1.00  0.00    -0.202 NA
ENDROOT
BRANCH   4   6
HETATM    6  C   UNL     1      -5.324   3.831 -33.519  1.00  0.00     0.309 C 
HETATM    7  N   UNL     1      -5.567   2.542 -33.077  1.00  0.00    -0.261 N 
HETATM    8  H   UNL     1      -5.297   2.243 -32.137  1.00  0.00     0.190 HD
HETATM    9  O   UNL     1      -5.595   4.185 -34.668  1.00  0.00    -0.262 OA
BRANCH   7  10
HETATM   10  N   UNL     1      -6.059   1.590 -33.970  1.00  0.00    -0.267 N 
HETATM   11  C   UNL     1      -6.330   0.318 -33.509  1.00  0.00     0.240 C 
HETATM   12  O   UNL     1      -6.156  -0.021 -32.340  1.00  0.00    -0.272 OA
HETATM   13  H   UNL     1      -6.285   1.913 -34.909  1.00  0.00     0.190 HD
BRANCH  11  14
HETATM   14  C   UNL     1      -6.842  -0.628 -34.578  1.00  0.00     0.143 C 
BRANCH  14  15
HETATM   15  C   UNL     1      -6.215  -1.998 -34.510  1.00  0.00    -0.049 A 
HETATM   16  C   UNL     1      -6.992  -3.153 -34.691  1.00  0.00     0.010 A 
HETATM   17  C   UNL     1      -6.402  -4.419 -34.651  1.00  0.00     0.037 A 
HETATM   18  C   UNL     1      -5.034  -4.531 -34.429  1.00  0.00     0.065 A 
HETATM   19  C   UNL     1      -4.250  -3.401 -34.243  1.00  0.00     0.037 A 
HETATM   20  C   UNL     1      -4.838  -2.136 -34.284  1.00  0.00     0.010 A 
BRANCH  18  21
HETATM   21  O   UNL     1      -4.418  -5.746 -34.390  1.00  0.00    -0.361 OA
HETATM   22  H   UNL     1      -5.043  -6.422 -34.696  1.00  0.00     0.217 HD
ENDBRANCH  18  21
ENDBRANCH  14  15
ENDBRANCH  11  14
ENDBRANCH   7  10
ENDBRANCH   4   6
BRANCH   2  23
HETATM   23  C   UNL     1      -4.908   6.845 -29.773  1.00  0.00     0.060 A 
HETATM   24  C   UNL     1      -4.976   8.243 -29.898  1.00  0.00     0.031 A 
HETATM   25  C   UNL     1      -5.379   9.031 -28.818  1.00  0.00     0.002 A 
HETATM   26  C   UNL     1      -5.736   8.433 -27.612  1.00  0.00     0.000 A 
HETATM   27  C   UNL     1      -5.700   7.046 -27.486  1.00  0.00     0.002 A 
HETATM   28  C   UNL     1      -5.295   6.251 -28.564  1.00  0.00     0.031 A 
ENDBRANCH   2  23
BRANCH   1  29
HETATM   29  C   UNL     1      -1.927   6.186 -30.888  1.00  0.00     0.012 A 
HETATM   30  C   UNL     1      -1.726   6.523 -29.542  1.00  0.00     0.015 A 
HETATM   31  C   UNL     1      -0.488   6.996 -29.104  1.00  0.00     0.001 A 
HETATM   32  C   UNL     1       0.567   7.125 -30.005  1.00  0.00     0.000 A 
HETATM   33  C   UNL     1       0.388   6.770 -31.341  1.00  0.00     0.001 A 
HETATM   34  C   UNL     1      -0.849   6.294 -31.780  1.00  0.00     0.015 A 
ENDBRANCH   1  29
TORSDOF 7
ENDMDL
