MODEL 1
REMARK VINA RESULT:      -9.5      0.000      0.000
REMARK  6 active torsions:
REMARK  status: ('A' for Active; 'I' for Inactive)
REMARK    1  A    between atoms: O_2  and  C_3 
REMARK    2  A    between atoms: C_6  and  C_7 
REMARK    3  A    between atoms: C_12  and  C_13 
REMARK       I    between atoms: C_13  and  N_14 
REMARK    4  A    between atoms: N_14  and  C_15 
REMARK    5  A    between atoms: C_17  and  O_18 
REMARK    6  A    between atoms: C_24  and  C_25 
ROOT
HETATM    1  C   UNL     1      -2.064   5.998 -31.235  1.00  0.00     0.118 C 
HETATM    2  N   UNL     1      -3.111   5.116 -30.721  1.00  0.00    -0.366 N 
HETATM    3  C   UNL     1      -3.487   3.988 -31.356  1.00  0.00     0.123 A 
HETATM    4  N   UNL     1      -3.069   3.718 -32.627  1.00  0.00    -0.240 N 
HETATM    5  N   UNL     1      -3.404   2.492 -33.068  1.00  0.00    -0.165 NA
HETATM    6  C   UNL     1      -4.158   1.996 -32.057  1.00  0.00     0.148 A 
HETATM    7  C   UNL     1      -4.257   2.922 -30.981  1.00  0.00     0.089 A 
HETATM    8  C   UNL     1      -2.202   4.605 -33.377  1.00  0.00     0.221 C 
HETATM    9  C   UNL     1      -1.281   5.346 -32.396  1.00  0.00     0.066 C 
HETATM   10  H   UNL     1      -3.429   5.322 -29.774  1.00  0.00     0.161 HD
ENDROOT
BRANCH   6  11
HETATM   11  C   UNL     1      -4.733   0.639 -32.098  1.00  0.00     0.276 C 
HETATM   12  N   UNL     1      -4.692   0.103 -33.370  1.00  0.00    -0.322 N 
HETATM   13  H   UNL     1      -4.310   0.741 -34.063  1.00  0.00     0.169 HD
HETATM   14  O   UNL     1      -5.159   0.094 -31.085  1.00  0.00    -0.266 OA
BRANCH  12  15
HETATM   15  C   UNL     1      -5.071  -1.184 -33.788  1.00  0.00     0.037 A 
HETATM   16  C   UNL     1      -4.213  -2.286 -33.782  1.00  0.00     0.066 A 
HETATM   17  C   UNL     1      -4.672  -3.524 -34.233  1.00  0.00     0.067 A 
HETATM   18  C   UNL     1      -5.974  -3.684 -34.688  1.00  0.00     0.036 A 
HETATM   19  C   UNL     1      -6.836  -2.590 -34.695  1.00  0.00     0.005 A 
HETATM   20  C   UNL     1      -6.386  -1.346 -34.247  1.00  0.00     0.029 A 
BRANCH  17  21
HETATM   21  O   UNL     1      -3.857  -4.619 -34.243  1.00  0.00    -0.361 OA
HETATM   22  H   UNL     1      -2.955  -4.327 -34.458  1.00  0.00     0.217 HD
ENDBRANCH  17  21
ENDBRANCH  12  15
ENDBRANCH   6  11
BRANCH   8  23
HETATM   23  C   UNL     1      -3.026   5.543 -34.228  1.00  0.00     0.409 C 
HETATM   24  F   UNL     1      -4.270   5.727 -33.733  1.00  0.00    -0.169 F 
HETATM   25  F   UNL     1      -2.464   6.758 -34.396  1.00  0.00    -0.169 F 
HETATM   26  F   UNL     1      -3.181   5.013 -35.471  1.00  0.00    -0.169 F 
ENDBRANCH   8  23
BRANCH   1  27
HETATM   27  C   UNL     1      -1.131   6.362 -30.093  1.00  0.00    -0.035 A 
HETATM   28  C   UNL     1      -1.226   7.611 -29.452  1.00  0.00     0.012 A 
HETATM   29  C   UNL     1      -0.380   7.945 -28.391  1.00  0.00     0.037 A 
HETATM   30  C   UNL     1       0.581   7.036 -27.951  1.00  0.00     0.068 A 
HETATM   31  C   UNL     1       0.698   5.804 -28.597  1.00  0.00     0.037 A 
HETATM   32  C   UNL     1      -0.151   5.463 -29.656  1.00  0.00     0.012 A 
BRANCH  30  33
HETATM   33  O   UNL     1       1.461   7.237 -26.924  1.00  0.00    -0.356 OA
HETATM   34  C   UNL     1       1.859   8.582 -26.681  1.00  0.00     0.210 C 
ENDBRANCH  30  33
ENDBRANCH   1  27
TORSDOF 6
ENDMDL
MODEL 2
REMARK VINA RESULT:      -9.2      4.784     10.329
REMARK  6 active torsions:
REMARK  status: ('A' for Active; 'I' for Inactive)
REMARK    1  A    between atoms: O_2  and  C_3 
REMARK    2  A    between atoms: C_6  and  C_7 
REMARK    3  A    between atoms: C_12  and  C_13 
REMARK       I    between atoms: C_13  and  N_14 
REMARK    4  A    between atoms: N_14  and  C_15 
REMARK    5  A    between atoms: C_17  and  O_18 
REMARK    6  A    between atoms: C_24  and  C_25 
ROOT
HETATM    1  C   UNL     1      -8.974   0.028 -33.118  1.00  0.00     0.118 C 
HETATM    2  N   UNL     1      -8.585   0.918 -32.026  1.00  0.00    -0.366 N 
HETATM    3  C   UNL     1      -7.388   1.538 -31.985  1.00  0.00     0.123 A 
HETATM    4  N   UNL     1      -6.386   1.199 -32.847  1.00  0.00    -0.240 N 
HETATM    5  N   UNL     1      -5.309   2.003 -32.783  1.00  0.00    -0.165 NA
HETATM    6  C   UNL     1      -5.609   2.838 -31.758  1.00  0.00     0.148 A 
HETATM    7  C   UNL     1      -6.892   2.552 -31.213  1.00  0.00     0.089 A 
HETATM    8  C   UNL     1      -6.528   0.168 -33.856  1.00  0.00     0.221 C 
HETATM    9  C   UNL     1      -7.995   0.116 -34.310  1.00  0.00     0.066 C 
HETATM   10  H   UNL     1      -9.332   1.167 -31.377  1.00  0.00     0.161 HD
ENDROOT
BRANCH   6  11
HETATM   11  C   UNL     1      -4.703   3.923 -31.338  1.00  0.00     0.276 C 
HETATM   12  N   UNL     1      -3.628   4.054 -32.195  1.00  0.00    -0.322 N 
HETATM   13  H   UNL     1      -3.623   3.365 -32.944  1.00  0.00     0.169 HD
HETATM   14  O   UNL     1      -4.940   4.607 -30.349  1.00  0.00    -0.266 OA
BRANCH  12  15
HETATM   15  C   UNL     1      -2.604   5.016 -32.170  1.00  0.00     0.037 A 
HETATM   16  C   UNL     1      -2.638   6.206 -32.901  1.00  0.00     0.066 A 
HETATM   17  C   UNL     1      -1.566   7.095 -32.829  1.00  0.00     0.067 A 
HETATM   18  C   UNL     1      -0.459   6.820 -32.038  1.00  0.00     0.036 A 
HETATM   19  C   UNL     1      -0.418   5.637 -31.305  1.00  0.00     0.005 A 
HETATM   20  C   UNL     1      -1.486   4.739 -31.371  1.00  0.00     0.029 A 
BRANCH  17  21
HETATM   21  O   UNL     1      -1.568   8.264 -33.534  1.00  0.00    -0.361 OA
HETATM   22  H   UNL     1      -1.445   8.054 -34.475  1.00  0.00     0.217 HD
ENDBRANCH  17  21
ENDBRANCH  12  15
ENDBRANCH   6  11
BRANCH   8  23
HETATM   23  C   UNL     1      -6.034  -1.157 -33.321  1.00  0.00     0.409 C 
HETATM   24  F   UNL     1      -5.972  -1.175 -31.972  1.00  0.00    -0.169 F 
HETATM   25  F   UNL     1      -6.777  -2.211 -33.716  1.00  0.00    -0.169 F 
HETATM   26  F   UNL     1      -4.770  -1.385 -33.767  1.00  0.00    -0.169 F 
ENDBRANCH   8  23
BRANCH   1  27
HETATM   27  C   UNL     1     -10.386   0.382 -33.554  1.00  0.00    -0.035 A 
HETATM   28  C   UNL     1     -11.483  -0.406 -33.161  1.00  0.00     0.012 A 
HETATM   29  C   UNL     1     -12.785  -0.076 -33.546  1.00  0.00     0.037 A 
HETATM   30  C   UNL     1     -13.016   1.049 -34.336  1.00  0.00     0.068 A 
HETATM   31  C   UNL     1     -11.931   1.824 -34.751  1.00  0.00     0.037 A 
HETATM   32  C   UNL     1     -10.626   1.500 -34.363  1.00  0.00     0.012 A 
BRANCH  30  33
HETATM   33  O   UNL     1     -14.237   1.482 -34.774  1.00  0.00    -0.356 OA
HETATM   34  C   UNL     1     -15.367   0.720 -34.366  1.00  0.00     0.210 C 
ENDBRANCH  30  33
ENDBRANCH   1  27
TORSDOF 6
ENDMDL
MODEL 3
REMARK VINA RESULT:      -9.1      1.431      2.020
REMARK  6 active torsions:
REMARK  status: ('A' for Active; 'I' for Inactive)
REMARK    1  A    between atoms: O_2  and  C_3 
REMARK    2  A    between atoms: C_6  and  C_7 
REMARK    3  A    between atoms: C_12  and  C_13 
REMARK       I    between atoms: C_13  and  N_14 
REMARK    4  A    between atoms: N_14  and  C_15 
REMARK    5  A    between atoms: C_17  and  O_18 
REMARK    6  A    between atoms: C_24  and  C_25 
ROOT
HETATM    1  C   UNL     1      -1.395   7.189 -31.189  1.00  0.00     0.118 C 
HETATM    2  N   UNL     1      -2.693   6.580 -30.900  1.00  0.00    -0.366 N 
HETATM    3  C   UNL     1      -3.037   5.357 -31.350  1.00  0.00     0.123 A 
HETATM    4  N   UNL     1      -2.282   4.708 -32.285  1.00  0.00    -0.240 N 
HETATM    5  N   UNL     1      -2.670   3.442 -32.523  1.00  0.00    -0.165 NA
HETATM    6  C   UNL     1      -3.788   3.315 -31.768  1.00  0.00     0.148 A 
HETATM    7  C   UNL     1      -4.065   4.508 -31.045  1.00  0.00     0.089 A 
HETATM    8  C   UNL     1      -1.074   5.273 -32.853  1.00  0.00     0.221 C 
HETATM    9  C   UNL     1      -0.406   6.174 -31.804  1.00  0.00     0.066 C 
HETATM   10  H   UNL     1      -3.260   7.068 -30.207  1.00  0.00     0.161 HD
ENDROOT
BRANCH   6  11
HETATM   11  C   UNL     1      -4.551   2.055 -31.700  1.00  0.00     0.276 C 
HETATM   12  N   UNL     1      -4.881   1.587 -32.958  1.00  0.00    -0.322 N 
HETATM   13  H   UNL     1      -4.576   2.202 -33.708  1.00  0.00     0.169 HD
HETATM   14  O   UNL     1      -4.813   1.522 -30.627  1.00  0.00    -0.266 OA
BRANCH  12  15
HETATM   15  C   UNL     1      -5.531   0.389 -33.301  1.00  0.00     0.037 A 
HETATM   16  C   UNL     1      -4.861  -0.782 -33.661  1.00  0.00     0.066 A 
HETATM   17  C   UNL     1      -5.590  -1.920 -34.005  1.00  0.00     0.067 A 
HETATM   18  C   UNL     1      -6.979  -1.912 -33.993  1.00  0.00     0.036 A 
HETATM   19  C   UNL     1      -7.654  -0.748 -33.634  1.00  0.00     0.005 A 
HETATM   20  C   UNL     1      -6.933   0.397 -33.289  1.00  0.00     0.029 A 
BRANCH  17  21
HETATM   21  O   UNL     1      -4.965  -3.078 -34.365  1.00  0.00    -0.361 OA
HETATM   22  H   UNL     1      -5.583  -3.816 -34.224  1.00  0.00     0.217 HD
ENDBRANCH  17  21
ENDBRANCH  12  15
ENDBRANCH   6  11
BRANCH   8  23
HETATM   23  C   UNL     1      -1.393   6.005 -34.136  1.00  0.00     0.409 C 
HETATM   24  F   UNL     1      -1.110   5.267 -35.232  1.00  0.00    -0.169 F 
HETATM   25  F   UNL     1      -2.678   6.403 -34.226  1.00  0.00    -0.169 F 
HETATM   26  F   UNL     1      -0.632   7.128 -34.221  1.00  0.00    -0.169 F 
ENDBRANCH   8  23
BRANCH   1  27
HETATM   27  C   UNL     1      -0.837   7.775 -29.903  1.00  0.00    -0.035 A 
HETATM   28  C   UNL     1       0.458   7.447 -29.462  1.00  0.00     0.012 A 
HETATM   29  C   UNL     1       0.983   7.994 -28.288  1.00  0.00     0.037 A 
HETATM   30  C   UNL     1       0.220   8.879 -27.529  1.00  0.00     0.068 A 
HETATM   31  C   UNL     1      -1.076   9.192 -27.946  1.00  0.00     0.037 A 
HETATM   32  C   UNL     1      -1.602   8.650 -29.124  1.00  0.00     0.012 A 
BRANCH  30  33
HETATM   33  O   UNL     1       0.616   9.486 -26.369  1.00  0.00    -0.356 OA
HETATM   34  C   UNL     1       1.100   8.633 -25.338  1.00  0.00     0.210 C 
ENDBRANCH  30  33
ENDBRANCH   1  27
TORSDOF 6
ENDMDL
MODEL 4
REMARK VINA RESULT:      -9.1      2.932      9.596
REMARK  6 active torsions:
REMARK  status: ('A' for Active; 'I' for Inactive)
REMARK    1  A    between atoms: O_2  and  C_3 
REMARK    2  A    between atoms: C_6  and  C_7 
REMARK    3  A    between atoms: C_12  and  C_13 
REMARK       I    between atoms: C_13  and  N_14 
REMARK    4  A    between atoms: N_14  and  C_15 
REMARK    5  A    between atoms: C_17  and  O_18 
REMARK    6  A    between atoms: C_24  and  C_25 
ROOT
HETATM    1  C   UNL     1      -6.880   0.446 -32.964  1.00  0.00     0.118 C 
HETATM    2  N   UNL     1      -6.147   1.561 -33.562  1.00  0.00    -0.366 N 
HETATM    3  C   UNL     1      -5.751   2.635 -32.849  1.00  0.00     0.123 A 
HETATM    4  N   UNL     1      -6.202   2.847 -31.578  1.00  0.00    -0.240 N 
HETATM    5  N   UNL     1      -5.606   3.874 -30.947  1.00  0.00    -0.165 NA
HETATM    6  C   UNL     1      -4.802   4.399 -31.903  1.00  0.00     0.148 A 
HETATM    7  C   UNL     1      -4.893   3.666 -33.119  1.00  0.00     0.089 A 
HETATM    8  C   UNL     1      -7.123   1.950 -30.908  1.00  0.00     0.221 C 
HETATM    9  C   UNL     1      -6.886   0.521 -31.421  1.00  0.00     0.066 C 
HETATM   10  H   UNL     1      -5.815   1.406 -34.514  1.00  0.00     0.161 HD
ENDROOT
BRANCH   6  11
HETATM   11  C   UNL     1      -3.923   5.554 -31.644  1.00  0.00     0.276 C 
HETATM   12  N   UNL     1      -2.809   5.197 -30.909  1.00  0.00    -0.322 N 
HETATM   13  H   UNL     1      -2.801   4.215 -30.643  1.00  0.00     0.169 HD
HETATM   14  O   UNL     1      -4.191   6.671 -32.074  1.00  0.00    -0.266 OA
BRANCH  12  15
HETATM   15  C   UNL     1      -1.716   5.997 -30.535  1.00  0.00     0.037 A 
HETATM   16  C   UNL     1      -1.753   6.923 -29.490  1.00  0.00     0.066 A 
HETATM   17  C   UNL     1      -0.623   7.688 -29.202  1.00  0.00     0.067 A 
HETATM   18  C   UNL     1       0.546   7.545 -29.937  1.00  0.00     0.036 A 
HETATM   19  C   UNL     1       0.591   6.623 -30.979  1.00  0.00     0.005 A 
HETATM   20  C   UNL     1      -0.536   5.853 -31.277  1.00  0.00     0.029 A 
BRANCH  17  21
HETATM   21  O   UNL     1      -0.629   8.604 -28.190  1.00  0.00    -0.361 OA
HETATM   22  H   UNL     1      -0.515   9.489 -28.577  1.00  0.00     0.217 HD
ENDBRANCH  17  21
ENDBRANCH  12  15
ENDBRANCH   6  11
BRANCH   8  23
HETATM   23  C   UNL     1      -8.546   2.416 -31.112  1.00  0.00     0.409 C 
HETATM   24  F   UNL     1      -9.000   3.148 -30.071  1.00  0.00    -0.169 F 
HETATM   25  F   UNL     1      -8.724   3.140 -32.236  1.00  0.00    -0.169 F 
HETATM   26  F   UNL     1      -9.369   1.338 -31.211  1.00  0.00    -0.169 F 
ENDBRANCH   8  23
BRANCH   1  27
HETATM   27  C   UNL     1      -6.255  -0.856 -33.438  1.00  0.00    -0.035 A 
HETATM   28  C   UNL     1      -6.996  -1.778 -34.198  1.00  0.00     0.012 A 
HETATM   29  C   UNL     1      -6.422  -2.970 -34.650  1.00  0.00     0.037 A 
HETATM   30  C   UNL     1      -5.094  -3.264 -34.345  1.00  0.00     0.068 A 
HETATM   31  C   UNL     1      -4.358  -2.365 -33.570  1.00  0.00     0.037 A 
HETATM   32  C   UNL     1      -4.928  -1.169 -33.121  1.00  0.00     0.012 A 
BRANCH  30  33
HETATM   33  O   UNL     1      -4.415  -4.387 -34.729  1.00  0.00    -0.356 OA
HETATM   34  C   UNL     1      -3.414  -4.862 -33.836  1.00  0.00     0.210 C 
ENDBRANCH  30  33
ENDBRANCH   1  27
TORSDOF 6
ENDMDL
MODEL 5
REMARK VINA RESULT:      -8.6      3.581      9.774
REMARK  6 active torsions:
REMARK  status: ('A' for Active; 'I' for Inactive)
REMARK    1  A    between atoms: O_2  and  C_3 
REMARK    2  A    between atoms: C_6  and  C_7 
REMARK    3  A    between atoms: C_12  and  C_13 
REMARK       I    between atoms: C_13  and  N_14 
REMARK    4  A    between atoms: N_14  and  C_15 
REMARK    5  A    between atoms: C_17  and  O_18 
REMARK    6  A    between atoms: C_24  and  C_25 
ROOT
HETATM    1  C   UNL     1      -7.506  -0.087 -34.192  1.00  0.00     0.118 C 
HETATM    2  N   UNL     1      -6.755   1.082 -34.645  1.00  0.00    -0.366 N 
HETATM    3  C   UNL     1      -6.769   2.257 -33.984  1.00  0.00     0.123 A 
HETATM    4  N   UNL     1      -7.660   2.490 -32.976  1.00  0.00    -0.240 N 
HETATM    5  N   UNL     1      -7.455   3.645 -32.316  1.00  0.00    -0.165 NA
HETATM    6  C   UNL     1      -6.438   4.217 -33.006  1.00  0.00     0.148 A 
HETATM    7  C   UNL     1      -6.007   3.388 -34.079  1.00  0.00     0.089 A 
HETATM    8  C   UNL     1      -8.638   1.510 -32.545  1.00  0.00     0.221 C 
HETATM    9  C   UNL     1      -8.061   0.104 -32.763  1.00  0.00     0.066 C 
HETATM   10  H   UNL     1      -6.094   0.910 -35.403  1.00  0.00     0.161 HD
ENDROOT
BRANCH   6  11
HETATM   11  C   UNL     1      -5.857   5.515 -32.616  1.00  0.00     0.276 C 
HETATM   12  N   UNL     1      -4.591   5.370 -32.082  1.00  0.00    -0.322 N 
HETATM   13  H   UNL     1      -4.291   4.400 -32.016  1.00  0.00     0.169 HD
HETATM   14  O   UNL     1      -6.464   6.566 -32.791  1.00  0.00    -0.266 OA
BRANCH  12  15
HETATM   15  C   UNL     1      -3.696   6.373 -31.672  1.00  0.00     0.037 A 
HETATM   16  C   UNL     1      -3.570   6.807 -30.350  1.00  0.00     0.066 A 
HETATM   17  C   UNL     1      -2.667   7.823 -30.039  1.00  0.00     0.067 A 
HETATM   18  C   UNL     1      -1.884   8.413 -31.021  1.00  0.00     0.036 A 
HETATM   19  C   UNL     1      -2.003   7.985 -32.341  1.00  0.00     0.005 A 
HETATM   20  C   UNL     1      -2.906   6.968 -32.664  1.00  0.00     0.029 A 
BRANCH  17  21
HETATM   21  O   UNL     1      -2.523   8.272 -28.758  1.00  0.00    -0.361 OA
HETATM   22  H   UNL     1      -1.616   8.078 -28.465  1.00  0.00     0.217 HD
ENDBRANCH  17  21
ENDBRANCH  12  15
ENDBRANCH   6  11
BRANCH   8  23
HETATM   23  C   UNL     1      -9.946   1.726 -33.271  1.00  0.00     0.409 C 
HETATM   24  F   UNL     1     -10.768   2.570 -32.609  1.00  0.00    -0.169 F 
HETATM   25  F   UNL     1      -9.798   2.193 -34.527  1.00  0.00    -0.169 F 
HETATM   26  F   UNL     1     -10.610   0.544 -33.373  1.00  0.00    -0.169 F 
ENDBRANCH   8  23
BRANCH   1  27
HETATM   27  C   UNL     1      -6.599  -1.304 -34.259  1.00  0.00    -0.035 A 
HETATM   28  C   UNL     1      -7.081  -2.540 -34.727  1.00  0.00     0.012 A 
HETATM   29  C   UNL     1      -6.247  -3.659 -34.806  1.00  0.00     0.037 A 
HETATM   30  C   UNL     1      -4.913  -3.563 -34.414  1.00  0.00     0.068 A 
HETATM   31  C   UNL     1      -4.432  -2.347 -33.925  1.00  0.00     0.037 A 
HETATM   32  C   UNL     1      -5.262  -1.223 -33.850  1.00  0.00     0.012 A 
BRANCH  30  33
HETATM   33  O   UNL     1      -3.995  -4.577 -34.447  1.00  0.00    -0.356 OA
HETATM   34  C   UNL     1      -3.283  -4.830 -33.241  1.00  0.00     0.210 C 
ENDBRANCH  30  33
ENDBRANCH   1  27
TORSDOF 6
ENDMDL
MODEL 6
REMARK VINA RESULT:      -8.5      2.572      9.812
REMARK  6 active torsions:
REMARK  status: ('A' for Active; 'I' for Inactive)
REMARK    1  A    between atoms: O_2  and  C_3 
REMARK    2  A    between atoms: C_6  and  C_7 
REMARK    3  A    between atoms: C_12  and  C_13 
REMARK       I    between atoms: C_13  and  N_14 
REMARK    4  A    between atoms: N_14  and  C_15 
REMARK    5  A    between atoms: C_17  and  O_18 
REMARK    6  A    between atoms: C_24  and  C_25 
ROOT
HETATM    1  C   UNL     1      -6.563   1.200 -32.668  1.00  0.00     0.118 C 
HETATM    2  N   UNL     1      -5.711   2.241 -33.240  1.00  0.00    -0.366 N 
HETATM    3  C   UNL     1      -5.088   3.167 -32.483  1.00  0.00     0.123 A 
HETATM    4  N   UNL     1      -5.392   3.322 -31.161  1.00  0.00    -0.240 N 
HETATM    5  N   UNL     1      -4.586   4.178 -30.508  1.00  0.00    -0.165 NA
HETATM    6  C   UNL     1      -3.790   4.664 -31.492  1.00  0.00     0.148 A 
HETATM    7  C   UNL     1      -4.100   4.075 -32.750  1.00  0.00     0.089 A 
HETATM    8  C   UNL     1      -6.387   2.516 -30.481  1.00  0.00     0.221 C 
HETATM    9  C   UNL     1      -6.428   1.125 -31.131  1.00  0.00     0.066 C 
HETATM   10  H   UNL     1      -5.490   2.130 -34.230  1.00  0.00     0.161 HD
ENDROOT
BRANCH   6  11
HETATM   11  C   UNL     1      -2.717   5.639 -31.225  1.00  0.00     0.276 C 
HETATM   12  N   UNL     1      -2.784   6.137 -29.939  1.00  0.00    -0.322 N 
HETATM   13  H   UNL     1      -3.575   5.777 -29.409  1.00  0.00     0.169 HD
HETATM   14  O   UNL     1      -1.880   5.918 -32.077  1.00  0.00    -0.266 OA
BRANCH  12  15
HETATM   15  C   UNL     1      -1.899   7.019 -29.296  1.00  0.00     0.037 A 
HETATM   16  C   UNL     1      -0.721   6.613 -28.665  1.00  0.00     0.066 A 
HETATM   17  C   UNL     1       0.089   7.558 -28.036  1.00  0.00     0.067 A 
HETATM   18  C   UNL     1      -0.254   8.903 -28.026  1.00  0.00     0.036 A 
HETATM   19  C   UNL     1      -1.426   9.316 -28.654  1.00  0.00     0.005 A 
HETATM   20  C   UNL     1      -2.245   8.377 -29.286  1.00  0.00     0.029 A 
BRANCH  17  21
HETATM   21  O   UNL     1       1.245   7.192 -27.407  1.00  0.00    -0.361 OA
HETATM   22  H   UNL     1       1.461   7.871 -26.746  1.00  0.00     0.217 HD
ENDBRANCH  17  21
ENDBRANCH  12  15
ENDBRANCH   6  11
BRANCH   8  23
HETATM   23  C   UNL     1      -7.728   3.214 -30.505  1.00  0.00     0.409 C 
HETATM   24  F   UNL     1      -8.754   2.349 -30.663  1.00  0.00    -0.169 F 
HETATM   25  F   UNL     1      -7.974   3.951 -29.403  1.00  0.00    -0.169 F 
HETATM   26  F   UNL     1      -7.778   4.068 -31.562  1.00  0.00    -0.169 F 
ENDBRANCH   8  23
BRANCH   1  27
HETATM   27  C   UNL     1      -6.200  -0.130 -33.306  1.00  0.00    -0.035 A 
HETATM   28  C   UNL     1      -4.905  -0.664 -33.176  1.00  0.00     0.012 A 
HETATM   29  C   UNL     1      -4.569  -1.894 -33.748  1.00  0.00     0.037 A 
HETATM   30  C   UNL     1      -5.523  -2.614 -34.466  1.00  0.00     0.068 A 
HETATM   31  C   UNL     1      -6.804  -2.080 -34.620  1.00  0.00     0.037 A 
HETATM   32  C   UNL     1      -7.145  -0.852 -34.044  1.00  0.00     0.012 A 
BRANCH  30  33
HETATM   33  O   UNL     1      -5.326  -3.826 -35.067  1.00  0.00    -0.356 OA
HETATM   34  C   UNL     1      -6.492  -4.581 -35.376  1.00  0.00     0.210 C 
ENDBRANCH  30  33
ENDBRANCH   1  27
TORSDOF 6
ENDMDL
MODEL 7
REMARK VINA RESULT:      -8.4     17.687     20.235
REMARK  6 active torsions:
REMARK  status: ('A' for Active; 'I' for Inactive)
REMARK    1  A    between atoms: O_2  and  C_3 
REMARK    2  A    between atoms: C_6  and  C_7 
REMARK    3  A    between atoms: C_12  and  C_13 
REMARK       I    between atoms: C_13  and  N_14 
REMARK    4  A    between atoms: N_14  and  C_15 
REMARK    5  A    between atoms: C_17  and  O_18 
REMARK    6  A    between atoms: C_24  and  C_25 
ROOT
HETATM    1  C   UNL     1      -8.017 -13.332 -37.429  1.00  0.00     0.118 C 
HETATM    2  N   UNL     1      -6.862 -12.619 -37.973  1.00  0.00    -0.366 N 
HETATM    3  C   UNL     1      -5.594 -12.925 -37.634  1.00  0.00     0.123 A 
HETATM    4  N   UNL     1      -5.323 -13.769 -36.596  1.00  0.00    -0.240 N 
HETATM    5  N   UNL     1      -4.023 -14.092 -36.474  1.00  0.00    -0.165 NA
HETATM    6  C   UNL     1      -3.427 -13.336 -37.428  1.00  0.00     0.148 A 
HETATM    7  C   UNL     1      -4.380 -12.566 -38.152  1.00  0.00     0.089 A 
HETATM    8  C   UNL     1      -6.358 -14.393 -35.795  1.00  0.00     0.221 C 
HETATM    9  C   UNL     1      -7.599 -14.613 -36.673  1.00  0.00     0.066 C 
HETATM   10  H   UNL     1      -7.065 -11.983 -38.744  1.00  0.00     0.161 HD
ENDROOT
BRANCH   6  11
HETATM   11  C   UNL     1      -1.974 -13.385 -37.675  1.00  0.00     0.276 C 
HETATM   12  N   UNL     1      -1.467 -14.658 -37.505  1.00  0.00    -0.322 N 
HETATM   13  H   UNL     1      -2.167 -15.333 -37.206  1.00  0.00     0.169 HD
HETATM   14  O   UNL     1      -1.348 -12.385 -38.011  1.00  0.00    -0.266 OA
BRANCH  12  15
HETATM   15  C   UNL     1      -0.155 -15.113 -37.725  1.00  0.00     0.037 A 
HETATM   16  C   UNL     1       0.559 -14.881 -38.902  1.00  0.00     0.066 A 
HETATM   17  C   UNL     1       1.852 -15.387 -39.039  1.00  0.00     0.067 A 
HETATM   18  C   UNL     1       2.447 -16.119 -38.020  1.00  0.00     0.036 A 
HETATM   19  C   UNL     1       1.741 -16.353 -36.843  1.00  0.00     0.005 A 
HETATM   20  C   UNL     1       0.445 -15.852 -36.696  1.00  0.00     0.029 A 
BRANCH  17  21
HETATM   21  O   UNL     1       2.575 -15.181 -40.178  1.00  0.00    -0.361 OA
HETATM   22  H   UNL     1       2.072 -15.542 -40.929  1.00  0.00     0.217 HD
ENDBRANCH  17  21
ENDBRANCH  12  15
ENDBRANCH   6  11
BRANCH   8  23
HETATM   23  C   UNL     1      -6.648 -13.554 -34.572  1.00  0.00     0.409 C 
HETATM   24  F   UNL     1      -5.630 -12.719 -34.269  1.00  0.00    -0.169 F 
HETATM   25  F   UNL     1      -7.772 -12.816 -34.675  1.00  0.00    -0.169 F 
HETATM   26  F   UNL     1      -6.814 -14.365 -33.493  1.00  0.00    -0.169 F 
ENDBRANCH   8  23
BRANCH   1  27
HETATM   27  C   UNL     1      -8.964 -13.664 -38.570  1.00  0.00    -0.035 A 
HETATM   28  C   UNL     1      -9.649 -12.647 -39.261  1.00  0.00     0.012 A 
HETATM   29  C   UNL     1     -10.509 -12.946 -40.320  1.00  0.00     0.037 A 
HETATM   30  C   UNL     1     -10.705 -14.270 -40.708  1.00  0.00     0.068 A 
HETATM   31  C   UNL     1     -10.049 -15.288 -40.013  1.00  0.00     0.037 A 
HETATM   32  C   UNL     1      -9.182 -14.992 -38.955  1.00  0.00     0.012 A 
BRANCH  30  33
HETATM   33  O   UNL     1     -11.513 -14.694 -41.727  1.00  0.00    -0.356 OA
HETATM   34  C   UNL     1     -11.160 -15.926 -42.348  1.00  0.00     0.210 C 
ENDBRANCH  30  33
ENDBRANCH   1  27
TORSDOF 6
ENDMDL
MODEL 8
REMARK VINA RESULT:      -8.3      6.457      8.319
REMARK  6 active torsions:
REMARK  status: ('A' for Active; 'I' for Inactive)
REMARK    1  A    between atoms: O_2  and  C_3 
REMARK    2  A    between atoms: C_6  and  C_7 
REMARK    3  A    between atoms: C_12  and  C_13 
REMARK       I    between atoms: C_13  and  N_14 
REMARK    4  A    between atoms: N_14  and  C_15 
REMARK    5  A    between atoms: C_17  and  O_18 
REMARK    6  A    between atoms: C_24  and  C_25 
ROOT
HETATM    1  C   UNL     1      -5.903   1.636 -33.513  1.00  0.00     0.118 C 
HETATM    2  N   UNL     1      -7.082   2.297 -34.070  1.00  0.00    -0.366 N 
HETATM    3  C   UNL     1      -8.330   1.812 -33.909  1.00  0.00     0.123 A 
HETATM    4  N   UNL     1      -8.544   0.561 -33.406  1.00  0.00    -0.240 N 
HETATM    5  N   UNL     1      -9.837   0.279 -33.167  1.00  0.00    -0.165 NA
HETATM    6  C   UNL     1     -10.484   1.375 -33.633  1.00  0.00     0.148 A 
HETATM    7  C   UNL     1      -9.570   2.342 -34.136  1.00  0.00     0.089 A 
HETATM    8  C   UNL     1      -7.467  -0.325 -33.011  1.00  0.00     0.221 C 
HETATM    9  C   UNL     1      -6.285   0.520 -32.514  1.00  0.00     0.066 C 
HETATM   10  H   UNL     1      -6.921   3.229 -34.452  1.00  0.00     0.161 HD
ENDROOT
BRANCH   6  11
HETATM   11  C   UNL     1     -11.950   1.515 -33.554  1.00  0.00     0.276 C 
HETATM   12  N   UNL     1     -12.322   2.544 -32.710  1.00  0.00    -0.322 N 
HETATM   13  H   UNL     1     -11.532   3.003 -32.262  1.00  0.00     0.169 HD
HETATM   14  O   UNL     1     -12.697   0.791 -34.201  1.00  0.00    -0.266 OA
BRANCH  12  15
HETATM   15  C   UNL     1     -13.613   3.029 -32.441  1.00  0.00     0.037 A 
HETATM   16  C   UNL     1     -14.768   2.247 -32.522  1.00  0.00     0.066 A 
HETATM   17  C   UNL     1     -16.011   2.819 -32.254  1.00  0.00     0.067 A 
HETATM   18  C   UNL     1     -16.124   4.158 -31.905  1.00  0.00     0.036 A 
HETATM   19  C   UNL     1     -14.977   4.943 -31.820  1.00  0.00     0.005 A 
HETATM   20  C   UNL     1     -13.727   4.380 -32.088  1.00  0.00     0.029 A 
BRANCH  17  21
HETATM   21  O   UNL     1     -17.159   2.084 -32.328  1.00  0.00    -0.361 OA
HETATM   22  H   UNL     1     -17.765   2.524 -32.949  1.00  0.00     0.217 HD
ENDBRANCH  17  21
ENDBRANCH  12  15
ENDBRANCH   6  11
BRANCH   8  23
HETATM   23  C   UNL     1      -7.095  -1.236 -34.158  1.00  0.00     0.409 C 
HETATM   24  F   UNL     1      -7.678  -0.865 -35.318  1.00  0.00    -0.169 F 
HETATM   25  F   UNL     1      -5.766  -1.323 -34.371  1.00  0.00    -0.169 F 
HETATM   26  F   UNL     1      -7.529  -2.498 -33.896  1.00  0.00    -0.169 F 
ENDBRANCH   8  23
BRANCH   1  27
HETATM   27  C   UNL     1      -5.031   2.684 -32.841  1.00  0.00    -0.035 A 
HETATM   28  C   UNL     1      -5.483   4.006 -32.681  1.00  0.00     0.012 A 
HETATM   29  C   UNL     1      -4.692   4.970 -32.051  1.00  0.00     0.037 A 
HETATM   30  C   UNL     1      -3.428   4.630 -31.571  1.00  0.00     0.068 A 
HETATM   31  C   UNL     1      -2.961   3.326 -31.747  1.00  0.00     0.037 A 
HETATM   32  C   UNL     1      -3.753   2.357 -32.372  1.00  0.00     0.012 A 
BRANCH  30  33
HETATM   33  O   UNL     1      -2.561   5.474 -30.933  1.00  0.00    -0.356 OA
HETATM   34  C   UNL     1      -1.179   5.141 -31.007  1.00  0.00     0.210 C 
ENDBRANCH  30  33
ENDBRANCH   1  27
TORSDOF 6
ENDMDL
MODEL 9
REMARK VINA RESULT:      -8.3      4.529      5.629
REMARK  6 active torsions:
REMARK  status: ('A' for Active; 'I' for Inactive)
REMARK    1  A    between atoms: O_2  and  C_3 
REMARK    2  A    between atoms: C_6  and  C_7 
REMARK    3  A    between atoms: C_12  and  C_13 
REMARK       I    between atoms: C_13  and  N_14 
REMARK    4  A    between atoms: N_14  and  C_15 
REMARK    5  A    between atoms: C_17  and  O_18 
REMARK    6  A    between atoms: C_24  and  C_25 
ROOT
HETATM    1  C   UNL     1      -3.375   3.288 -32.432  1.00  0.00     0.118 C 
HETATM    2  N   UNL     1      -4.518   3.761 -33.211  1.00  0.00    -0.366 N 
HETATM    3  C   UNL     1      -5.751   3.230 -33.087  1.00  0.00     0.123 A 
HETATM    4  N   UNL     1      -5.957   2.075 -32.389  1.00  0.00    -0.240 N 
HETATM    5  N   UNL     1      -7.254   1.752 -32.229  1.00  0.00    -0.165 NA
HETATM    6  C   UNL     1      -7.899   2.705 -32.946  1.00  0.00     0.148 A 
HETATM    7  C   UNL     1      -6.984   3.628 -33.525  1.00  0.00     0.089 A 
HETATM    8  C   UNL     1      -4.887   1.345 -31.738  1.00  0.00     0.221 C 
HETATM    9  C   UNL     1      -3.808   2.341 -31.290  1.00  0.00     0.066 C 
HETATM   10  H   UNL     1      -4.363   4.620 -33.738  1.00  0.00     0.161 HD
ENDROOT
BRANCH   6  11
HETATM   11  C   UNL     1      -9.370   2.759 -33.036  1.00  0.00     0.276 C 
HETATM   12  N   UNL     1      -9.882   1.674 -33.722  1.00  0.00    -0.322 N 
HETATM   13  H   UNL     1      -9.164   1.047 -34.076  1.00  0.00     0.169 HD
HETATM   14  O   UNL     1     -10.009   3.671 -32.524  1.00  0.00    -0.266 OA
BRANCH  12  15
HETATM   15  C   UNL     1     -11.228   1.338 -33.944  1.00  0.00     0.037 A 
HETATM   16  C   UNL     1     -11.845   0.207 -33.403  1.00  0.00     0.066 A 
HETATM   17  C   UNL     1     -13.183  -0.057 -33.693  1.00  0.00     0.067 A 
HETATM   18  C   UNL     1     -13.920   0.788 -34.511  1.00  0.00     0.036 A 
HETATM   19  C   UNL     1     -13.313   1.918 -35.052  1.00  0.00     0.005 A 
HETATM   20  C   UNL     1     -11.972   2.192 -34.770  1.00  0.00     0.029 A 
BRANCH  17  21
HETATM   21  O   UNL     1     -13.813  -1.156 -33.183  1.00  0.00    -0.361 OA
HETATM   22  H   UNL     1     -13.270  -1.938 -33.380  1.00  0.00     0.217 HD
ENDBRANCH  17  21
ENDBRANCH  12  15
ENDBRANCH   6  11
BRANCH   8  23
HETATM   23  C   UNL     1      -4.351   0.274 -32.659  1.00  0.00     0.409 C 
HETATM   24  F   UNL     1      -5.077   0.161 -33.793  1.00  0.00    -0.169 F 
HETATM   25  F   UNL     1      -3.061   0.458 -33.010  1.00  0.00    -0.169 F 
HETATM   26  F   UNL     1      -4.415  -0.934 -32.039  1.00  0.00    -0.169 F 
ENDBRANCH   8  23
BRANCH   1  27
HETATM   27  C   UNL     1      -2.632   4.493 -31.880  1.00  0.00    -0.035 A 
HETATM   28  C   UNL     1      -1.335   4.808 -32.323  1.00  0.00     0.012 A 
HETATM   29  C   UNL     1      -0.652   5.924 -31.830  1.00  0.00     0.037 A 
HETATM   30  C   UNL     1      -1.255   6.746 -30.879  1.00  0.00     0.068 A 
HETATM   31  C   UNL     1      -2.533   6.427 -30.415  1.00  0.00     0.037 A 
HETATM   32  C   UNL     1      -3.221   5.315 -30.911  1.00  0.00     0.012 A 
BRANCH  30  33
HETATM   33  O   UNL     1      -0.700   7.865 -30.323  1.00  0.00    -0.356 OA
HETATM   34  C   UNL     1      -1.562   8.680 -29.537  1.00  0.00     0.210 C 
ENDBRANCH  30  33
ENDBRANCH   1  27
TORSDOF 6
ENDMDL
MODEL 10
REMARK VINA RESULT:      -8.0      3.964      9.857
REMARK  6 active torsions:
REMARK  status: ('A' for Active; 'I' for Inactive)
REMARK    1  A    between atoms: O_2  and  C_3 
REMARK    2  A    between atoms: C_6  and  C_7 
REMARK    3  A    between atoms: C_12  and  C_13 
REMARK       I    between atoms: C_13  and  N_14 
REMARK    4  A    between atoms: N_14  and  C_15 
REMARK    5  A    between atoms: C_17  and  O_18 
REMARK    6  A    between atoms: C_24  and  C_25 
ROOT
HETATM    1  C   UNL     1      -7.068   0.472 -33.364  1.00  0.00     0.118 C 
HETATM    2  N   UNL     1      -6.209   1.645 -33.513  1.00  0.00    -0.366 N 
HETATM    3  C   UNL     1      -6.176   2.641 -32.605  1.00  0.00     0.123 A 
HETATM    4  N   UNL     1      -7.104   2.719 -31.606  1.00  0.00    -0.240 N 
HETATM    5  N   UNL     1      -6.854   3.678 -30.696  1.00  0.00    -0.165 NA
HETATM    6  C   UNL     1      -5.761   4.302 -31.199  1.00  0.00     0.148 A 
HETATM    7  C   UNL     1      -5.330   3.698 -32.413  1.00  0.00     0.089 A 
HETATM    8  C   UNL     1      -8.173   1.753 -31.446  1.00  0.00     0.221 C 
HETATM    9  C   UNL     1      -7.688   0.387 -31.952  1.00  0.00     0.066 C 
HETATM   10  H   UNL     1      -5.520   1.591 -34.263  1.00  0.00     0.161 HD
ENDROOT
BRANCH   6  11
HETATM   11  C   UNL     1      -5.110   5.428 -30.504  1.00  0.00     0.276 C 
HETATM   12  N   UNL     1      -5.825   5.826 -29.390  1.00  0.00    -0.322 N 
HETATM   13  H   UNL     1      -6.688   5.304 -29.259  1.00  0.00     0.169 HD
HETATM   14  O   UNL     1      -4.050   5.899 -30.902  1.00  0.00    -0.266 OA
BRANCH  12  15
HETATM   15  C   UNL     1      -5.487   6.804 -28.440  1.00  0.00     0.037 A 
HETATM   16  C   UNL     1      -4.706   6.551 -27.310  1.00  0.00     0.066 A 
HETATM   17  C   UNL     1      -4.437   7.582 -26.410  1.00  0.00     0.067 A 
HETATM   18  C   UNL     1      -4.931   8.863 -26.617  1.00  0.00     0.036 A 
HETATM   19  C   UNL     1      -5.709   9.123 -27.742  1.00  0.00     0.005 A 
HETATM   20  C   UNL     1      -5.986   8.097 -28.649  1.00  0.00     0.029 A 
BRANCH  17  21
HETATM   21  O   UNL     1      -3.680   7.366 -25.294  1.00  0.00    -0.361 OA
HETATM   22  H   UNL     1      -3.792   8.126 -24.697  1.00  0.00     0.217 HD
ENDBRANCH  17  21
ENDBRANCH  12  15
ENDBRANCH   6  11
BRANCH   8  23
HETATM   23  C   UNL     1      -9.419   2.232 -32.156  1.00  0.00     0.409 C 
HETATM   24  F   UNL     1     -10.229   2.947 -31.345  1.00  0.00    -0.169 F 
HETATM   25  F   UNL     1      -9.165   2.978 -33.251  1.00  0.00    -0.169 F 
HETATM   26  F   UNL     1     -10.144   1.161 -32.576  1.00  0.00    -0.169 F 
ENDBRANCH   8  23
BRANCH   1  27
HETATM   27  C   UNL     1      -6.248  -0.772 -33.668  1.00  0.00    -0.035 A 
HETATM   28  C   UNL     1      -6.736  -1.765 -34.537  1.00  0.00     0.012 A 
HETATM   29  C   UNL     1      -5.980  -2.903 -34.832  1.00  0.00     0.037 A 
HETATM   30  C   UNL     1      -4.721  -3.071 -34.260  1.00  0.00     0.068 A 
HETATM   31  C   UNL     1      -4.238  -2.102 -33.377  1.00  0.00     0.037 A 
HETATM   32  C   UNL     1      -4.990  -0.959 -33.084  1.00  0.00     0.012 A 
BRANCH  30  33
HETATM   33  O   UNL     1      -3.882  -4.131 -34.470  1.00  0.00    -0.356 OA
HETATM   34  C   UNL     1      -3.474  -4.857 -33.316  1.00  0.00     0.210 C 
ENDBRANCH  30  33
ENDBRANCH   1  27
TORSDOF 6
ENDMDL
