MODEL 1
REMARK VINA RESULT:      -8.8      0.000      0.000
REMARK  5 active torsions:
REMARK  status: ('A' for Active; 'I' for Inactive)
REMARK    1  A    between atoms: C_2  and  C_3 
REMARK       I    between atoms: C_3  and  N_4 
REMARK    2  A    between atoms: N_4  and  C_5 
REMARK    3  A    between atoms: C_8  and  C_9 
REMARK       I    between atoms: C_9  and  N_10 
REMARK    4  A    between atoms: N_10  and  N_11 
REMARK    5  A    between atoms: C_12  and  C_13 
ROOT
HETATM    1  C   UNL     1      -3.317   4.343 -32.806  1.00  0.00     0.271 C 
HETATM    2  N   UNL     1      -3.897   3.233 -32.205  1.00  0.00    -0.243 N 
HETATM    3  O   UNL     1      -3.543   4.745 -33.943  1.00  0.00    -0.266 OA
HETATM    4  H   UNL     1      -3.884   3.168 -31.192  1.00  0.00     0.192 HD
ENDROOT
BRANCH   2   5
HETATM    5  N   UNL     1      -4.806   2.382 -32.785  1.00  0.00    -0.183 NA
HETATM    6  C   UNL     1      -5.008   1.224 -32.240  1.00  0.00     0.153 C 
BRANCH   6   7
HETATM    7  C   UNL     1      -5.949   0.286 -32.832  1.00  0.00     0.018 A 
HETATM    8  C   UNL     1      -5.599  -0.942 -33.488  1.00  0.00     0.004 A 
HETATM    9  C   UNL     1      -6.783  -1.555 -33.894  1.00  0.00     0.043 A 
HETATM   10  C   UNL     1      -4.378  -1.590 -33.775  1.00  0.00     0.014 A 
HETATM   11  C   UNL     1      -6.811  -2.783 -34.568  1.00  0.00     0.030 A 
HETATM   12  N   UNL     1      -7.813  -0.733 -33.510  1.00  0.00    -0.358 N 
HETATM   13  C   UNL     1      -5.588  -3.404 -34.836  1.00  0.00     0.002 A 
HETATM   14  C   UNL     1      -4.387  -2.818 -34.449  1.00  0.00     0.001 A 
HETATM   15  H   UNL     1      -8.789  -0.930 -33.680  1.00  0.00     0.166 HD
HETATM   16  C   UNL     1      -7.336   0.382 -32.866  1.00  0.00     0.018 A 
HETATM   17  C   UNL     1      -8.260   1.423 -32.346  1.00  0.00     0.069 C 
ENDBRANCH   6   7
ENDBRANCH   2   5
BRANCH   1  18
HETATM   18  C   UNL     1      -2.361   5.107 -31.954  1.00  0.00     0.033 A 
HETATM   19  C   UNL     1      -0.978   5.057 -32.152  1.00  0.00     0.019 A 
HETATM   20  C   UNL     1      -0.121   5.834 -31.359  1.00  0.00     0.030 A 
HETATM   21  C   UNL     1      -0.633   6.672 -30.366  1.00  0.00     0.034 A 
HETATM   22  C   UNL     1      -2.019   6.717 -30.169  1.00  0.00     0.030 A 
HETATM   23  C   UNL     1      -2.878   5.947 -30.961  1.00  0.00     0.019 A 
BRANCH  21  24
HETATM   24  N   UNL     1       0.158   7.503 -29.547  1.00  0.00    -0.327 N 
HETATM   25  C   UNL     1       0.624   7.234 -28.273  1.00  0.00     0.221 C 
HETATM   26  O   UNL     1       0.383   6.232 -27.608  1.00  0.00    -0.273 OA
HETATM   27  H   UNL     1       0.439   8.384 -29.958  1.00  0.00     0.169 HD
BRANCH  25  28
HETATM   28  C   UNL     1       1.477   8.352 -27.695  1.00  0.00     0.098 C 
HETATM   29  C   UNL     1       1.935   8.084 -26.271  1.00  0.00     0.014 C 
ENDBRANCH  25  28
ENDBRANCH  21  24
ENDBRANCH   1  18
TORSDOF 5
ENDMDL
MODEL 2
REMARK VINA RESULT:      -8.7      1.401      2.481
REMARK  5 active torsions:
REMARK  status: ('A' for Active; 'I' for Inactive)
REMARK    1  A    between atoms: C_2  and  C_3 
REMARK       I    between atoms: C_3  and  N_4 
REMARK    2  A    between atoms: N_4  and  C_5 
REMARK    3  A    between atoms: C_8  and  C_9 
REMARK       I    between atoms: C_9  and  N_10 
REMARK    4  A    between atoms: N_10  and  N_11 
REMARK    5  A    between atoms: C_12  and  C_13 
ROOT
HETATM    1  C   UNL     1      -2.187   4.470 -32.673  1.00  0.00     0.271 C 
HETATM    2  N   UNL     1      -2.766   3.365 -32.060  1.00  0.00    -0.243 N 
HETATM    3  O   UNL     1      -2.215   4.723 -33.873  1.00  0.00    -0.266 OA
HETATM    4  H   UNL     1      -2.953   3.406 -31.063  1.00  0.00     0.192 HD
ENDROOT
BRANCH   2   5
HETATM    5  N   UNL     1      -3.449   2.356 -32.694  1.00  0.00    -0.183 NA
HETATM    6  C   UNL     1      -3.717   1.276 -32.030  1.00  0.00     0.153 C 
BRANCH   6   7
HETATM    7  C   UNL     1      -4.425   0.176 -32.668  1.00  0.00     0.018 A 
HETATM    8  C   UNL     1      -5.588   0.307 -33.499  1.00  0.00     0.004 A 
HETATM    9  C   UNL     1      -5.945  -0.971 -33.927  1.00  0.00     0.043 A 
HETATM   10  C   UNL     1      -6.373   1.398 -33.929  1.00  0.00     0.014 A 
HETATM   11  C   UNL     1      -7.042  -1.214 -34.763  1.00  0.00     0.030 A 
HETATM   12  N   UNL     1      -5.043  -1.846 -33.373  1.00  0.00    -0.358 N 
HETATM   13  C   UNL     1      -7.799  -0.115 -35.176  1.00  0.00     0.002 A 
HETATM   14  C   UNL     1      -7.474   1.174 -34.765  1.00  0.00     0.001 A 
HETATM   15  H   UNL     1      -5.065  -2.847 -33.513  1.00  0.00     0.166 HD
HETATM   16  C   UNL     1      -4.117  -1.178 -32.612  1.00  0.00     0.018 A 
HETATM   17  C   UNL     1      -3.027  -1.908 -31.912  1.00  0.00     0.069 C 
ENDBRANCH   6   7
ENDBRANCH   2   5
BRANCH   1  18
HETATM   18  C   UNL     1      -1.504   5.427 -31.755  1.00  0.00     0.033 A 
HETATM   19  C   UNL     1      -2.204   6.399 -31.033  1.00  0.00     0.019 A 
HETATM   20  C   UNL     1      -1.526   7.243 -30.142  1.00  0.00     0.030 A 
HETATM   21  C   UNL     1      -0.147   7.123 -29.956  1.00  0.00     0.034 A 
HETATM   22  C   UNL     1       0.550   6.150 -30.683  1.00  0.00     0.030 A 
HETATM   23  C   UNL     1      -0.123   5.303 -31.570  1.00  0.00     0.019 A 
BRANCH  21  24
HETATM   24  N   UNL     1       0.602   7.913 -29.061  1.00  0.00    -0.327 N 
HETATM   25  C   UNL     1       0.902   7.635 -27.740  1.00  0.00     0.221 C 
HETATM   26  O   UNL     1       0.520   6.662 -27.096  1.00  0.00    -0.273 OA
HETATM   27  H   UNL     1       0.987   8.766 -29.445  1.00  0.00     0.169 HD
BRANCH  25  28
HETATM   28  C   UNL     1       1.760   8.703 -27.079  1.00  0.00     0.098 C 
HETATM   29  C   UNL     1       2.158   8.358 -25.653  1.00  0.00     0.014 C 
ENDBRANCH  25  28
ENDBRANCH  21  24
ENDBRANCH   1  18
TORSDOF 5
ENDMDL
MODEL 3
REMARK VINA RESULT:      -8.7      6.288      9.765
REMARK  5 active torsions:
REMARK  status: ('A' for Active; 'I' for Inactive)
REMARK    1  A    between atoms: C_2  and  C_3 
REMARK       I    between atoms: C_3  and  N_4 
REMARK    2  A    between atoms: N_4  and  C_5 
REMARK    3  A    between atoms: C_8  and  C_9 
REMARK       I    between atoms: C_9  and  N_10 
REMARK    4  A    between atoms: N_10  and  N_11 
REMARK    5  A    between atoms: C_12  and  C_13 
ROOT
HETATM    1  C   UNL     1     -10.276   0.582 -33.415  1.00  0.00     0.271 C 
HETATM    2  N   UNL     1      -8.942   0.708 -33.782  1.00  0.00    -0.243 N 
HETATM    3  O   UNL     1     -10.772  -0.372 -32.822  1.00  0.00    -0.266 OA
HETATM    4  H   UNL     1      -8.580   1.635 -33.980  1.00  0.00     0.192 HD
ENDROOT
BRANCH   2   5
HETATM    5  N   UNL     1      -7.953  -0.220 -33.565  1.00  0.00    -0.183 NA
HETATM    6  C   UNL     1      -6.761   0.027 -34.008  1.00  0.00     0.153 C 
BRANCH   6   7
HETATM    7  C   UNL     1      -5.689  -0.936 -33.814  1.00  0.00     0.018 A 
HETATM    8  C   UNL     1      -5.729  -2.317 -34.205  1.00  0.00     0.004 A 
HETATM    9  C   UNL     1      -4.505  -2.887 -33.862  1.00  0.00     0.043 A 
HETATM   10  C   UNL     1      -6.700  -3.136 -34.820  1.00  0.00     0.014 A 
HETATM   11  C   UNL     1      -4.198  -4.232 -34.106  1.00  0.00     0.030 A 
HETATM   12  N   UNL     1      -3.750  -1.899 -33.279  1.00  0.00    -0.358 N 
HETATM   13  C   UNL     1      -5.175  -5.020 -34.720  1.00  0.00     0.002 A 
HETATM   14  C   UNL     1      -6.410  -4.484 -35.071  1.00  0.00     0.001 A 
HETATM   15  H   UNL     1      -2.812  -2.034 -32.929  1.00  0.00     0.166 HD
HETATM   16  C   UNL     1      -4.442  -0.714 -33.240  1.00  0.00     0.018 A 
HETATM   17  C   UNL     1      -3.833   0.512 -32.661  1.00  0.00     0.069 C 
ENDBRANCH   6   7
ENDBRANCH   2   5
BRANCH   1  18
HETATM   18  C   UNL     1     -11.149   1.740 -33.763  1.00  0.00     0.033 A 
HETATM   19  C   UNL     1     -11.229   2.883 -32.961  1.00  0.00     0.019 A 
HETATM   20  C   UNL     1     -12.024   3.969 -33.356  1.00  0.00     0.030 A 
HETATM   21  C   UNL     1     -12.740   3.930 -34.554  1.00  0.00     0.034 A 
HETATM   22  C   UNL     1     -12.659   2.782 -35.353  1.00  0.00     0.030 A 
HETATM   23  C   UNL     1     -11.864   1.698 -34.965  1.00  0.00     0.019 A 
BRANCH  21  24
HETATM   24  N   UNL     1     -13.537   4.989 -35.034  1.00  0.00    -0.327 N 
HETATM   25  C   UNL     1     -13.112   6.160 -35.634  1.00  0.00     0.221 C 
HETATM   26  O   UNL     1     -11.947   6.506 -35.810  1.00  0.00    -0.273 OA
HETATM   27  H   UNL     1     -14.537   4.856 -34.954  1.00  0.00     0.169 HD
BRANCH  25  28
HETATM   28  C   UNL     1     -14.254   7.071 -36.055  1.00  0.00     0.098 C 
HETATM   29  C   UNL     1     -14.252   7.391 -37.541  1.00  0.00     0.014 C 
ENDBRANCH  25  28
ENDBRANCH  21  24
ENDBRANCH   1  18
TORSDOF 5
ENDMDL
MODEL 4
REMARK VINA RESULT:      -8.1      5.968     10.206
REMARK  5 active torsions:
REMARK  status: ('A' for Active; 'I' for Inactive)
REMARK    1  A    between atoms: C_2  and  C_3 
REMARK       I    between atoms: C_3  and  N_4 
REMARK    2  A    between atoms: N_4  and  C_5 
REMARK    3  A    between atoms: C_8  and  C_9 
REMARK       I    between atoms: C_9  and  N_10 
REMARK    4  A    between atoms: N_10  and  N_11 
REMARK    5  A    between atoms: C_12  and  C_13 
ROOT
HETATM    1  C   UNL     1      -9.667   2.158 -33.521  1.00  0.00     0.271 C 
HETATM    2  N   UNL     1      -9.443   0.937 -34.144  1.00  0.00    -0.243 N 
HETATM    3  O   UNL     1      -8.804   2.910 -33.080  1.00  0.00    -0.266 OA
HETATM    4  H   UNL     1     -10.173   0.552 -34.734  1.00  0.00     0.192 HD
ENDROOT
BRANCH   2   5
HETATM    5  N   UNL     1      -8.218   0.350 -34.353  1.00  0.00    -0.183 NA
HETATM    6  C   UNL     1      -7.697  -0.355 -33.399  1.00  0.00     0.153 C 
BRANCH   6   7
HETATM    7  C   UNL     1      -6.395  -0.980 -33.573  1.00  0.00     0.018 A 
HETATM    8  C   UNL     1      -6.170  -2.307 -34.073  1.00  0.00     0.004 A 
HETATM    9  C   UNL     1      -4.792  -2.517 -34.104  1.00  0.00     0.043 A 
HETATM   10  C   UNL     1      -7.015  -3.353 -34.503  1.00  0.00     0.014 A 
HETATM   11  C   UNL     1      -4.215  -3.715 -34.545  1.00  0.00     0.030 A 
HETATM   12  N   UNL     1      -4.200  -1.370 -33.635  1.00  0.00    -0.358 N 
HETATM   13  C   UNL     1      -5.075  -4.731 -34.969  1.00  0.00     0.002 A 
HETATM   14  C   UNL     1      -6.455  -4.557 -34.947  1.00  0.00     0.001 A 
HETATM   15  H   UNL     1      -3.202  -1.243 -33.545  1.00  0.00     0.166 HD
HETATM   16  C   UNL     1      -5.146  -0.429 -33.310  1.00  0.00     0.018 A 
HETATM   17  C   UNL     1      -4.754   0.905 -32.786  1.00  0.00     0.069 C 
ENDBRANCH   6   7
ENDBRANCH   2   5
BRANCH   1  18
HETATM   18  C   UNL     1     -11.096   2.575 -33.424  1.00  0.00     0.033 A 
HETATM   19  C   UNL     1     -12.079   2.082 -34.289  1.00  0.00     0.019 A 
HETATM   20  C   UNL     1     -13.419   2.462 -34.126  1.00  0.00     0.030 A 
HETATM   21  C   UNL     1     -13.794   3.330 -33.099  1.00  0.00     0.034 A 
HETATM   22  C   UNL     1     -12.807   3.824 -32.238  1.00  0.00     0.030 A 
HETATM   23  C   UNL     1     -11.469   3.444 -32.393  1.00  0.00     0.019 A 
BRANCH  21  24
HETATM   24  N   UNL     1     -15.121   3.738 -32.853  1.00  0.00    -0.327 N 
HETATM   25  C   UNL     1     -16.089   3.064 -32.131  1.00  0.00     0.221 C 
HETATM   26  O   UNL     1     -15.973   1.957 -31.615  1.00  0.00    -0.273 OA
HETATM   27  H   UNL     1     -15.378   4.642 -33.225  1.00  0.00     0.169 HD
BRANCH  25  28
HETATM   28  C   UNL     1     -17.408   3.816 -32.045  1.00  0.00     0.098 C 
HETATM   29  C   UNL     1     -17.282   5.179 -31.385  1.00  0.00     0.014 C 
ENDBRANCH  25  28
ENDBRANCH  21  24
ENDBRANCH   1  18
TORSDOF 5
ENDMDL
MODEL 5
REMARK VINA RESULT:      -7.6      2.283     10.517
REMARK  5 active torsions:
REMARK  status: ('A' for Active; 'I' for Inactive)
REMARK    1  A    between atoms: C_2  and  C_3 
REMARK       I    between atoms: C_3  and  N_4 
REMARK    2  A    between atoms: N_4  and  C_5 
REMARK    3  A    between atoms: C_8  and  C_9 
REMARK       I    between atoms: C_9  and  N_10 
REMARK    4  A    between atoms: N_10  and  N_11 
REMARK    5  A    between atoms: C_12  and  C_13 
ROOT
HETATM    1  C   UNL     1      -2.431   4.575 -31.472  1.00  0.00     0.271 C 
HETATM    2  N   UNL     1      -2.893   5.592 -30.646  1.00  0.00    -0.243 N 
HETATM    3  O   UNL     1      -1.277   4.435 -31.864  1.00  0.00    -0.266 OA
HETATM    4  H   UNL     1      -3.762   5.449 -30.140  1.00  0.00     0.192 HD
ENDROOT
BRANCH   2   5
HETATM    5  N   UNL     1      -2.143   6.628 -30.143  1.00  0.00    -0.183 NA
HETATM    6  C   UNL     1      -2.538   7.209 -29.055  1.00  0.00     0.153 C 
BRANCH   6   7
HETATM    7  C   UNL     1      -1.782   8.320 -28.498  1.00  0.00     0.018 A 
HETATM    8  C   UNL     1      -0.517   8.212 -27.829  1.00  0.00     0.004 A 
HETATM    9  C   UNL     1      -0.122   9.499 -27.466  1.00  0.00     0.043 A 
HETATM   10  C   UNL     1       0.332   7.134 -27.497  1.00  0.00     0.014 A 
HETATM   11  C   UNL     1       1.077   9.764 -26.792  1.00  0.00     0.030 A 
HETATM   12  N   UNL     1      -1.109  10.356 -27.887  1.00  0.00    -0.358 N 
HETATM   13  C   UNL     1       1.900   8.680 -26.480  1.00  0.00     0.002 A 
HETATM   14  C   UNL     1       1.535   7.381 -26.823  1.00  0.00     0.001 A 
HETATM   15  H   UNL     1      -1.086  11.357 -27.753  1.00  0.00     0.166 HD
HETATM   16  C   UNL     1      -2.119   9.668 -28.514  1.00  0.00     0.018 A 
HETATM   17  C   UNL     1      -3.301  10.378 -29.068  1.00  0.00     0.069 C 
ENDBRANCH   6   7
ENDBRANCH   2   5
BRANCH   1  18
HETATM   18  C   UNL     1      -3.452   3.565 -31.876  1.00  0.00     0.033 A 
HETATM   19  C   UNL     1      -4.430   3.833 -32.839  1.00  0.00     0.019 A 
HETATM   20  C   UNL     1      -5.336   2.835 -33.224  1.00  0.00     0.030 A 
HETATM   21  C   UNL     1      -5.274   1.559 -32.660  1.00  0.00     0.034 A 
HETATM   22  C   UNL     1      -4.294   1.295 -31.694  1.00  0.00     0.030 A 
HETATM   23  C   UNL     1      -3.385   2.287 -31.310  1.00  0.00     0.019 A 
BRANCH  21  24
HETATM   24  N   UNL     1      -6.129   0.495 -33.013  1.00  0.00    -0.327 N 
HETATM   25  C   UNL     1      -5.792  -0.673 -33.671  1.00  0.00     0.221 C 
HETATM   26  O   UNL     1      -4.685  -0.967 -34.112  1.00  0.00    -0.273 OA
HETATM   27  H   UNL     1      -7.092   0.592 -32.720  1.00  0.00     0.169 HD
BRANCH  25  28
HETATM   28  C   UNL     1      -6.969  -1.617 -33.862  1.00  0.00     0.098 C 
HETATM   29  C   UNL     1      -6.615  -2.870 -34.646  1.00  0.00     0.014 C 
ENDBRANCH  25  28
ENDBRANCH  21  24
ENDBRANCH   1  18
TORSDOF 5
ENDMDL
MODEL 6
REMARK VINA RESULT:      -7.5      5.980      8.540
REMARK  5 active torsions:
REMARK  status: ('A' for Active; 'I' for Inactive)
REMARK    1  A    between atoms: C_2  and  C_3 
REMARK       I    between atoms: C_3  and  N_4 
REMARK    2  A    between atoms: N_4  and  C_5 
REMARK    3  A    between atoms: C_8  and  C_9 
REMARK       I    between atoms: C_9  and  N_10 
REMARK    4  A    between atoms: N_10  and  N_11 
REMARK    5  A    between atoms: C_12  and  C_13 
ROOT
HETATM    1  C   UNL     1      -8.680   1.588 -33.537  1.00  0.00     0.271 C 
HETATM    2  N   UNL     1      -7.322   1.680 -33.255  1.00  0.00    -0.243 N 
HETATM    3  O   UNL     1      -9.355   0.564 -33.498  1.00  0.00    -0.266 OA
HETATM    4  H   UNL     1      -6.937   2.588 -33.016  1.00  0.00     0.192 HD
ENDROOT
BRANCH   2   5
HETATM    5  N   UNL     1      -6.498   0.638 -32.904  1.00  0.00    -0.183 NA
HETATM    6  C   UNL     1      -5.853   0.016 -33.840  1.00  0.00     0.153 C 
BRANCH   6   7
HETATM    7  C   UNL     1      -4.982  -1.103 -33.514  1.00  0.00     0.018 A 
HETATM    8  C   UNL     1      -5.147  -2.450 -33.985  1.00  0.00     0.004 A 
HETATM    9  C   UNL     1      -4.100  -3.208 -33.465  1.00  0.00     0.043 A 
HETATM   10  C   UNL     1      -6.095  -3.095 -34.808  1.00  0.00     0.014 A 
HETATM   11  C   UNL     1      -3.949  -4.576 -33.727  1.00  0.00     0.030 A 
HETATM   12  N   UNL     1      -3.332  -2.363 -32.702  1.00  0.00    -0.358 N 
HETATM   13  C   UNL     1      -4.899  -5.189 -34.548  1.00  0.00     0.002 A 
HETATM   14  C   UNL     1      -5.960  -4.462 -35.080  1.00  0.00     0.001 A 
HETATM   15  H   UNL     1      -2.502  -2.649 -32.201  1.00  0.00     0.166 HD
HETATM   16  C   UNL     1      -3.843  -1.089 -32.718  1.00  0.00     0.018 A 
HETATM   17  C   UNL     1      -3.181   0.013 -31.972  1.00  0.00     0.069 C 
ENDBRANCH   6   7
ENDBRANCH   2   5
BRANCH   1  18
HETATM   18  C   UNL     1      -9.349   2.874 -33.887  1.00  0.00     0.033 A 
HETATM   19  C   UNL     1      -8.773   4.117 -33.607  1.00  0.00     0.019 A 
HETATM   20  C   UNL     1      -9.416   5.299 -34.002  1.00  0.00     0.030 A 
HETATM   21  C   UNL     1     -10.633   5.256 -34.685  1.00  0.00     0.034 A 
HETATM   22  C   UNL     1     -11.207   4.009 -34.961  1.00  0.00     0.030 A 
HETATM   23  C   UNL     1     -10.568   2.827 -34.573  1.00  0.00     0.019 A 
BRANCH  21  24
HETATM   24  N   UNL     1     -11.326   6.396 -35.139  1.00  0.00    -0.327 N 
HETATM   25  C   UNL     1     -10.909   7.315 -36.085  1.00  0.00     0.221 C 
HETATM   26  O   UNL     1      -9.827   7.324 -36.663  1.00  0.00    -0.273 OA
HETATM   27  H   UNL     1     -12.248   6.533 -34.746  1.00  0.00     0.169 HD
BRANCH  25  28
HETATM   28  C   UNL     1     -11.931   8.410 -36.351  1.00  0.00     0.098 C 
HETATM   29  C   UNL     1     -13.334   7.878 -36.590  1.00  0.00     0.014 C 
ENDBRANCH  25  28
ENDBRANCH  21  24
ENDBRANCH   1  18
TORSDOF 5
ENDMDL
MODEL 7
REMARK VINA RESULT:      -7.5      6.100      9.130
REMARK  5 active torsions:
REMARK  status: ('A' for Active; 'I' for Inactive)
REMARK    1  A    between atoms: C_2  and  C_3 
REMARK       I    between atoms: C_3  and  N_4 
REMARK    2  A    between atoms: N_4  and  C_5 
REMARK    3  A    between atoms: C_8  and  C_9 
REMARK       I    between atoms: C_9  and  N_10 
REMARK    4  A    between atoms: N_10  and  N_11 
REMARK    5  A    between atoms: C_12  and  C_13 
ROOT
HETATM    1  C   UNL     1      -9.863   1.116 -32.861  1.00  0.00     0.271 C 
HETATM    2  N   UNL     1      -8.514   1.411 -32.705  1.00  0.00    -0.243 N 
HETATM    3  O   UNL     1     -10.352  -0.008 -32.918  1.00  0.00    -0.266 OA
HETATM    4  H   UNL     1      -8.256   2.332 -32.365  1.00  0.00     0.192 HD
ENDROOT
BRANCH   2   5
HETATM    5  N   UNL     1      -7.494   0.497 -32.609  1.00  0.00    -0.183 NA
HETATM    6  C   UNL     1      -6.806   0.220 -33.671  1.00  0.00     0.153 C 
BRANCH   6   7
HETATM    7  C   UNL     1      -5.727  -0.754 -33.617  1.00  0.00     0.018 A 
HETATM    8  C   UNL     1      -5.811  -2.114 -34.069  1.00  0.00     0.004 A 
HETATM    9  C   UNL     1      -4.566  -2.704 -33.862  1.00  0.00     0.043 A 
HETATM   10  C   UNL     1      -6.837  -2.901 -34.636  1.00  0.00     0.014 A 
HETATM   11  C   UNL     1      -4.291  -4.037 -34.195  1.00  0.00     0.030 A 
HETATM   12  N   UNL     1      -3.756  -1.747 -33.300  1.00  0.00    -0.358 N 
HETATM   13  C   UNL     1      -5.323  -4.791 -34.759  1.00  0.00     0.002 A 
HETATM   14  C   UNL     1      -6.580  -4.235 -34.975  1.00  0.00     0.001 A 
HETATM   15  H   UNL     1      -2.792  -1.902 -33.041  1.00  0.00     0.166 HD
HETATM   16  C   UNL     1      -4.434  -0.563 -33.145  1.00  0.00     0.018 A 
HETATM   17  C   UNL     1      -3.768   0.631 -32.563  1.00  0.00     0.069 C 
ENDBRANCH   6   7
ENDBRANCH   2   5
BRANCH   1  18
HETATM   18  C   UNL     1     -10.773   2.296 -32.934  1.00  0.00     0.033 A 
HETATM   19  C   UNL     1     -12.023   2.239 -33.559  1.00  0.00     0.019 A 
HETATM   20  C   UNL     1     -12.866   3.360 -33.557  1.00  0.00     0.030 A 
HETATM   21  C   UNL     1     -12.476   4.545 -32.929  1.00  0.00     0.034 A 
HETATM   22  C   UNL     1     -11.222   4.598 -32.307  1.00  0.00     0.030 A 
HETATM   23  C   UNL     1     -10.379   3.481 -32.303  1.00  0.00     0.019 A 
BRANCH  21  24
HETATM   24  N   UNL     1     -13.275   5.703 -32.859  1.00  0.00    -0.327 N 
HETATM   25  C   UNL     1     -14.110   6.091 -31.827  1.00  0.00     0.221 C 
HETATM   26  O   UNL     1     -14.339   5.458 -30.800  1.00  0.00    -0.273 OA
HETATM   27  H   UNL     1     -13.201   6.335 -33.646  1.00  0.00     0.169 HD
BRANCH  25  28
HETATM   28  C   UNL     1     -14.802   7.421 -32.079  1.00  0.00     0.098 C 
HETATM   29  C   UNL     1     -13.837   8.552 -32.392  1.00  0.00     0.014 C 
ENDBRANCH  25  28
ENDBRANCH  21  24
ENDBRANCH   1  18
TORSDOF 5
ENDMDL
MODEL 8
REMARK VINA RESULT:      -7.4      6.202      9.928
REMARK  5 active torsions:
REMARK  status: ('A' for Active; 'I' for Inactive)
REMARK    1  A    between atoms: C_2  and  C_3 
REMARK       I    between atoms: C_3  and  N_4 
REMARK    2  A    between atoms: N_4  and  C_5 
REMARK    3  A    between atoms: C_8  and  C_9 
REMARK       I    between atoms: C_9  and  N_10 
REMARK    4  A    between atoms: N_10  and  N_11 
REMARK    5  A    between atoms: C_12  and  C_13 
ROOT
HETATM    1  C   UNL     1     -10.187   0.730 -33.707  1.00  0.00     0.271 C 
HETATM    2  N   UNL     1      -8.886   0.645 -34.187  1.00  0.00    -0.243 N 
HETATM    3  O   UNL     1     -10.680   0.020 -32.837  1.00  0.00    -0.266 OA
HETATM    4  H   UNL     1      -8.491   1.450 -34.663  1.00  0.00     0.192 HD
ENDROOT
BRANCH   2   5
HETATM    5  N   UNL     1      -7.935  -0.262 -33.786  1.00  0.00    -0.183 NA
HETATM    6  C   UNL     1      -6.739  -0.164 -34.275  1.00  0.00     0.153 C 
BRANCH   6   7
HETATM    7  C   UNL     1      -5.706  -1.113 -33.890  1.00  0.00     0.018 A 
HETATM    8  C   UNL     1      -4.624  -0.843 -32.986  1.00  0.00     0.004 A 
HETATM    9  C   UNL     1      -3.873  -2.011 -32.868  1.00  0.00     0.043 A 
HETATM   10  C   UNL     1      -4.213   0.292 -32.254  1.00  0.00     0.014 A 
HETATM   11  C   UNL     1      -2.735  -2.105 -32.056  1.00  0.00     0.030 A 
HETATM   12  N   UNL     1      -4.465  -2.953 -33.673  1.00  0.00    -0.358 N 
HETATM   13  C   UNL     1      -2.353  -0.968 -31.340  1.00  0.00     0.002 A 
HETATM   14  C   UNL     1      -3.078   0.216 -31.437  1.00  0.00     0.001 A 
HETATM   15  H   UNL     1      -4.127  -3.898 -33.784  1.00  0.00     0.166 HD
HETATM   16  C   UNL     1      -5.573  -2.435 -34.297  1.00  0.00     0.018 A 
HETATM   17  C   UNL     1      -6.394  -3.265 -35.218  1.00  0.00     0.069 C 
ENDBRANCH   6   7
ENDBRANCH   2   5
BRANCH   1  18
HETATM   18  C   UNL     1     -11.021   1.812 -34.306  1.00  0.00     0.033 A 
HETATM   19  C   UNL     1     -12.403   1.682 -34.478  1.00  0.00     0.019 A 
HETATM   20  C   UNL     1     -13.154   2.747 -34.997  1.00  0.00     0.030 A 
HETATM   21  C   UNL     1     -12.539   3.951 -35.345  1.00  0.00     0.034 A 
HETATM   22  C   UNL     1     -11.154   4.076 -35.174  1.00  0.00     0.030 A 
HETATM   23  C   UNL     1     -10.401   3.018 -34.652  1.00  0.00     0.019 A 
BRANCH  21  24
HETATM   24  N   UNL     1     -13.226   5.075 -35.846  1.00  0.00    -0.327 N 
HETATM   25  C   UNL     1     -13.608   6.208 -35.152  1.00  0.00     0.221 C 
HETATM   26  O   UNL     1     -13.456   6.411 -33.951  1.00  0.00    -0.273 OA
HETATM   27  H   UNL     1     -13.433   5.056 -36.836  1.00  0.00     0.169 HD
BRANCH  25  28
HETATM   28  C   UNL     1     -14.311   7.239 -36.021  1.00  0.00     0.098 C 
HETATM   29  C   UNL     1     -14.057   7.046 -37.507  1.00  0.00     0.014 C 
ENDBRANCH  25  28
ENDBRANCH  21  24
ENDBRANCH   1  18
TORSDOF 5
ENDMDL
MODEL 9
REMARK VINA RESULT:      -7.4      7.134     10.484
REMARK  5 active torsions:
REMARK  status: ('A' for Active; 'I' for Inactive)
REMARK    1  A    between atoms: C_2  and  C_3 
REMARK       I    between atoms: C_3  and  N_4 
REMARK    2  A    between atoms: N_4  and  C_5 
REMARK    3  A    between atoms: C_8  and  C_9 
REMARK       I    between atoms: C_9  and  N_10 
REMARK    4  A    between atoms: N_10  and  N_11 
REMARK    5  A    between atoms: C_12  and  C_13 
ROOT
HETATM    1  C   UNL     1      -8.610   2.032 -33.659  1.00  0.00     0.271 C 
HETATM    2  N   UNL     1      -9.883   1.871 -33.124  1.00  0.00    -0.243 N 
HETATM    3  O   UNL     1      -8.085   3.099 -33.957  1.00  0.00    -0.266 OA
HETATM    4  H   UNL     1     -10.098   1.008 -32.635  1.00  0.00     0.192 HD
ENDROOT
BRANCH   2   5
HETATM    5  N   UNL     1     -10.779   2.878 -32.857  1.00  0.00    -0.183 NA
HETATM    6  C   UNL     1     -12.046   2.616 -32.931  1.00  0.00     0.153 C 
BRANCH   6   7
HETATM    7  C   UNL     1     -13.029   3.656 -32.673  1.00  0.00     0.018 A 
HETATM    8  C   UNL     1     -14.427   3.438 -32.432  1.00  0.00     0.004 A 
HETATM    9  C   UNL     1     -15.016   4.682 -32.210  1.00  0.00     0.043 A 
HETATM   10  C   UNL     1     -15.250   2.291 -32.382  1.00  0.00     0.014 A 
HETATM   11  C   UNL     1     -16.381   4.839 -31.938  1.00  0.00     0.030 A 
HETATM   12  N   UNL     1     -14.021   5.622 -32.320  1.00  0.00    -0.358 N 
HETATM   13  C   UNL     1     -17.171   3.688 -31.890  1.00  0.00     0.002 A 
HETATM   14  C   UNL     1     -16.617   2.430 -32.111  1.00  0.00     0.001 A 
HETATM   15  H   UNL     1     -14.165   6.615 -32.209  1.00  0.00     0.166 HD
HETATM   16  C   UNL     1     -12.815   5.027 -32.597  1.00  0.00     0.018 A 
HETATM   17  C   UNL     1     -11.578   5.837 -32.754  1.00  0.00     0.069 C 
ENDBRANCH   6   7
ENDBRANCH   2   5
BRANCH   1  18
HETATM   18  C   UNL     1      -7.831   0.774 -33.846  1.00  0.00     0.033 A 
HETATM   19  C   UNL     1      -7.639   0.194 -35.105  1.00  0.00     0.019 A 
HETATM   20  C   UNL     1      -6.855  -0.961 -35.239  1.00  0.00     0.030 A 
HETATM   21  C   UNL     1      -6.251  -1.546 -34.124  1.00  0.00     0.034 A 
HETATM   22  C   UNL     1      -6.448  -0.964 -32.866  1.00  0.00     0.030 A 
HETATM   23  C   UNL     1      -7.226   0.191 -32.728  1.00  0.00     0.019 A 
BRANCH  21  24
HETATM   24  N   UNL     1      -5.427  -2.689 -34.180  1.00  0.00    -0.327 N 
HETATM   25  C   UNL     1      -5.785  -3.967 -34.569  1.00  0.00     0.221 C 
HETATM   26  O   UNL     1      -6.908  -4.342 -34.890  1.00  0.00    -0.273 OA
HETATM   27  H   UNL     1      -4.457  -2.542 -33.934  1.00  0.00     0.169 HD
BRANCH  25  28
HETATM   28  C   UNL     1      -4.627  -4.953 -34.533  1.00  0.00     0.098 C 
HETATM   29  C   UNL     1      -3.550  -4.580 -33.528  1.00  0.00     0.014 C 
ENDBRANCH  25  28
ENDBRANCH  21  24
ENDBRANCH   1  18
TORSDOF 5
ENDMDL
MODEL 10
REMARK VINA RESULT:      -7.3      3.339     10.514
REMARK  5 active torsions:
REMARK  status: ('A' for Active; 'I' for Inactive)
REMARK    1  A    between atoms: C_2  and  C_3 
REMARK       I    between atoms: C_3  and  N_4 
REMARK    2  A    between atoms: N_4  and  C_5 
REMARK    3  A    between atoms: C_8  and  C_9 
REMARK       I    between atoms: C_9  and  N_10 
REMARK    4  A    between atoms: N_10  and  N_11 
REMARK    5  A    between atoms: C_12  and  C_13 
ROOT
HETATM    1  C   UNL     1      -5.850   2.218 -32.224  1.00  0.00     0.271 C 
HETATM    2  N   UNL     1      -5.291   3.142 -33.098  1.00  0.00    -0.243 N 
HETATM    3  O   UNL     1      -5.313   1.760 -31.220  1.00  0.00    -0.266 OA
HETATM    4  H   UNL     1      -5.909   3.677 -33.699  1.00  0.00     0.192 HD
ENDROOT
BRANCH   2   5
HETATM    5  N   UNL     1      -4.033   3.685 -33.002  1.00  0.00    -0.183 NA
HETATM    6  C   UNL     1      -3.917   4.918 -32.621  1.00  0.00     0.153 C 
BRANCH   6   7
HETATM    7  C   UNL     1      -2.605   5.538 -32.521  1.00  0.00     0.018 A 
HETATM    8  C   UNL     1      -2.077   6.187 -31.354  1.00  0.00     0.004 A 
HETATM    9  C   UNL     1      -0.791   6.627 -31.662  1.00  0.00     0.043 A 
HETATM   10  C   UNL     1      -2.579   6.441 -30.059  1.00  0.00     0.014 A 
HETATM   11  C   UNL     1       0.020   7.305 -30.743  1.00  0.00     0.030 A 
HETATM   12  N   UNL     1      -0.546   6.270 -32.965  1.00  0.00    -0.358 N 
HETATM   13  C   UNL     1      -0.499   7.539 -29.467  1.00  0.00     0.002 A 
HETATM   14  C   UNL     1      -1.781   7.117 -29.128  1.00  0.00     0.001 A 
HETATM   15  H   UNL     1       0.316   6.468 -33.454  1.00  0.00     0.166 HD
HETATM   16  C   UNL     1      -1.623   5.611 -33.503  1.00  0.00     0.018 A 
HETATM   17  C   UNL     1      -1.598   5.114 -34.904  1.00  0.00     0.069 C 
ENDBRANCH   6   7
ENDBRANCH   2   5
BRANCH   1  18
HETATM   18  C   UNL     1      -7.241   1.788 -32.550  1.00  0.00     0.033 A 
HETATM   19  C   UNL     1      -7.809   1.989 -33.813  1.00  0.00     0.019 A 
HETATM   20  C   UNL     1      -9.101   1.521 -34.089  1.00  0.00     0.030 A 
HETATM   21  C   UNL     1      -9.838   0.844 -33.115  1.00  0.00     0.034 A 
HETATM   22  C   UNL     1      -9.266   0.647 -31.852  1.00  0.00     0.030 A 
HETATM   23  C   UNL     1      -7.975   1.108 -31.573  1.00  0.00     0.019 A 
BRANCH  21  24
HETATM   24  N   UNL     1     -11.130   0.319 -33.323  1.00  0.00    -0.327 N 
HETATM   25  C   UNL     1     -12.323   1.016 -33.377  1.00  0.00     0.221 C 
HETATM   26  O   UNL     1     -12.471   2.221 -33.202  1.00  0.00    -0.273 OA
HETATM   27  H   UNL     1     -11.177  -0.679 -33.480  1.00  0.00     0.169 HD
BRANCH  25  28
HETATM   28  C   UNL     1     -13.527   0.127 -33.647  1.00  0.00     0.098 C 
HETATM   29  C   UNL     1     -14.634   0.830 -34.415  1.00  0.00     0.014 C 
ENDBRANCH  25  28
ENDBRANCH  21  24
ENDBRANCH   1  18
TORSDOF 5
ENDMDL
