MODEL 1
REMARK VINA RESULT:      -9.1      0.000      0.000
REMARK  8 active torsions:
REMARK  status: ('A' for Active; 'I' for Inactive)
REMARK    1  A    between atoms: C_2  and  O_3 
REMARK    2  A    between atoms: O_3  and  C_4 
REMARK    3  A    between atoms: C_5  and  O_6 
REMARK    4  A    between atoms: O_6  and  C_7 
REMARK    5  A    between atoms: C_7  and  C_8 
REMARK       I    between atoms: C_8  and  N_9 
REMARK    6  A    between atoms: C_13  and  C_14 
REMARK    7  A    between atoms: C_21  and  C_22 
REMARK       I    between atoms: C_22  and  N_23 
REMARK    8  A    between atoms: N_23  and  C_24 
ROOT
HETATM    1  C   UNL     1      -6.892   3.046 -34.240  1.00  0.00     0.160 C 
HETATM    2  N   UNL     1      -5.629   3.756 -34.174  1.00  0.00    -0.330 N 
HETATM    3  C   UNL     1      -5.532   5.092 -33.970  1.00  0.00     0.321 C 
HETATM    4  O   UNL     1      -4.501   5.709 -34.214  1.00  0.00    -0.247 OA
HETATM    5  N   UNL     1      -6.634   5.696 -33.446  1.00  0.00    -0.312 N 
HETATM    6  C   UNL     1      -7.796   5.050 -33.085  1.00  0.00     0.024 C 
HETATM    7  C   UNL     1      -8.811   5.911 -32.382  1.00  0.00     0.069 C 
HETATM    8  C   UNL     1      -7.942   3.750 -33.421  1.00  0.00     0.059 C 
HETATM    9  H   UNL     1      -4.806   3.339 -34.587  1.00  0.00     0.165 HD
HETATM   10  H   UNL     1      -6.509   6.678 -33.225  1.00  0.00     0.170 HD
ENDROOT
BRANCH   1  11
HETATM   11  C   UNL     1      -6.620   1.570 -33.998  1.00  0.00    -0.028 A 
HETATM   12  C   UNL     1      -6.924   0.657 -35.024  1.00  0.00     0.012 A 
HETATM   13  C   UNL     1      -6.579  -0.694 -34.920  1.00  0.00     0.040 A 
HETATM   14  C   UNL     1      -5.940  -1.173 -33.776  1.00  0.00     0.102 A 
HETATM   15  C   UNL     1      -5.674  -0.283 -32.725  1.00  0.00     0.102 A 
HETATM   16  C   UNL     1      -5.976   1.082 -32.853  1.00  0.00     0.049 A 
BRANCH  14  17
HETATM   17  O   UNL     1      -5.458  -2.450 -33.664  1.00  0.00    -0.339 OA
BRANCH  17  18
HETATM   18  C   UNL     1      -5.087  -3.098 -34.878  1.00  0.00     0.278 C 
BRANCH  18  19
HETATM   19  C   UNL     1      -5.674  -4.506 -34.906  1.00  0.00     0.239 C 
HETATM   20  N   UNL     1      -6.989  -4.591 -35.265  1.00  0.00    -0.368 N 
HETATM   21  H   UNL     1      -7.447  -3.792 -35.692  1.00  0.00     0.159 HD
HETATM   22  H   UNL     1      -7.405  -5.507 -35.358  1.00  0.00     0.159 HD
HETATM   23  O   UNL     1      -5.042  -5.506 -34.578  1.00  0.00    -0.271 OA
ENDBRANCH  18  19
ENDBRANCH  17  18
ENDBRANCH  14  17
BRANCH  15  24
HETATM   24  O   UNL     1      -5.032  -0.643 -31.565  1.00  0.00    -0.349 OA
BRANCH  24  25
HETATM   25  C   UNL     1      -3.744  -0.042 -31.377  1.00  0.00     0.171 C 
HETATM   26  C   UNL     1      -2.628  -0.917 -31.918  1.00  0.00     0.034 C 
ENDBRANCH  24  25
ENDBRANCH  15  24
ENDBRANCH   1  11
BRANCH   8  27
HETATM   27  C   UNL     1      -9.180   3.032 -33.002  1.00  0.00     0.256 C 
HETATM   28  N   UNL     1      -9.917   2.553 -34.061  1.00  0.00    -0.323 N 
HETATM   29  H   UNL     1      -9.627   2.877 -34.972  1.00  0.00     0.169 HD
HETATM   30  O   UNL     1      -9.458   2.991 -31.812  1.00  0.00    -0.267 OA
BRANCH  28  31
HETATM   31  C   UNL     1     -11.130   1.816 -34.073  1.00  0.00     0.041 A 
HETATM   32  C   UNL     1     -11.383   0.552 -33.508  1.00  0.00    -0.035 A 
HETATM   33  C   UNL     1     -10.374  -0.319 -32.819  1.00  0.00     0.050 C 
HETATM   34  C   UNL     1     -12.690   0.018 -33.590  1.00  0.00     0.009 A 
HETATM   35  C   UNL     1     -13.715   0.684 -34.256  1.00  0.00     0.001 A 
HETATM   36  C   UNL     1     -13.455   1.904 -34.858  1.00  0.00     0.002 A 
HETATM   37  C   UNL     1     -12.177   2.459 -34.768  1.00  0.00     0.030 A 
ENDBRANCH  28  31
ENDBRANCH   8  27
TORSDOF 8
ENDMDL
MODEL 2
REMARK VINA RESULT:      -8.7      2.874      7.064
REMARK  8 active torsions:
REMARK  status: ('A' for Active; 'I' for Inactive)
REMARK    1  A    between atoms: C_2  and  O_3 
REMARK    2  A    between atoms: O_3  and  C_4 
REMARK    3  A    between atoms: C_5  and  O_6 
REMARK    4  A    between atoms: O_6  and  C_7 
REMARK    5  A    between atoms: C_7  and  C_8 
REMARK       I    between atoms: C_8  and  N_9 
REMARK    6  A    between atoms: C_13  and  C_14 
REMARK    7  A    between atoms: C_21  and  C_22 
REMARK       I    between atoms: C_22  and  N_23 
REMARK    8  A    between atoms: N_23  and  C_24 
ROOT
HETATM    1  C   UNL     1      -7.957   2.018 -31.113  1.00  0.00     0.160 C 
HETATM    2  N   UNL     1      -8.218   3.210 -30.330  1.00  0.00    -0.330 N 
HETATM    3  C   UNL     1      -7.263   3.866 -29.627  1.00  0.00     0.321 C 
HETATM    4  O   UNL     1      -7.548   4.672 -28.749  1.00  0.00    -0.247 OA
HETATM    5  N   UNL     1      -5.976   3.601 -29.981  1.00  0.00    -0.312 N 
HETATM    6  C   UNL     1      -5.590   2.761 -31.002  1.00  0.00     0.024 C 
HETATM    7  C   UNL     1      -4.115   2.756 -31.301  1.00  0.00     0.069 C 
HETATM    8  C   UNL     1      -6.532   2.002 -31.603  1.00  0.00     0.059 C 
HETATM    9  H   UNL     1      -9.162   3.407 -30.030  1.00  0.00     0.165 HD
HETATM   10  H   UNL     1      -5.283   4.164 -29.499  1.00  0.00     0.170 HD
ENDROOT
BRANCH   1  11
HETATM   11  C   UNL     1      -9.092   1.846 -32.110  1.00  0.00    -0.028 A 
HETATM   12  C   UNL     1      -9.577   0.549 -32.356  1.00  0.00     0.012 A 
HETATM   13  C   UNL     1     -10.702   0.332 -33.158  1.00  0.00     0.040 A 
HETATM   14  C   UNL     1     -11.360   1.409 -33.754  1.00  0.00     0.102 A 
HETATM   15  C   UNL     1     -10.859   2.704 -33.557  1.00  0.00     0.102 A 
HETATM   16  C   UNL     1      -9.760   2.923 -32.711  1.00  0.00     0.049 A 
BRANCH  14  17
HETATM   17  O   UNL     1     -12.538   1.282 -34.440  1.00  0.00    -0.339 OA
BRANCH  17  18
HETATM   18  C   UNL     1     -13.486   0.359 -33.909  1.00  0.00     0.278 C 
BRANCH  18  19
HETATM   19  C   UNL     1     -14.896   0.913 -34.087  1.00  0.00     0.239 C 
HETATM   20  N   UNL     1     -15.259   1.895 -33.210  1.00  0.00    -0.368 N 
HETATM   21  H   UNL     1     -14.551   2.355 -32.648  1.00  0.00     0.159 HD
HETATM   22  H   UNL     1     -16.161   2.335 -33.327  1.00  0.00     0.159 HD
HETATM   23  O   UNL     1     -15.689   0.482 -34.919  1.00  0.00    -0.271 OA
ENDBRANCH  18  19
ENDBRANCH  17  18
ENDBRANCH  14  17
BRANCH  15  24
HETATM   24  O   UNL     1     -11.440   3.834 -34.079  1.00  0.00    -0.349 OA
BRANCH  24  25
HETATM   25  C   UNL     1     -10.881   4.281 -35.321  1.00  0.00     0.171 C 
HETATM   26  C   UNL     1     -10.393   5.716 -35.238  1.00  0.00     0.034 C 
ENDBRANCH  24  25
ENDBRANCH  15  24
ENDBRANCH   1  11
BRANCH   8  27
HETATM   27  C   UNL     1      -6.132   1.118 -32.735  1.00  0.00     0.256 C 
HETATM   28  N   UNL     1      -5.996  -0.203 -32.373  1.00  0.00    -0.323 N 
HETATM   29  H   UNL     1      -6.021  -0.384 -31.379  1.00  0.00     0.169 HD
HETATM   30  O   UNL     1      -5.903   1.627 -33.823  1.00  0.00    -0.267 OA
BRANCH  28  31
HETATM   31  C   UNL     1      -5.648  -1.335 -33.154  1.00  0.00     0.041 A 
HETATM   32  C   UNL     1      -4.413  -2.008 -33.204  1.00  0.00    -0.035 A 
HETATM   33  C   UNL     1      -3.166  -1.611 -32.469  1.00  0.00     0.050 C 
HETATM   34  C   UNL     1      -4.295  -3.158 -34.019  1.00  0.00     0.009 A 
HETATM   35  C   UNL     1      -5.350  -3.610 -34.809  1.00  0.00     0.001 A 
HETATM   36  C   UNL     1      -6.549  -2.917 -34.801  1.00  0.00     0.002 A 
HETATM   37  C   UNL     1      -6.692  -1.794 -33.985  1.00  0.00     0.030 A 
ENDBRANCH  28  31
ENDBRANCH   8  27
TORSDOF 8
ENDMDL
MODEL 3
REMARK VINA RESULT:      -8.7      2.725      6.650
REMARK  8 active torsions:
REMARK  status: ('A' for Active; 'I' for Inactive)
REMARK    1  A    between atoms: C_2  and  O_3 
REMARK    2  A    between atoms: O_3  and  C_4 
REMARK    3  A    between atoms: C_5  and  O_6 
REMARK    4  A    between atoms: O_6  and  C_7 
REMARK    5  A    between atoms: C_7  and  C_8 
REMARK       I    between atoms: C_8  and  N_9 
REMARK    6  A    between atoms: C_13  and  C_14 
REMARK    7  A    between atoms: C_21  and  C_22 
REMARK       I    between atoms: C_22  and  N_23 
REMARK    8  A    between atoms: N_23  and  C_24 
ROOT
HETATM    1  C   UNL     1      -7.668   2.980 -33.186  1.00  0.00     0.160 C 
HETATM    2  N   UNL     1      -8.183   3.637 -32.001  1.00  0.00    -0.330 N 
HETATM    3  C   UNL     1      -9.363   3.311 -31.419  1.00  0.00     0.321 C 
HETATM    4  O   UNL     1      -9.917   4.057 -30.621  1.00  0.00    -0.247 OA
HETATM    5  N   UNL     1      -9.872   2.092 -31.749  1.00  0.00    -0.312 N 
HETATM    6  C   UNL     1      -9.267   1.178 -32.584  1.00  0.00     0.024 C 
HETATM    7  C   UNL     1      -9.950  -0.160 -32.666  1.00  0.00     0.069 C 
HETATM    8  C   UNL     1      -8.170   1.562 -33.271  1.00  0.00     0.059 C 
HETATM    9  H   UNL     1      -7.842   4.557 -31.758  1.00  0.00     0.165 HD
HETATM   10  H   UNL     1     -10.711   1.836 -31.239  1.00  0.00     0.170 HD
ENDROOT
BRANCH   1  11
HETATM   11  C   UNL     1      -6.173   3.250 -33.266  1.00  0.00    -0.028 A 
HETATM   12  C   UNL     1      -5.716   4.219 -34.178  1.00  0.00     0.012 A 
HETATM   13  C   UNL     1      -4.374   4.611 -34.211  1.00  0.00     0.040 A 
HETATM   14  C   UNL     1      -3.448   4.026 -33.346  1.00  0.00     0.102 A 
HETATM   15  C   UNL     1      -3.880   3.024 -32.465  1.00  0.00     0.102 A 
HETATM   16  C   UNL     1      -5.237   2.669 -32.400  1.00  0.00     0.049 A 
BRANCH  14  17
HETATM   17  O   UNL     1      -2.152   4.454 -33.234  1.00  0.00    -0.339 OA
BRANCH  17  18
HETATM   18  C   UNL     1      -1.688   5.347 -34.243  1.00  0.00     0.278 C 
BRANCH  18  19
HETATM   19  C   UNL     1      -1.328   6.689 -33.614  1.00  0.00     0.239 C 
HETATM   20  N   UNL     1      -0.698   6.623 -32.403  1.00  0.00    -0.368 N 
HETATM   21  H   UNL     1      -0.311   5.741 -32.084  1.00  0.00     0.159 HD
HETATM   22  H   UNL     1      -0.386   7.484 -31.976  1.00  0.00     0.159 HD
HETATM   23  O   UNL     1      -1.625   7.769 -34.115  1.00  0.00    -0.271 OA
ENDBRANCH  18  19
ENDBRANCH  17  18
ENDBRANCH  14  17
BRANCH  15  24
HETATM   24  O   UNL     1      -3.059   2.398 -31.560  1.00  0.00    -0.349 OA
BRANCH  24  25
HETATM   25  C   UNL     1      -3.655   1.293 -30.868  1.00  0.00     0.171 C 
HETATM   26  C   UNL     1      -2.825   0.029 -31.001  1.00  0.00     0.034 C 
ENDBRANCH  24  25
ENDBRANCH  15  24
ENDBRANCH   1  11
BRANCH   8  27
HETATM   27  C   UNL     1      -7.485   0.570 -34.148  1.00  0.00     0.256 C 
HETATM   28  N   UNL     1      -7.046  -0.545 -33.471  1.00  0.00    -0.323 N 
HETATM   29  H   UNL     1      -7.093  -0.486 -32.464  1.00  0.00     0.169 HD
HETATM   30  O   UNL     1      -7.317   0.848 -35.327  1.00  0.00    -0.267 OA
BRANCH  28  31
HETATM   31  C   UNL     1      -6.373  -1.700 -33.948  1.00  0.00     0.041 A 
HETATM   32  C   UNL     1      -4.986  -1.912 -34.060  1.00  0.00    -0.035 A 
HETATM   33  C   UNL     1      -3.917  -0.905 -33.750  1.00  0.00     0.050 C 
HETATM   34  C   UNL     1      -4.523  -3.168 -34.514  1.00  0.00     0.009 A 
HETATM   35  C   UNL     1      -5.399  -4.179 -34.900  1.00  0.00     0.001 A 
HETATM   36  C   UNL     1      -6.764  -3.954 -34.841  1.00  0.00     0.002 A 
HETATM   37  C   UNL     1      -7.242  -2.729 -34.372  1.00  0.00     0.030 A 
ENDBRANCH  28  31
ENDBRANCH   8  27
TORSDOF 8
ENDMDL
MODEL 4
REMARK VINA RESULT:      -8.6      2.978      6.952
REMARK  8 active torsions:
REMARK  status: ('A' for Active; 'I' for Inactive)
REMARK    1  A    between atoms: C_2  and  O_3 
REMARK    2  A    between atoms: O_3  and  C_4 
REMARK    3  A    between atoms: C_5  and  O_6 
REMARK    4  A    between atoms: O_6  and  C_7 
REMARK    5  A    between atoms: C_7  and  C_8 
REMARK       I    between atoms: C_8  and  N_9 
REMARK    6  A    between atoms: C_13  and  C_14 
REMARK    7  A    between atoms: C_21  and  C_22 
REMARK       I    between atoms: C_22  and  N_23 
REMARK    8  A    between atoms: N_23  and  C_24 
ROOT
HETATM    1  C   UNL     1      -8.031   3.533 -32.627  1.00  0.00     0.160 C 
HETATM    2  N   UNL     1      -8.843   4.023 -31.530  1.00  0.00    -0.330 N 
HETATM    3  C   UNL     1     -10.099   3.582 -31.275  1.00  0.00     0.321 C 
HETATM    4  O   UNL     1     -10.867   4.206 -30.551  1.00  0.00    -0.247 OA
HETATM    5  N   UNL     1     -10.439   2.392 -31.841  1.00  0.00    -0.312 N 
HETATM    6  C   UNL     1      -9.602   1.609 -32.606  1.00  0.00     0.024 C 
HETATM    7  C   UNL     1     -10.159   0.264 -32.987  1.00  0.00     0.069 C 
HETATM    8  C   UNL     1      -8.406   2.116 -32.976  1.00  0.00     0.059 C 
HETATM    9  H   UNL     1      -8.627   4.920 -31.118  1.00  0.00     0.165 HD
HETATM   10  H   UNL     1     -11.351   2.043 -31.569  1.00  0.00     0.170 HD
ENDROOT
BRANCH   1  11
HETATM   11  C   UNL     1      -6.579   3.870 -32.331  1.00  0.00    -0.028 A 
HETATM   12  C   UNL     1      -5.927   3.173 -31.297  1.00  0.00     0.012 A 
HETATM   13  C   UNL     1      -4.560   3.337 -31.057  1.00  0.00     0.040 A 
HETATM   14  C   UNL     1      -3.810   4.223 -31.834  1.00  0.00     0.102 A 
HETATM   15  C   UNL     1      -4.456   4.960 -32.836  1.00  0.00     0.102 A 
HETATM   16  C   UNL     1      -5.818   4.755 -33.107  1.00  0.00     0.049 A 
BRANCH  14  17
HETATM   17  O   UNL     1      -2.448   4.334 -31.741  1.00  0.00    -0.339 OA
BRANCH  17  18
HETATM   18  C   UNL     1      -1.951   5.379 -30.909  1.00  0.00     0.278 C 
BRANCH  18  19
HETATM   19  C   UNL     1      -0.484   5.121 -30.583  1.00  0.00     0.239 C 
HETATM   20  N   UNL     1      -0.121   5.333 -29.283  1.00  0.00    -0.368 N 
HETATM   21  H   UNL     1      -0.837   5.433 -28.571  1.00  0.00     0.159 HD
HETATM   22  H   UNL     1       0.826   5.117 -29.006  1.00  0.00     0.159 HD
HETATM   23  O   UNL     1       0.347   4.797 -31.426  1.00  0.00    -0.271 OA
ENDBRANCH  18  19
ENDBRANCH  17  18
ENDBRANCH  14  17
BRANCH  15  24
HETATM   24  O   UNL     1      -3.811   5.841 -33.670  1.00  0.00    -0.349 OA
BRANCH  24  25
HETATM   25  C   UNL     1      -3.376   5.284 -34.917  1.00  0.00     0.171 C 
HETATM   26  C   UNL     1      -1.874   5.070 -34.948  1.00  0.00     0.034 C 
ENDBRANCH  24  25
ENDBRANCH  15  24
ENDBRANCH   1  11
BRANCH   8  27
HETATM   27  C   UNL     1      -7.477   1.263 -33.772  1.00  0.00     0.256 C 
HETATM   28  N   UNL     1      -7.034   0.154 -33.088  1.00  0.00    -0.323 N 
HETATM   29  H   UNL     1      -7.255   0.137 -32.103  1.00  0.00     0.169 HD
HETATM   30  O   UNL     1      -7.147   1.640 -34.888  1.00  0.00    -0.267 OA
BRANCH  28  31
HETATM   31  C   UNL     1      -6.165  -0.890 -33.500  1.00  0.00     0.041 A 
HETATM   32  C   UNL     1      -4.783  -1.011 -33.265  1.00  0.00    -0.035 A 
HETATM   33  C   UNL     1      -3.919  -0.000 -32.570  1.00  0.00     0.050 C 
HETATM   34  C   UNL     1      -4.113  -2.169 -33.723  1.00  0.00     0.009 A 
HETATM   35  C   UNL     1      -4.771  -3.163 -34.442  1.00  0.00     0.001 A 
HETATM   36  C   UNL     1      -6.120  -3.020 -34.719  1.00  0.00     0.002 A 
HETATM   37  C   UNL     1      -6.805  -1.896 -34.255  1.00  0.00     0.030 A 
ENDBRANCH  28  31
ENDBRANCH   8  27
TORSDOF 8
ENDMDL
MODEL 5
REMARK VINA RESULT:      -8.4      3.042      6.888
REMARK  8 active torsions:
REMARK  status: ('A' for Active; 'I' for Inactive)
REMARK    1  A    between atoms: C_2  and  O_3 
REMARK    2  A    between atoms: O_3  and  C_4 
REMARK    3  A    between atoms: C_5  and  O_6 
REMARK    4  A    between atoms: O_6  and  C_7 
REMARK    5  A    between atoms: C_7  and  C_8 
REMARK       I    between atoms: C_8  and  N_9 
REMARK    6  A    between atoms: C_13  and  C_14 
REMARK    7  A    between atoms: C_21  and  C_22 
REMARK       I    between atoms: C_22  and  N_23 
REMARK    8  A    between atoms: N_23  and  C_24 
ROOT
HETATM    1  C   UNL     1      -4.885   0.563 -31.808  1.00  0.00     0.160 C 
HETATM    2  N   UNL     1      -3.661  -0.213 -31.793  1.00  0.00    -0.330 N 
HETATM    3  C   UNL     1      -3.574  -1.482 -32.261  1.00  0.00     0.321 C 
HETATM    4  O   UNL     1      -2.635  -2.214 -31.971  1.00  0.00    -0.247 OA
HETATM    5  N   UNL     1      -4.572  -1.877 -33.098  1.00  0.00    -0.312 N 
HETATM    6  C   UNL     1      -5.617  -1.083 -33.518  1.00  0.00     0.024 C 
HETATM    7  C   UNL     1      -6.504  -1.699 -34.567  1.00  0.00     0.069 C 
HETATM    8  C   UNL     1      -5.779   0.127 -32.940  1.00  0.00     0.059 C 
HETATM    9  H   UNL     1      -2.921   0.045 -31.155  1.00  0.00     0.165 HD
HETATM   10  H   UNL     1      -4.443  -2.799 -33.500  1.00  0.00     0.170 HD
ENDROOT
BRANCH   1  11
HETATM   11  C   UNL     1      -4.519   2.032 -31.669  1.00  0.00    -0.028 A 
HETATM   12  C   UNL     1      -5.258   2.825 -30.773  1.00  0.00     0.012 A 
HETATM   13  C   UNL     1      -4.893   4.146 -30.498  1.00  0.00     0.040 A 
HETATM   14  C   UNL     1      -3.787   4.717 -31.130  1.00  0.00     0.102 A 
HETATM   15  C   UNL     1      -3.069   3.955 -32.063  1.00  0.00     0.102 A 
HETATM   16  C   UNL     1      -3.409   2.613 -32.298  1.00  0.00     0.049 A 
BRANCH  14  17
HETATM   17  O   UNL     1      -3.298   5.956 -30.811  1.00  0.00    -0.339 OA
BRANCH  17  18
HETATM   18  C   UNL     1      -3.492   6.985 -31.778  1.00  0.00     0.278 C 
BRANCH  18  19
HETATM   19  C   UNL     1      -2.208   7.794 -31.929  1.00  0.00     0.239 C 
HETATM   20  N   UNL     1      -1.066   7.174 -31.509  1.00  0.00    -0.368 N 
HETATM   21  H   UNL     1      -1.072   6.175 -31.330  1.00  0.00     0.159 HD
HETATM   22  H   UNL     1      -0.183   7.647 -31.646  1.00  0.00     0.159 HD
HETATM   23  O   UNL     1      -2.185   8.949 -32.345  1.00  0.00    -0.271 OA
ENDBRANCH  18  19
ENDBRANCH  17  18
ENDBRANCH  14  17
BRANCH  15  24
HETATM   24  O   UNL     1      -1.956   4.411 -32.725  1.00  0.00    -0.349 OA
BRANCH  24  25
HETATM   25  C   UNL     1      -2.131   4.605 -34.135  1.00  0.00     0.171 C 
HETATM   26  C   UNL     1      -1.116   5.582 -34.701  1.00  0.00     0.034 C 
ENDBRANCH  24  25
ENDBRANCH  15  24
ENDBRANCH   1  11
BRANCH   8  27
HETATM   27  C   UNL     1      -6.883   1.010 -33.414  1.00  0.00     0.256 C 
HETATM   28  N   UNL     1      -8.054   0.845 -32.710  1.00  0.00    -0.323 N 
HETATM   29  H   UNL     1      -8.074   0.052 -32.084  1.00  0.00     0.169 HD
HETATM   30  O   UNL     1      -6.685   1.724 -34.387  1.00  0.00    -0.267 OA
BRANCH  28  31
HETATM   31  C   UNL     1      -9.305   1.500 -32.848  1.00  0.00     0.041 A 
HETATM   32  C   UNL     1      -9.660   2.792 -32.417  1.00  0.00    -0.035 A 
HETATM   33  C   UNL     1      -8.779   3.733 -31.649  1.00  0.00     0.050 C 
HETATM   34  C   UNL     1     -10.958   3.275 -32.705  1.00  0.00     0.009 A 
HETATM   35  C   UNL     1     -11.906   2.489 -33.355  1.00  0.00     0.001 A 
HETATM   36  C   UNL     1     -11.576   1.198 -33.732  1.00  0.00     0.002 A 
HETATM   37  C   UNL     1     -10.292   0.712 -33.479  1.00  0.00     0.030 A 
ENDBRANCH  28  31
ENDBRANCH   8  27
TORSDOF 8
ENDMDL
MODEL 6
REMARK VINA RESULT:      -8.2      2.425      7.603
REMARK  8 active torsions:
REMARK  status: ('A' for Active; 'I' for Inactive)
REMARK    1  A    between atoms: C_2  and  O_3 
REMARK    2  A    between atoms: O_3  and  C_4 
REMARK    3  A    between atoms: C_5  and  O_6 
REMARK    4  A    between atoms: O_6  and  C_7 
REMARK    5  A    between atoms: C_7  and  C_8 
REMARK       I    between atoms: C_8  and  N_9 
REMARK    6  A    between atoms: C_13  and  C_14 
REMARK    7  A    between atoms: C_21  and  C_22 
REMARK       I    between atoms: C_22  and  N_23 
REMARK    8  A    between atoms: N_23  and  C_24 
ROOT
HETATM    1  C   UNL     1      -6.348  -0.473 -34.276  1.00  0.00     0.160 C 
HETATM    2  N   UNL     1      -6.562  -1.801 -34.818  1.00  0.00    -0.330 N 
HETATM    3  C   UNL     1      -5.628  -2.783 -34.783  1.00  0.00     0.321 C 
HETATM    4  O   UNL     1      -5.709  -3.776 -35.497  1.00  0.00    -0.247 OA
HETATM    5  N   UNL     1      -4.620  -2.613 -33.884  1.00  0.00    -0.312 N 
HETATM    6  C   UNL     1      -4.509  -1.556 -33.007  1.00  0.00     0.024 C 
HETATM    7  C   UNL     1      -3.392  -1.675 -32.005  1.00  0.00     0.069 C 
HETATM    8  C   UNL     1      -5.357  -0.514 -33.142  1.00  0.00     0.059 C 
HETATM    9  H   UNL     1      -7.284  -1.941 -35.511  1.00  0.00     0.165 HD
HETATM   10  H   UNL     1      -3.981  -3.397 -33.818  1.00  0.00     0.170 HD
ENDROOT
BRANCH   1  11
HETATM   11  C   UNL     1      -7.706   0.175 -34.058  1.00  0.00    -0.028 A 
HETATM   12  C   UNL     1      -8.621  -0.460 -33.199  1.00  0.00     0.012 A 
HETATM   13  C   UNL     1      -9.833   0.145 -32.851  1.00  0.00     0.040 A 
HETATM   14  C   UNL     1     -10.171   1.395 -33.372  1.00  0.00     0.102 A 
HETATM   15  C   UNL     1      -9.290   2.019 -34.268  1.00  0.00     0.102 A 
HETATM   16  C   UNL     1      -8.052   1.431 -34.575  1.00  0.00     0.049 A 
BRANCH  14  17
HETATM   17  O   UNL     1     -11.275   2.100 -32.973  1.00  0.00    -0.339 OA
BRANCH  17  18
HETATM   18  C   UNL     1     -12.531   1.660 -33.484  1.00  0.00     0.278 C 
BRANCH  18  19
HETATM   19  C   UNL     1     -12.877   2.451 -34.741  1.00  0.00     0.239 C 
HETATM   20  N   UNL     1     -13.361   3.711 -34.531  1.00  0.00    -0.368 N 
HETATM   21  H   UNL     1     -13.270   4.140 -33.616  1.00  0.00     0.159 HD
HETATM   22  H   UNL     1     -13.548   4.296 -35.334  1.00  0.00     0.159 HD
HETATM   23  O   UNL     1     -12.790   1.988 -35.874  1.00  0.00    -0.271 OA
ENDBRANCH  18  19
ENDBRANCH  17  18
ENDBRANCH  14  17
BRANCH  15  24
HETATM   24  O   UNL     1      -9.515   3.255 -34.822  1.00  0.00    -0.349 OA
BRANCH  24  25
HETATM   25  C   UNL     1      -8.961   4.355 -34.087  1.00  0.00     0.171 C 
HETATM   26  C   UNL     1      -9.632   5.669 -34.444  1.00  0.00     0.034 C 
ENDBRANCH  24  25
ENDBRANCH  15  24
ENDBRANCH   1  11
BRANCH   8  27
HETATM   27  C   UNL     1      -5.270   0.617 -32.174  1.00  0.00     0.256 C 
HETATM   28  N   UNL     1      -4.638   1.726 -32.687  1.00  0.00    -0.323 N 
HETATM   29  H   UNL     1      -4.176   1.589 -33.575  1.00  0.00     0.169 HD
HETATM   30  O   UNL     1      -5.687   0.447 -31.037  1.00  0.00    -0.267 OA
BRANCH  28  31
HETATM   31  C   UNL     1      -4.375   2.988 -32.092  1.00  0.00     0.041 A 
HETATM   32  C   UNL     1      -5.290   3.868 -31.485  1.00  0.00    -0.035 A 
HETATM   33  C   UNL     1      -6.776   3.670 -31.403  1.00  0.00     0.050 C 
HETATM   34  C   UNL     1      -4.805   5.061 -30.901  1.00  0.00     0.009 A 
HETATM   35  C   UNL     1      -3.458   5.410 -30.956  1.00  0.00     0.001 A 
HETATM   36  C   UNL     1      -2.564   4.571 -31.599  1.00  0.00     0.002 A 
HETATM   37  C   UNL     1      -3.020   3.377 -32.161  1.00  0.00     0.030 A 
ENDBRANCH  28  31
ENDBRANCH   8  27
TORSDOF 8
ENDMDL
MODEL 7
REMARK VINA RESULT:      -8.1      3.081      6.875
REMARK  8 active torsions:
REMARK  status: ('A' for Active; 'I' for Inactive)
REMARK    1  A    between atoms: C_2  and  O_3 
REMARK    2  A    between atoms: O_3  and  C_4 
REMARK    3  A    between atoms: C_5  and  O_6 
REMARK    4  A    between atoms: O_6  and  C_7 
REMARK    5  A    between atoms: C_7  and  C_8 
REMARK       I    between atoms: C_8  and  N_9 
REMARK    6  A    between atoms: C_13  and  C_14 
REMARK    7  A    between atoms: C_21  and  C_22 
REMARK       I    between atoms: C_22  and  N_23 
REMARK    8  A    between atoms: N_23  and  C_24 
ROOT
HETATM    1  C   UNL     1      -4.825   0.564 -31.685  1.00  0.00     0.160 C 
HETATM    2  N   UNL     1      -3.614  -0.233 -31.644  1.00  0.00    -0.330 N 
HETATM    3  C   UNL     1      -3.548  -1.514 -32.083  1.00  0.00     0.321 C 
HETATM    4  O   UNL     1      -2.624  -2.256 -31.770  1.00  0.00    -0.247 OA
HETATM    5  N   UNL     1      -4.547  -1.909 -32.919  1.00  0.00    -0.312 N 
HETATM    6  C   UNL     1      -5.574  -1.105 -33.364  1.00  0.00     0.024 C 
HETATM    7  C   UNL     1      -6.465  -1.728 -34.405  1.00  0.00     0.069 C 
HETATM    8  C   UNL     1      -5.718   0.119 -32.814  1.00  0.00     0.059 C 
HETATM    9  H   UNL     1      -2.875   0.025 -31.006  1.00  0.00     0.165 HD
HETATM   10  H   UNL     1      -4.431  -2.842 -33.300  1.00  0.00     0.170 HD
ENDROOT
BRANCH   1  11
HETATM   11  C   UNL     1      -4.432   2.029 -31.575  1.00  0.00    -0.028 A 
HETATM   12  C   UNL     1      -3.290   2.469 -32.268  1.00  0.00     0.012 A 
HETATM   13  C   UNL     1      -2.947   3.824 -32.318  1.00  0.00     0.040 A 
HETATM   14  C   UNL     1      -3.728   4.773 -31.658  1.00  0.00     0.102 A 
HETATM   15  C   UNL     1      -4.842   4.344 -30.923  1.00  0.00     0.102 A 
HETATM   16  C   UNL     1      -5.213   2.989 -30.916  1.00  0.00     0.049 A 
BRANCH  14  17
HETATM   17  O   UNL     1      -3.526   6.123 -31.774  1.00  0.00    -0.339 OA
BRANCH  17  18
HETATM   18  C   UNL     1      -2.200   6.590 -31.537  1.00  0.00     0.278 C 
BRANCH  18  19
HETATM   19  C   UNL     1      -1.800   7.572 -32.634  1.00  0.00     0.239 C 
HETATM   20  N   UNL     1      -1.321   7.010 -33.783  1.00  0.00    -0.368 N 
HETATM   21  H   UNL     1      -1.449   6.017 -33.950  1.00  0.00     0.159 HD
HETATM   22  H   UNL     1      -1.100   7.617 -34.560  1.00  0.00     0.159 HD
HETATM   23  O   UNL     1      -1.842   8.791 -32.495  1.00  0.00    -0.271 OA
ENDBRANCH  18  19
ENDBRANCH  17  18
ENDBRANCH  14  17
BRANCH  15  24
HETATM   24  O   UNL     1      -5.688   5.194 -30.254  1.00  0.00    -0.349 OA
BRANCH  24  25
HETATM   25  C   UNL     1      -5.794   4.954 -28.844  1.00  0.00     0.171 C 
HETATM   26  C   UNL     1      -7.073   5.532 -28.267  1.00  0.00     0.034 C 
ENDBRANCH  24  25
ENDBRANCH  15  24
ENDBRANCH   1  11
BRANCH   8  27
HETATM   27  C   UNL     1      -6.803   1.012 -33.315  1.00  0.00     0.256 C 
HETATM   28  N   UNL     1      -7.981   0.885 -32.614  1.00  0.00    -0.323 N 
HETATM   29  H   UNL     1      -8.019   0.108 -31.969  1.00  0.00     0.169 HD
HETATM   30  O   UNL     1      -6.586   1.698 -34.303  1.00  0.00    -0.267 OA
BRANCH  28  31
HETATM   31  C   UNL     1      -9.218   1.560 -32.774  1.00  0.00     0.041 A 
HETATM   32  C   UNL     1      -9.672   2.711 -32.102  1.00  0.00    -0.035 A 
HETATM   33  C   UNL     1      -8.943   3.433 -31.007  1.00  0.00     0.050 C 
HETATM   34  C   UNL     1     -10.929   3.255 -32.455  1.00  0.00     0.009 A 
HETATM   35  C   UNL     1     -11.747   2.656 -33.409  1.00  0.00     0.001 A 
HETATM   36  C   UNL     1     -11.325   1.494 -34.033  1.00  0.00     0.002 A 
HETATM   37  C   UNL     1     -10.078   0.954 -33.716  1.00  0.00     0.030 A 
ENDBRANCH  28  31
ENDBRANCH   8  27
TORSDOF 8
ENDMDL
MODEL 8
REMARK VINA RESULT:      -8.0      2.646      6.882
REMARK  8 active torsions:
REMARK  status: ('A' for Active; 'I' for Inactive)
REMARK    1  A    between atoms: C_2  and  O_3 
REMARK    2  A    between atoms: O_3  and  C_4 
REMARK    3  A    between atoms: C_5  and  O_6 
REMARK    4  A    between atoms: O_6  and  C_7 
REMARK    5  A    between atoms: C_7  and  C_8 
REMARK       I    between atoms: C_8  and  N_9 
REMARK    6  A    between atoms: C_13  and  C_14 
REMARK    7  A    between atoms: C_21  and  C_22 
REMARK       I    between atoms: C_22  and  N_23 
REMARK    8  A    between atoms: N_23  and  C_24 
ROOT
HETATM    1  C   UNL     1      -8.334   2.638 -33.817  1.00  0.00     0.160 C 
HETATM    2  N   UNL     1      -9.423   3.586 -33.680  1.00  0.00    -0.330 N 
HETATM    3  C   UNL     1     -10.731   3.230 -33.697  1.00  0.00     0.321 C 
HETATM    4  O   UNL     1     -11.621   4.051 -33.882  1.00  0.00    -0.247 OA
HETATM    5  N   UNL     1     -10.992   1.915 -33.460  1.00  0.00    -0.312 N 
HETATM    6  C   UNL     1     -10.045   0.955 -33.177  1.00  0.00     0.024 C 
HETATM    7  C   UNL     1     -10.596  -0.392 -32.797  1.00  0.00     0.069 C 
HETATM    8  C   UNL     1      -8.740   1.282 -33.303  1.00  0.00     0.059 C 
HETATM    9  H   UNL     1      -9.257   4.562 -33.883  1.00  0.00     0.165 HD
HETATM   10  H   UNL     1     -11.979   1.688 -33.395  1.00  0.00     0.170 HD
ENDROOT
BRANCH   1  11
HETATM   11  C   UNL     1      -7.068   3.290 -33.286  1.00  0.00    -0.028 A 
HETATM   12  C   UNL     1      -5.997   3.496 -34.175  1.00  0.00     0.012 A 
HETATM   13  C   UNL     1      -4.857   4.207 -33.788  1.00  0.00     0.040 A 
HETATM   14  C   UNL     1      -4.747   4.713 -32.492  1.00  0.00     0.102 A 
HETATM   15  C   UNL     1      -5.786   4.473 -31.580  1.00  0.00     0.102 A 
HETATM   16  C   UNL     1      -6.951   3.804 -31.986  1.00  0.00     0.049 A 
BRANCH  14  17
HETATM   17  O   UNL     1      -3.722   5.526 -32.088  1.00  0.00    -0.339 OA
BRANCH  17  18
HETATM   18  C   UNL     1      -2.401   5.073 -32.371  1.00  0.00     0.278 C 
BRANCH  18  19
HETATM   19  C   UNL     1      -1.562   5.114 -31.098  1.00  0.00     0.239 C 
HETATM   20  N   UNL     1      -2.020   5.945 -30.116  1.00  0.00    -0.368 N 
HETATM   21  H   UNL     1      -2.963   6.314 -30.168  1.00  0.00     0.159 HD
HETATM   22  H   UNL     1      -1.531   5.960 -29.231  1.00  0.00     0.159 HD
HETATM   23  O   UNL     1      -0.511   4.495 -30.965  1.00  0.00    -0.271 OA
ENDBRANCH  18  19
ENDBRANCH  17  18
ENDBRANCH  14  17
BRANCH  15  24
HETATM   24  O   UNL     1      -5.790   4.942 -30.289  1.00  0.00    -0.349 OA
BRANCH  24  25
HETATM   25  C   UNL     1      -7.080   5.315 -29.787  1.00  0.00     0.171 C 
HETATM   26  C   UNL     1      -7.095   5.398 -28.271  1.00  0.00     0.034 C 
ENDBRANCH  24  25
ENDBRANCH  15  24
ENDBRANCH   1  11
BRANCH   8  27
HETATM   27  C   UNL     1      -7.706   0.262 -32.962  1.00  0.00     0.256 C 
HETATM   28  N   UNL     1      -7.300  -0.486 -34.043  1.00  0.00    -0.323 N 
HETATM   29  H   UNL     1      -7.853  -0.370 -34.881  1.00  0.00     0.169 HD
HETATM   30  O   UNL     1      -7.372   0.136 -31.793  1.00  0.00    -0.267 OA
BRANCH  28  31
HETATM   31  C   UNL     1      -6.340  -1.527 -34.128  1.00  0.00     0.041 A 
HETATM   32  C   UNL     1      -4.984  -1.488 -33.753  1.00  0.00    -0.035 A 
HETATM   33  C   UNL     1      -4.250  -0.286 -33.236  1.00  0.00     0.050 C 
HETATM   34  C   UNL     1      -4.210  -2.666 -33.873  1.00  0.00     0.009 A 
HETATM   35  C   UNL     1      -4.738  -3.842 -34.398  1.00  0.00     0.001 A 
HETATM   36  C   UNL     1      -6.058  -3.866 -34.817  1.00  0.00     0.002 A 
HETATM   37  C   UNL     1      -6.845  -2.721 -34.685  1.00  0.00     0.030 A 
ENDBRANCH  28  31
ENDBRANCH   8  27
TORSDOF 8
ENDMDL
MODEL 9
REMARK VINA RESULT:      -8.0      2.873      7.001
REMARK  8 active torsions:
REMARK  status: ('A' for Active; 'I' for Inactive)
REMARK    1  A    between atoms: C_2  and  O_3 
REMARK    2  A    between atoms: O_3  and  C_4 
REMARK    3  A    between atoms: C_5  and  O_6 
REMARK    4  A    between atoms: O_6  and  C_7 
REMARK    5  A    between atoms: C_7  and  C_8 
REMARK       I    between atoms: C_8  and  N_9 
REMARK    6  A    between atoms: C_13  and  C_14 
REMARK    7  A    between atoms: C_21  and  C_22 
REMARK       I    between atoms: C_22  and  N_23 
REMARK    8  A    between atoms: N_23  and  C_24 
ROOT
HETATM    1  C   UNL     1      -6.452   0.159 -34.098  1.00  0.00     0.160 C 
HETATM    2  N   UNL     1      -6.338  -1.285 -34.167  1.00  0.00    -0.330 N 
HETATM    3  C   UNL     1      -5.197  -1.959 -33.884  1.00  0.00     0.321 C 
HETATM    4  O   UNL     1      -5.032  -3.122 -34.232  1.00  0.00    -0.247 OA
HETATM    5  N   UNL     1      -4.267  -1.277 -33.160  1.00  0.00    -0.312 N 
HETATM    6  C   UNL     1      -4.419   0.005 -32.680  1.00  0.00     0.024 C 
HETATM    7  C   UNL     1      -3.315   0.480 -31.774  1.00  0.00     0.069 C 
HETATM    8  C   UNL     1      -5.490   0.722 -33.083  1.00  0.00     0.059 C 
HETATM    9  H   UNL     1      -6.999  -1.805 -34.726  1.00  0.00     0.165 HD
HETATM   10  H   UNL     1      -3.459  -1.828 -32.890  1.00  0.00     0.170 HD
ENDROOT
BRANCH   1  11
HETATM   11  C   UNL     1      -7.927   0.515 -34.006  1.00  0.00    -0.028 A 
HETATM   12  C   UNL     1      -8.773  -0.323 -33.256  1.00  0.00     0.012 A 
HETATM   13  C   UNL     1     -10.109   0.014 -33.021  1.00  0.00     0.040 A 
HETATM   14  C   UNL     1     -10.642   1.191 -33.548  1.00  0.00     0.102 A 
HETATM   15  C   UNL     1      -9.824   2.013 -34.337  1.00  0.00     0.102 A 
HETATM   16  C   UNL     1      -8.469   1.697 -34.529  1.00  0.00     0.049 A 
BRANCH  14  17
HETATM   17  O   UNL     1     -11.898   1.646 -33.248  1.00  0.00    -0.339 OA
BRANCH  17  18
HETATM   18  C   UNL     1     -12.895   1.470 -34.252  1.00  0.00     0.278 C 
BRANCH  18  19
HETATM   19  C   UNL     1     -14.070   0.688 -33.675  1.00  0.00     0.239 C 
HETATM   20  N   UNL     1     -13.832  -0.633 -33.420  1.00  0.00    -0.368 N 
HETATM   21  H   UNL     1     -12.879  -0.980 -33.410  1.00  0.00     0.159 HD
HETATM   22  H   UNL     1     -14.562  -1.177 -32.981  1.00  0.00     0.159 HD
HETATM   23  O   UNL     1     -15.182   1.177 -33.497  1.00  0.00    -0.271 OA
ENDBRANCH  18  19
ENDBRANCH  17  18
ENDBRANCH  14  17
BRANCH  15  24
HETATM   24  O   UNL     1     -10.240   3.201 -34.886  1.00  0.00    -0.349 OA
BRANCH  24  25
HETATM   25  C   UNL     1      -9.568   4.365 -34.385  1.00  0.00     0.171 C 
HETATM   26  C   UNL     1     -10.106   5.640 -35.009  1.00  0.00     0.034 C 
ENDBRANCH  24  25
ENDBRANCH  15  24
ENDBRANCH   1  11
BRANCH   8  27
HETATM   27  C   UNL     1      -5.684   2.096 -32.539  1.00  0.00     0.256 C 
HETATM   28  N   UNL     1      -6.317   2.115 -31.318  1.00  0.00    -0.323 N 
HETATM   29  H   UNL     1      -6.711   1.233 -31.021  1.00  0.00     0.169 HD
HETATM   30  O   UNL     1      -5.342   3.050 -33.223  1.00  0.00    -0.267 OA
BRANCH  28  31
HETATM   31  C   UNL     1      -6.665   3.208 -30.483  1.00  0.00     0.041 A 
HETATM   32  C   UNL     1      -7.949   3.717 -30.209  1.00  0.00    -0.035 A 
HETATM   33  C   UNL     1      -9.233   3.231 -30.815  1.00  0.00     0.050 C 
HETATM   34  C   UNL     1      -8.077   4.791 -29.298  1.00  0.00     0.009 A 
HETATM   35  C   UNL     1      -6.967   5.388 -28.706  1.00  0.00     0.001 A 
HETATM   36  C   UNL     1      -5.699   4.923 -29.015  1.00  0.00     0.002 A 
HETATM   37  C   UNL     1      -5.554   3.849 -29.894  1.00  0.00     0.030 A 
ENDBRANCH  28  31
ENDBRANCH   8  27
TORSDOF 8
ENDMDL
MODEL 10
REMARK VINA RESULT:      -8.0      2.805      7.123
REMARK  8 active torsions:
REMARK  status: ('A' for Active; 'I' for Inactive)
REMARK    1  A    between atoms: C_2  and  O_3 
REMARK    2  A    between atoms: O_3  and  C_4 
REMARK    3  A    between atoms: C_5  and  O_6 
REMARK    4  A    between atoms: O_6  and  C_7 
REMARK    5  A    between atoms: C_7  and  C_8 
REMARK       I    between atoms: C_8  and  N_9 
REMARK    6  A    between atoms: C_13  and  C_14 
REMARK    7  A    between atoms: C_21  and  C_22 
REMARK       I    between atoms: C_22  and  N_23 
REMARK    8  A    between atoms: N_23  and  C_24 
ROOT
HETATM    1  C   UNL     1      -7.172   4.248 -33.901  1.00  0.00     0.160 C 
HETATM    2  N   UNL     1      -8.009   5.432 -33.923  1.00  0.00    -0.330 N 
HETATM    3  C   UNL     1      -9.333   5.406 -34.210  1.00  0.00     0.321 C 
HETATM    4  O   UNL     1      -9.946   6.422 -34.516  1.00  0.00    -0.247 OA
HETATM    5  N   UNL     1      -9.942   4.194 -34.101  1.00  0.00    -0.312 N 
HETATM    6  C   UNL     1      -9.327   3.030 -33.695  1.00  0.00     0.024 C 
HETATM    7  C   UNL     1     -10.248   1.856 -33.503  1.00  0.00     0.069 C 
HETATM    8  C   UNL     1      -7.984   3.028 -33.550  1.00  0.00     0.059 C 
HETATM    9  H   UNL     1      -7.577   6.339 -34.037  1.00  0.00     0.165 HD
HETATM   10  H   UNL     1     -10.947   4.215 -34.239  1.00  0.00     0.170 HD
ENDROOT
BRANCH   1  11
HETATM   11  C   UNL     1      -5.919   4.566 -33.102  1.00  0.00    -0.028 A 
HETATM   12  C   UNL     1      -4.681   4.101 -33.583  1.00  0.00     0.012 A 
HETATM   13  C   UNL     1      -3.479   4.467 -32.972  1.00  0.00     0.040 A 
HETATM   14  C   UNL     1      -3.483   5.294 -31.848  1.00  0.00     0.102 A 
HETATM   15  C   UNL     1      -4.711   5.726 -31.328  1.00  0.00     0.102 A 
HETATM   16  C   UNL     1      -5.914   5.398 -31.974  1.00  0.00     0.049 A 
BRANCH  14  17
HETATM   17  O   UNL     1      -2.342   5.796 -31.281  1.00  0.00    -0.339 OA
BRANCH  17  18
HETATM   18  C   UNL     1      -1.296   6.164 -32.178  1.00  0.00     0.278 C 
BRANCH  18  19
HETATM   19  C   UNL     1      -1.590   7.537 -32.773  1.00  0.00     0.239 C 
HETATM   20  N   UNL     1      -1.953   8.503 -31.877  1.00  0.00    -0.368 N 
HETATM   21  H   UNL     1      -1.807   8.350 -30.885  1.00  0.00     0.159 HD
HETATM   22  H   UNL     1      -2.099   9.444 -32.217  1.00  0.00     0.159 HD
HETATM   23  O   UNL     1      -1.565   7.768 -33.978  1.00  0.00    -0.271 OA
ENDBRANCH  18  19
ENDBRANCH  17  18
ENDBRANCH  14  17
BRANCH  15  24
HETATM   24  O   UNL     1      -4.829   6.557 -30.240  1.00  0.00    -0.349 OA
BRANCH  24  25
HETATM   25  C   UNL     1      -5.999   6.341 -29.440  1.00  0.00     0.171 C 
HETATM   26  C   UNL     1      -5.685   5.558 -28.179  1.00  0.00     0.034 C 
ENDBRANCH  24  25
ENDBRANCH  15  24
ENDBRANCH   1  11
BRANCH   8  27
HETATM   27  C   UNL     1      -7.312   1.785 -33.075  1.00  0.00     0.256 C 
HETATM   28  N   UNL     1      -6.717   1.065 -34.086  1.00  0.00    -0.323 N 
HETATM   29  H   UNL     1      -6.940   1.370 -35.023  1.00  0.00     0.169 HD
HETATM   30  O   UNL     1      -7.401   1.487 -31.892  1.00  0.00    -0.267 OA
BRANCH  28  31
HETATM   31  C   UNL     1      -5.980  -0.146 -34.037  1.00  0.00     0.041 A 
HETATM   32  C   UNL     1      -4.770  -0.398 -33.363  1.00  0.00    -0.035 A 
HETATM   33  C   UNL     1      -3.965   0.610 -32.598  1.00  0.00     0.050 C 
HETATM   34  C   UNL     1      -4.227  -1.704 -33.402  1.00  0.00     0.009 A 
HETATM   35  C   UNL     1      -4.830  -2.729 -34.127  1.00  0.00     0.001 A 
HETATM   36  C   UNL     1      -5.992  -2.469 -34.833  1.00  0.00     0.002 A 
HETATM   37  C   UNL     1      -6.556  -1.193 -34.788  1.00  0.00     0.030 A 
ENDBRANCH  28  31
ENDBRANCH   8  27
TORSDOF 8
ENDMDL
