MODEL 1
REMARK VINA RESULT:      -8.6      0.000      0.000
REMARK  9 active torsions:
REMARK  status: ('A' for Active; 'I' for Inactive)
REMARK       I    between atoms: C_2  and  N_3 
REMARK    1  A    between atoms: N_3  and  C_4 
REMARK    2  A    between atoms: C_6  and  O_7 
REMARK    3  A    between atoms: O_7  and  C_8 
REMARK    4  A    between atoms: C_8  and  C_9 
REMARK    5  A    between atoms: C_9  and  C_10 
REMARK    6  A    between atoms: C_10  and  C_11 
REMARK    7  A    between atoms: C_11  and  N_12 
REMARK       I    between atoms: N_12  and  C_13 
REMARK    8  A    between atoms: C_13  and  C_14 
REMARK    9  A    between atoms: C_18  and  C_19 
ROOT
HETATM    1  N   UNL     1      -6.676   4.083 -28.944  1.00  0.00    -0.345 N 
HETATM    2  C   UNL     1      -7.508   3.497 -29.863  1.00  0.00     0.270 C 
HETATM    3  O   UNL     1      -8.574   3.998 -30.204  1.00  0.00    -0.266 OA
HETATM    4  H   UNL     1      -5.760   3.697 -28.774  1.00  0.00     0.163 HD
ENDROOT
BRANCH   1   5
HETATM    5  C   UNL     1      -6.987   5.368 -28.378  1.00  0.00     0.217 C 
BRANCH   5   6
HETATM    6  C   UNL     1      -5.689   6.079 -28.030  1.00  0.00    -0.085 C 
BRANCH   6   7
HETATM    7  C   UNL     1      -4.576   6.689 -27.731  1.00  0.00    -0.078 C 
BRANCH   7   8
HETATM    8  C   UNL     1      -3.279   7.400 -27.383  1.00  0.00     0.269 C 
BRANCH   8   9
HETATM    9  O   UNL     1      -2.866   8.222 -28.470  1.00  0.00    -0.339 OA
BRANCH   9  10
HETATM   10  C   UNL     1      -1.862   7.713 -29.257  1.00  0.00     0.072 A 
HETATM   11  C   UNL     1      -2.034   7.042 -30.474  1.00  0.00     0.066 A 
HETATM   12  C   UNL     1      -0.932   6.586 -31.205  1.00  0.00     0.037 A 
HETATM   13  C   UNL     1       0.353   6.792 -30.691  1.00  0.00     0.029 A 
HETATM   14  C   UNL     1       0.533   7.451 -29.474  1.00  0.00     0.005 A 
HETATM   15  C   UNL     1      -0.573   7.912 -28.762  1.00  0.00     0.037 A 
BRANCH  12  16
HETATM   16  N   UNL     1      -1.034   5.925 -32.449  1.00  0.00    -0.327 N 
HETATM   17  C   UNL     1      -1.297   6.489 -33.685  1.00  0.00     0.218 C 
HETATM   18  C   UNL     1      -1.310   5.467 -34.795  1.00  0.00     0.117 C 
HETATM   19  O   UNL     1      -1.474   7.677 -33.931  1.00  0.00    -0.274 OA
HETATM   20  H   UNL     1      -0.870   4.926 -32.431  1.00  0.00     0.169 HD
ENDBRANCH  12  16
ENDBRANCH   9  10
ENDBRANCH   8   9
ENDBRANCH   7   8
ENDBRANCH   6   7
ENDBRANCH   5   6
ENDBRANCH   1   5
BRANCH   2  21
HETATM   21  C   UNL     1      -7.037   2.253 -30.410  1.00  0.00     0.120 A 
HETATM   22  N   UNL     1      -6.494   1.283 -29.615  1.00  0.00    -0.272 N 
HETATM   23  H   UNL     1      -6.365   1.324 -28.609  1.00  0.00     0.189 HD
HETATM   24  N   UNL     1      -6.105   0.183 -30.277  1.00  0.00    -0.174 NA
HETATM   25  C   UNL     1      -6.404   0.432 -31.562  1.00  0.00     0.089 A 
HETATM   26  C   UNL     1      -6.984   1.727 -31.685  1.00  0.00     0.071 A 
BRANCH  25  27
HETATM   27  C   UNL     1      -6.133  -0.549 -32.619  1.00  0.00    -0.005 A 
HETATM   28  C   UNL     1      -4.856  -1.114 -32.778  1.00  0.00     0.017 A 
HETATM   29  C   UNL     1      -4.611  -2.046 -33.791  1.00  0.00     0.043 A 
HETATM   30  C   UNL     1      -5.639  -2.417 -34.648  1.00  0.00     0.116 A 
HETATM   31  F   UNL     1      -5.401  -3.311 -35.618  1.00  0.00    -0.206 F 
HETATM   32  C   UNL     1      -6.909  -1.873 -34.514  1.00  0.00     0.043 A 
HETATM   33  C   UNL     1      -7.155  -0.941 -33.504  1.00  0.00     0.017 A 
ENDBRANCH  25  27
ENDBRANCH   2  21
TORSDOF 9
ENDMDL
MODEL 2
REMARK VINA RESULT:      -8.5      5.138     11.243
REMARK  9 active torsions:
REMARK  status: ('A' for Active; 'I' for Inactive)
REMARK       I    between atoms: C_2  and  N_3 
REMARK    1  A    between atoms: N_3  and  C_4 
REMARK    2  A    between atoms: C_6  and  O_7 
REMARK    3  A    between atoms: O_7  and  C_8 
REMARK    4  A    between atoms: C_8  and  C_9 
REMARK    5  A    between atoms: C_9  and  C_10 
REMARK    6  A    between atoms: C_10  and  C_11 
REMARK    7  A    between atoms: C_11  and  N_12 
REMARK       I    between atoms: N_12  and  C_13 
REMARK    8  A    between atoms: C_13  and  C_14 
REMARK    9  A    between atoms: C_18  and  C_19 
ROOT
HETATM    1  N   UNL     1      -1.400   5.653 -31.051  1.00  0.00    -0.345 N 
HETATM    2  C   UNL     1      -0.139   5.476 -30.541  1.00  0.00     0.270 C 
HETATM    3  O   UNL     1       0.715   4.803 -31.108  1.00  0.00    -0.266 OA
HETATM    4  H   UNL     1      -2.035   6.302 -30.612  1.00  0.00     0.163 HD
ENDROOT
BRANCH   1   5
HETATM    5  C   UNL     1      -1.764   5.105 -32.329  1.00  0.00     0.217 C 
BRANCH   5   6
HETATM    6  C   UNL     1      -2.599   3.854 -32.107  1.00  0.00    -0.085 C 
BRANCH   6   7
HETATM    7  C   UNL     1      -3.317   2.782 -31.917  1.00  0.00    -0.078 C 
BRANCH   7   8
HETATM    8  C   UNL     1      -4.153   1.532 -31.695  1.00  0.00     0.269 C 
BRANCH   8   9
HETATM    9  O   UNL     1      -5.523   1.806 -31.973  1.00  0.00    -0.339 OA
BRANCH   9  10
HETATM   10  C   UNL     1      -6.088   1.068 -32.983  1.00  0.00     0.072 A 
HETATM   11  C   UNL     1      -6.095  -0.330 -33.071  1.00  0.00     0.066 A 
HETATM   12  C   UNL     1      -6.724  -0.980 -34.139  1.00  0.00     0.037 A 
HETATM   13  C   UNL     1      -7.333  -0.209 -35.135  1.00  0.00     0.029 A 
HETATM   14  C   UNL     1      -7.322   1.185 -35.060  1.00  0.00     0.005 A 
HETATM   15  C   UNL     1      -6.703   1.819 -33.984  1.00  0.00     0.037 A 
BRANCH  12  16
HETATM   16  N   UNL     1      -6.789  -2.383 -34.275  1.00  0.00    -0.327 N 
HETATM   17  C   UNL     1      -5.814  -3.229 -34.779  1.00  0.00     0.218 C 
HETATM   18  C   UNL     1      -6.235  -4.677 -34.749  1.00  0.00     0.117 C 
HETATM   19  O   UNL     1      -4.702  -2.911 -35.185  1.00  0.00    -0.274 OA
HETATM   20  H   UNL     1      -7.639  -2.820 -33.941  1.00  0.00     0.169 HD
ENDBRANCH  12  16
ENDBRANCH   9  10
ENDBRANCH   8   9
ENDBRANCH   7   8
ENDBRANCH   6   7
ENDBRANCH   5   6
ENDBRANCH   1   5
BRANCH   2  21
HETATM   21  C   UNL     1       0.117   6.145 -29.294  1.00  0.00     0.120 A 
HETATM   22  N   UNL     1      -0.257   5.598 -28.099  1.00  0.00    -0.272 N 
HETATM   23  H   UNL     1      -0.731   4.711 -27.959  1.00  0.00     0.189 HD
HETATM   24  N   UNL     1       0.055   6.345 -27.030  1.00  0.00    -0.174 NA
HETATM   25  C   UNL     1       0.661   7.431 -27.535  1.00  0.00     0.089 A 
HETATM   26  C   UNL     1       0.710   7.345 -28.956  1.00  0.00     0.071 A 
BRANCH  25  27
HETATM   27  C   UNL     1       1.165   8.504 -26.670  1.00  0.00    -0.005 A 
HETATM   28  C   UNL     1       2.154   8.254 -25.703  1.00  0.00     0.017 A 
HETATM   29  C   UNL     1       2.624   9.285 -24.883  1.00  0.00     0.043 A 
HETATM   30  C   UNL     1       2.110  10.567 -25.027  1.00  0.00     0.116 A 
HETATM   31  F   UNL     1       2.563  11.553 -24.240  1.00  0.00    -0.206 F 
HETATM   32  C   UNL     1       1.132  10.841 -25.974  1.00  0.00     0.043 A 
HETATM   33  C   UNL     1       0.660   9.812 -26.791  1.00  0.00     0.017 A 
ENDBRANCH  25  27
ENDBRANCH   2  21
TORSDOF 9
ENDMDL
MODEL 3
REMARK VINA RESULT:      -8.3      4.512     10.531
REMARK  9 active torsions:
REMARK  status: ('A' for Active; 'I' for Inactive)
REMARK       I    between atoms: C_2  and  N_3 
REMARK    1  A    between atoms: N_3  and  C_4 
REMARK    2  A    between atoms: C_6  and  O_7 
REMARK    3  A    between atoms: O_7  and  C_8 
REMARK    4  A    between atoms: C_8  and  C_9 
REMARK    5  A    between atoms: C_9  and  C_10 
REMARK    6  A    between atoms: C_10  and  C_11 
REMARK    7  A    between atoms: C_11  and  N_12 
REMARK       I    between atoms: N_12  and  C_13 
REMARK    8  A    between atoms: C_13  and  C_14 
REMARK    9  A    between atoms: C_18  and  C_19 
ROOT
HETATM    1  N   UNL     1      -2.097   5.911 -33.450  1.00  0.00    -0.345 N 
HETATM    2  C   UNL     1      -1.578   7.114 -33.041  1.00  0.00     0.270 C 
HETATM    3  O   UNL     1      -1.661   8.133 -33.717  1.00  0.00    -0.266 OA
HETATM    4  H   UNL     1      -2.106   5.125 -32.819  1.00  0.00     0.163 HD
ENDROOT
BRANCH   1   5
HETATM    5  C   UNL     1      -2.833   5.804 -34.680  1.00  0.00     0.217 C 
BRANCH   5   6
HETATM    6  C   UNL     1      -4.138   5.073 -34.409  1.00  0.00    -0.085 C 
BRANCH   6   7
HETATM    7  C   UNL     1      -5.257   4.445 -34.177  1.00  0.00    -0.078 C 
BRANCH   7   8
HETATM    8  C   UNL     1      -6.562   3.713 -33.906  1.00  0.00     0.269 C 
BRANCH   8   9
HETATM    9  O   UNL     1      -6.659   2.563 -34.740  1.00  0.00    -0.339 OA
BRANCH   9  10
HETATM   10  C   UNL     1      -6.525   1.352 -34.107  1.00  0.00     0.072 A 
HETATM   11  C   UNL     1      -6.792   0.097 -34.671  1.00  0.00     0.066 A 
HETATM   12  C   UNL     1      -6.597  -1.077 -33.936  1.00  0.00     0.037 A 
HETATM   13  C   UNL     1      -6.148  -0.981 -32.614  1.00  0.00     0.029 A 
HETATM   14  C   UNL     1      -5.890   0.265 -32.041  1.00  0.00     0.005 A 
HETATM   15  C   UNL     1      -6.076   1.427 -32.789  1.00  0.00     0.037 A 
BRANCH  12  16
HETATM   16  N   UNL     1      -6.822  -2.372 -34.451  1.00  0.00    -0.327 N 
HETATM   17  C   UNL     1      -5.878  -3.274 -34.910  1.00  0.00     0.218 C 
HETATM   18  C   UNL     1      -6.495  -4.572 -35.368  1.00  0.00     0.117 C 
HETATM   19  O   UNL     1      -4.662  -3.120 -34.936  1.00  0.00    -0.274 OA
HETATM   20  H   UNL     1      -7.787  -2.680 -34.460  1.00  0.00     0.169 HD
ENDBRANCH  12  16
ENDBRANCH   9  10
ENDBRANCH   8   9
ENDBRANCH   7   8
ENDBRANCH   6   7
ENDBRANCH   5   6
ENDBRANCH   1   5
BRANCH   2  21
HETATM   21  C   UNL     1      -0.937   7.098 -31.754  1.00  0.00     0.120 A 
HETATM   22  N   UNL     1      -0.013   6.145 -31.428  1.00  0.00    -0.272 N 
HETATM   23  H   UNL     1       0.308   5.383 -32.017  1.00  0.00     0.189 HD
HETATM   24  N   UNL     1       0.493   6.270 -30.192  1.00  0.00    -0.174 NA
HETATM   25  C   UNL     1      -0.117   7.349 -29.679  1.00  0.00     0.089 A 
HETATM   26  C   UNL     1      -1.030   7.891 -30.629  1.00  0.00     0.071 A 
BRANCH  25  27
HETATM   27  C   UNL     1       0.175   7.827 -28.322  1.00  0.00    -0.005 A 
HETATM   28  C   UNL     1       1.428   8.375 -27.998  1.00  0.00     0.017 A 
HETATM   29  C   UNL     1       1.695   8.824 -26.701  1.00  0.00     0.043 A 
HETATM   30  C   UNL     1       0.712   8.729 -25.724  1.00  0.00     0.116 A 
HETATM   31  F   UNL     1       0.971   9.160 -24.482  1.00  0.00    -0.206 F 
HETATM   32  C   UNL     1      -0.534   8.190 -26.017  1.00  0.00     0.043 A 
HETATM   33  C   UNL     1      -0.800   7.740 -27.312  1.00  0.00     0.017 A 
ENDBRANCH  25  27
ENDBRANCH   2  21
TORSDOF 9
ENDMDL
MODEL 4
REMARK VINA RESULT:      -8.2      2.276      3.890
REMARK  9 active torsions:
REMARK  status: ('A' for Active; 'I' for Inactive)
REMARK       I    between atoms: C_2  and  N_3 
REMARK    1  A    between atoms: N_3  and  C_4 
REMARK    2  A    between atoms: C_6  and  O_7 
REMARK    3  A    between atoms: O_7  and  C_8 
REMARK    4  A    between atoms: C_8  and  C_9 
REMARK    5  A    between atoms: C_9  and  C_10 
REMARK    6  A    between atoms: C_10  and  C_11 
REMARK    7  A    between atoms: C_11  and  N_12 
REMARK       I    between atoms: N_12  and  C_13 
REMARK    8  A    between atoms: C_13  and  C_14 
REMARK    9  A    between atoms: C_18  and  C_19 
ROOT
HETATM    1  N   UNL     1      -5.589   4.068 -32.870  1.00  0.00    -0.345 N 
HETATM    2  C   UNL     1      -5.375   3.297 -31.755  1.00  0.00     0.270 C 
HETATM    3  O   UNL     1      -5.191   3.780 -30.643  1.00  0.00    -0.266 OA
HETATM    4  H   UNL     1      -5.845   3.634 -33.742  1.00  0.00     0.163 HD
ENDROOT
BRANCH   1   5
HETATM    5  C   UNL     1      -5.677   5.500 -32.772  1.00  0.00     0.217 C 
BRANCH   5   6
HETATM    6  C   UNL     1      -4.318   6.099 -33.100  1.00  0.00    -0.085 C 
BRANCH   6   7
HETATM    7  C   UNL     1      -3.153   6.613 -33.382  1.00  0.00    -0.078 C 
BRANCH   7   8
HETATM    8  C   UNL     1      -1.796   7.213 -33.710  1.00  0.00     0.269 C 
BRANCH   8   9
HETATM    9  O   UNL     1      -1.362   8.051 -32.643  1.00  0.00    -0.339 OA
BRANCH   9  10
HETATM   10  C   UNL     1      -0.968   7.406 -31.498  1.00  0.00     0.072 A 
HETATM   11  C   UNL     1      -1.622   7.460 -30.259  1.00  0.00     0.066 A 
HETATM   12  C   UNL     1      -1.142   6.739 -29.161  1.00  0.00     0.037 A 
HETATM   13  C   UNL     1       0.019   5.972 -29.310  1.00  0.00     0.029 A 
HETATM   14  C   UNL     1       0.682   5.920 -30.537  1.00  0.00     0.005 A 
HETATM   15  C   UNL     1       0.186   6.633 -31.627  1.00  0.00     0.037 A 
BRANCH  12  16
HETATM   16  N   UNL     1      -1.766   6.731 -27.895  1.00  0.00    -0.327 N 
HETATM   17  C   UNL     1      -1.400   7.449 -26.769  1.00  0.00     0.218 C 
HETATM   18  C   UNL     1      -2.320   7.198 -25.600  1.00  0.00     0.117 C 
HETATM   19  O   UNL     1      -0.470   8.243 -26.671  1.00  0.00    -0.274 OA
HETATM   20  H   UNL     1      -2.591   6.150 -27.813  1.00  0.00     0.169 HD
ENDBRANCH  12  16
ENDBRANCH   9  10
ENDBRANCH   8   9
ENDBRANCH   7   8
ENDBRANCH   6   7
ENDBRANCH   5   6
ENDBRANCH   1   5
BRANCH   2  21
HETATM   21  C   UNL     1      -5.391   1.877 -31.981  1.00  0.00     0.120 A 
HETATM   22  N   UNL     1      -5.268   0.988 -30.951  1.00  0.00    -0.272 N 
HETATM   23  H   UNL     1      -5.157   1.210 -29.966  1.00  0.00     0.189 HD
HETATM   24  N   UNL     1      -5.304  -0.299 -31.327  1.00  0.00    -0.174 NA
HETATM   25  C   UNL     1      -5.458  -0.262 -32.660  1.00  0.00     0.089 A 
HETATM   26  C   UNL     1      -5.509   1.089 -33.108  1.00  0.00     0.071 A 
BRANCH  25  27
HETATM   27  C   UNL     1      -5.550  -1.490 -33.459  1.00  0.00    -0.005 A 
HETATM   28  C   UNL     1      -4.413  -2.275 -33.720  1.00  0.00     0.017 A 
HETATM   29  C   UNL     1      -4.514  -3.442 -34.484  1.00  0.00     0.043 A 
HETATM   30  C   UNL     1      -5.748  -3.829 -34.988  1.00  0.00     0.116 A 
HETATM   31  F   UNL     1      -5.841  -4.948 -35.720  1.00  0.00    -0.206 F 
HETATM   32  C   UNL     1      -6.886  -3.072 -34.747  1.00  0.00     0.043 A 
HETATM   33  C   UNL     1      -6.787  -1.905 -33.985  1.00  0.00     0.017 A 
ENDBRANCH  25  27
ENDBRANCH   2  21
TORSDOF 9
ENDMDL
MODEL 5
REMARK VINA RESULT:      -8.2      1.594      3.138
REMARK  9 active torsions:
REMARK  status: ('A' for Active; 'I' for Inactive)
REMARK       I    between atoms: C_2  and  N_3 
REMARK    1  A    between atoms: N_3  and  C_4 
REMARK    2  A    between atoms: C_6  and  O_7 
REMARK    3  A    between atoms: O_7  and  C_8 
REMARK    4  A    between atoms: C_8  and  C_9 
REMARK    5  A    between atoms: C_9  and  C_10 
REMARK    6  A    between atoms: C_10  and  C_11 
REMARK    7  A    between atoms: C_11  and  N_12 
REMARK       I    between atoms: N_12  and  C_13 
REMARK    8  A    between atoms: C_13  and  C_14 
REMARK    9  A    between atoms: C_18  and  C_19 
ROOT
HETATM    1  N   UNL     1      -5.638   4.182 -28.974  1.00  0.00    -0.345 N 
HETATM    2  C   UNL     1      -6.702   3.679 -29.680  1.00  0.00     0.270 C 
HETATM    3  O   UNL     1      -7.751   4.298 -29.823  1.00  0.00    -0.266 OA
HETATM    4  H   UNL     1      -4.757   3.692 -28.973  1.00  0.00     0.163 HD
ENDROOT
BRANCH   1   5
HETATM    5  C   UNL     1      -5.680   5.507 -28.418  1.00  0.00     0.217 C 
BRANCH   5   6
HETATM    6  C   UNL     1      -5.032   6.472 -29.398  1.00  0.00    -0.085 C 
BRANCH   6   7
HETATM    7  C   UNL     1      -4.476   7.300 -30.238  1.00  0.00    -0.078 C 
BRANCH   7   8
HETATM    8  C   UNL     1      -3.828   8.265 -31.218  1.00  0.00     0.269 C 
BRANCH   8   9
HETATM    9  O   UNL     1      -2.977   7.554 -32.112  1.00  0.00    -0.339 OA
BRANCH   9  10
HETATM   10  C   UNL     1      -1.832   7.035 -31.560  1.00  0.00     0.072 A 
HETATM   11  C   UNL     1      -1.131   7.569 -30.471  1.00  0.00     0.066 A 
HETATM   12  C   UNL     1       0.016   6.939 -29.976  1.00  0.00     0.037 A 
HETATM   13  C   UNL     1       0.469   5.771 -30.600  1.00  0.00     0.029 A 
HETATM   14  C   UNL     1      -0.217   5.238 -31.692  1.00  0.00     0.005 A 
HETATM   15  C   UNL     1      -1.366   5.869 -32.167  1.00  0.00     0.037 A 
BRANCH  12  16
HETATM   16  N   UNL     1       0.754   7.410 -28.869  1.00  0.00    -0.327 N 
HETATM   17  C   UNL     1       0.621   7.032 -27.543  1.00  0.00     0.218 C 
HETATM   18  C   UNL     1       1.603   7.738 -26.641  1.00  0.00     0.117 C 
HETATM   19  O   UNL     1      -0.157   6.200 -27.088  1.00  0.00    -0.274 OA
HETATM   20  H   UNL     1       1.481   8.083 -29.078  1.00  0.00     0.169 HD
ENDBRANCH  12  16
ENDBRANCH   9  10
ENDBRANCH   8   9
ENDBRANCH   7   8
ENDBRANCH   6   7
ENDBRANCH   5   6
ENDBRANCH   1   5
BRANCH   2  21
HETATM   21  C   UNL     1      -6.496   2.376 -30.251  1.00  0.00     0.120 A 
HETATM   22  N   UNL     1      -6.375   1.263 -29.468  1.00  0.00    -0.272 N 
HETATM   23  H   UNL     1      -6.410   1.227 -28.453  1.00  0.00     0.189 HD
HETATM   24  N   UNL     1      -6.189   0.125 -30.152  1.00  0.00    -0.174 NA
HETATM   25  C   UNL     1      -6.190   0.497 -31.442  1.00  0.00     0.089 A 
HETATM   26  C   UNL     1      -6.372   1.906 -31.543  1.00  0.00     0.071 A 
BRANCH  25  27
HETATM   27  C   UNL     1      -6.019  -0.478 -32.525  1.00  0.00    -0.005 A 
HETATM   28  C   UNL     1      -7.072  -0.781 -33.406  1.00  0.00     0.017 A 
HETATM   29  C   UNL     1      -6.895  -1.715 -34.432  1.00  0.00     0.043 A 
HETATM   30  C   UNL     1      -5.668  -2.347 -34.583  1.00  0.00     0.116 A 
HETATM   31  F   UNL     1      -5.502  -3.241 -35.567  1.00  0.00    -0.206 F 
HETATM   32  C   UNL     1      -4.612  -2.068 -33.726  1.00  0.00     0.043 A 
HETATM   33  C   UNL     1      -4.788  -1.137 -32.700  1.00  0.00     0.017 A 
ENDBRANCH  25  27
ENDBRANCH   2  21
TORSDOF 9
ENDMDL
MODEL 6
REMARK VINA RESULT:      -8.1      1.523      1.610
REMARK  9 active torsions:
REMARK  status: ('A' for Active; 'I' for Inactive)
REMARK       I    between atoms: C_2  and  N_3 
REMARK    1  A    between atoms: N_3  and  C_4 
REMARK    2  A    between atoms: C_6  and  O_7 
REMARK    3  A    between atoms: O_7  and  C_8 
REMARK    4  A    between atoms: C_8  and  C_9 
REMARK    5  A    between atoms: C_9  and  C_10 
REMARK    6  A    between atoms: C_10  and  C_11 
REMARK    7  A    between atoms: C_11  and  N_12 
REMARK       I    between atoms: N_12  and  C_13 
REMARK    8  A    between atoms: C_13  and  C_14 
REMARK    9  A    between atoms: C_18  and  C_19 
ROOT
HETATM    1  N   UNL     1      -5.312   4.440 -28.799  1.00  0.00    -0.345 N 
HETATM    2  C   UNL     1      -5.998   4.182 -29.958  1.00  0.00     0.270 C 
HETATM    3  O   UNL     1      -6.943   4.867 -30.334  1.00  0.00    -0.266 OA
HETATM    4  H   UNL     1      -4.474   3.923 -28.582  1.00  0.00     0.163 HD
ENDROOT
BRANCH   1   5
HETATM    5  C   UNL     1      -5.630   5.586 -27.991  1.00  0.00     0.217 C 
BRANCH   5   6
HETATM    6  C   UNL     1      -4.545   6.634 -28.177  1.00  0.00    -0.085 C 
BRANCH   6   7
HETATM    7  C   UNL     1      -3.613   7.533 -28.337  1.00  0.00    -0.078 C 
BRANCH   7   8
HETATM    8  C   UNL     1      -2.527   8.580 -28.523  1.00  0.00     0.269 C 
BRANCH   8   9
HETATM    9  O   UNL     1      -1.258   8.032 -28.181  1.00  0.00    -0.339 OA
BRANCH   9  10
HETATM   10  C   UNL     1      -0.745   7.115 -29.064  1.00  0.00     0.072 A 
HETATM   11  C   UNL     1      -1.037   7.041 -30.433  1.00  0.00     0.066 A 
HETATM   12  C   UNL     1      -0.434   6.075 -31.245  1.00  0.00     0.037 A 
HETATM   13  C   UNL     1       0.456   5.163 -30.666  1.00  0.00     0.029 A 
HETATM   14  C   UNL     1       0.745   5.223 -29.302  1.00  0.00     0.005 A 
HETATM   15  C   UNL     1       0.147   6.199 -28.506  1.00  0.00     0.037 A 
BRANCH  12  16
HETATM   16  N   UNL     1      -0.666   5.962 -32.633  1.00  0.00    -0.327 N 
HETATM   17  C   UNL     1      -1.552   5.113 -33.275  1.00  0.00     0.218 C 
HETATM   18  C   UNL     1      -1.540   5.290 -34.773  1.00  0.00     0.117 C 
HETATM   19  O   UNL     1      -2.316   4.310 -32.749  1.00  0.00    -0.274 OA
HETATM   20  H   UNL     1      -0.139   6.595 -33.221  1.00  0.00     0.169 HD
ENDBRANCH  12  16
ENDBRANCH   9  10
ENDBRANCH   8   9
ENDBRANCH   7   8
ENDBRANCH   6   7
ENDBRANCH   5   6
ENDBRANCH   1   5
BRANCH   2  21
HETATM   21  C   UNL     1      -5.524   3.052 -30.711  1.00  0.00     0.120 A 
HETATM   22  N   UNL     1      -4.199   2.720 -30.745  1.00  0.00    -0.272 N 
HETATM   23  H   UNL     1      -3.439   3.202 -30.273  1.00  0.00     0.189 HD
HETATM   24  N   UNL     1      -3.920   1.640 -31.489  1.00  0.00    -0.174 NA
HETATM   25  C   UNL     1      -5.109   1.238 -31.968  1.00  0.00     0.089 A 
HETATM   26  C   UNL     1      -6.139   2.106 -31.507  1.00  0.00     0.071 A 
BRANCH  25  27
HETATM   27  C   UNL     1      -5.230   0.062 -32.837  1.00  0.00    -0.005 A 
HETATM   28  C   UNL     1      -4.315  -1.002 -32.754  1.00  0.00     0.017 A 
HETATM   29  C   UNL     1      -4.441  -2.116 -33.590  1.00  0.00     0.043 A 
HETATM   30  C   UNL     1      -5.480  -2.172 -34.510  1.00  0.00     0.116 A 
HETATM   31  F   UNL     1      -5.598  -3.241 -35.309  1.00  0.00    -0.206 F 
HETATM   32  C   UNL     1      -6.396  -1.134 -34.614  1.00  0.00     0.043 A 
HETATM   33  C   UNL     1      -6.270  -0.020 -33.781  1.00  0.00     0.017 A 
ENDBRANCH  25  27
ENDBRANCH   2  21
TORSDOF 9
ENDMDL
MODEL 7
REMARK VINA RESULT:      -7.9      2.763      4.140
REMARK  9 active torsions:
REMARK  status: ('A' for Active; 'I' for Inactive)
REMARK       I    between atoms: C_2  and  N_3 
REMARK    1  A    between atoms: N_3  and  C_4 
REMARK    2  A    between atoms: C_6  and  O_7 
REMARK    3  A    between atoms: O_7  and  C_8 
REMARK    4  A    between atoms: C_8  and  C_9 
REMARK    5  A    between atoms: C_9  and  C_10 
REMARK    6  A    between atoms: C_10  and  C_11 
REMARK    7  A    between atoms: C_11  and  N_12 
REMARK       I    between atoms: N_12  and  C_13 
REMARK    8  A    between atoms: C_13  and  C_14 
REMARK    9  A    between atoms: C_18  and  C_19 
ROOT
HETATM    1  N   UNL     1      -6.740   3.774 -33.972  1.00  0.00    -0.345 N 
HETATM    2  C   UNL     1      -7.606   2.833 -33.476  1.00  0.00     0.270 C 
HETATM    3  O   UNL     1      -8.508   3.112 -32.694  1.00  0.00    -0.266 OA
HETATM    4  H   UNL     1      -6.084   3.524 -34.696  1.00  0.00     0.163 HD
ENDROOT
BRANCH   1   5
HETATM    5  C   UNL     1      -6.895   5.166 -33.646  1.00  0.00     0.217 C 
BRANCH   5   6
HETATM    6  C   UNL     1      -5.972   5.504 -32.487  1.00  0.00    -0.085 C 
BRANCH   6   7
HETATM    7  C   UNL     1      -5.181   5.794 -31.491  1.00  0.00    -0.078 C 
BRANCH   7   8
HETATM    8  C   UNL     1      -4.259   6.132 -30.331  1.00  0.00     0.269 C 
BRANCH   8   9
HETATM    9  O   UNL     1      -3.554   7.339 -30.603  1.00  0.00    -0.339 OA
BRANCH   9  10
HETATM   10  C   UNL     1      -2.185   7.259 -30.544  1.00  0.00     0.072 A 
HETATM   11  C   UNL     1      -1.394   7.546 -29.424  1.00  0.00     0.066 A 
HETATM   12  C   UNL     1      -0.003   7.405 -29.472  1.00  0.00     0.037 A 
HETATM   13  C   UNL     1       0.595   6.990 -30.667  1.00  0.00     0.029 A 
HETATM   14  C   UNL     1      -0.185   6.712 -31.790  1.00  0.00     0.005 A 
HETATM   15  C   UNL     1      -1.571   6.844 -31.726  1.00  0.00     0.037 A 
BRANCH  12  16
HETATM   16  N   UNL     1       0.849   7.654 -28.374  1.00  0.00    -0.327 N 
HETATM   17  C   UNL     1       0.587   7.426 -27.033  1.00  0.00     0.218 C 
HETATM   18  C   UNL     1       1.750   7.798 -26.147  1.00  0.00     0.117 C 
HETATM   19  O   UNL     1      -0.434   6.947 -26.553  1.00  0.00    -0.274 OA
HETATM   20  H   UNL     1       1.766   8.018 -28.601  1.00  0.00     0.169 HD
ENDBRANCH  12  16
ENDBRANCH   9  10
ENDBRANCH   8   9
ENDBRANCH   7   8
ENDBRANCH   6   7
ENDBRANCH   5   6
ENDBRANCH   1   5
BRANCH   2  21
HETATM   21  C   UNL     1      -7.388   1.492 -33.946  1.00  0.00     0.120 A 
HETATM   22  N   UNL     1      -8.053   0.997 -35.032  1.00  0.00    -0.272 N 
HETATM   23  H   UNL     1      -8.739   1.487 -35.599  1.00  0.00     0.189 HD
HETATM   24  N   UNL     1      -7.737  -0.268 -35.343  1.00  0.00    -0.174 NA
HETATM   25  C   UNL     1      -6.823  -0.627 -34.428  1.00  0.00     0.089 A 
HETATM   26  C   UNL     1      -6.584   0.450 -33.528  1.00  0.00     0.071 A 
BRANCH  25  27
HETATM   27  C   UNL     1      -6.213  -1.963 -34.432  1.00  0.00    -0.005 A 
HETATM   28  C   UNL     1      -6.961  -3.103 -34.774  1.00  0.00     0.017 A 
HETATM   29  C   UNL     1      -6.368  -4.370 -34.772  1.00  0.00     0.043 A 
HETATM   30  C   UNL     1      -5.029  -4.502 -34.429  1.00  0.00     0.116 A 
HETATM   31  F   UNL     1      -4.465  -5.717 -34.428  1.00  0.00    -0.206 F 
HETATM   32  C   UNL     1      -4.268  -3.392 -34.086  1.00  0.00     0.043 A 
HETATM   33  C   UNL     1      -4.859  -2.127 -34.086  1.00  0.00     0.017 A 
ENDBRANCH  25  27
ENDBRANCH   2  21
TORSDOF 9
ENDMDL
MODEL 8
REMARK VINA RESULT:      -7.8      4.722     10.788
REMARK  9 active torsions:
REMARK  status: ('A' for Active; 'I' for Inactive)
REMARK       I    between atoms: C_2  and  N_3 
REMARK    1  A    between atoms: N_3  and  C_4 
REMARK    2  A    between atoms: C_6  and  O_7 
REMARK    3  A    between atoms: O_7  and  C_8 
REMARK    4  A    between atoms: C_8  and  C_9 
REMARK    5  A    between atoms: C_9  and  C_10 
REMARK    6  A    between atoms: C_10  and  C_11 
REMARK    7  A    between atoms: C_11  and  N_12 
REMARK       I    between atoms: N_12  and  C_13 
REMARK    8  A    between atoms: C_13  and  C_14 
REMARK    9  A    between atoms: C_18  and  C_19 
ROOT
HETATM    1  N   UNL     1      -1.922   6.370 -32.495  1.00  0.00    -0.345 N 
HETATM    2  C   UNL     1      -0.979   5.810 -31.670  1.00  0.00     0.270 C 
HETATM    3  O   UNL     1      -0.318   4.828 -31.993  1.00  0.00    -0.266 OA
HETATM    4  H   UNL     1      -2.363   7.239 -32.239  1.00  0.00     0.163 HD
ENDROOT
BRANCH   1   5
HETATM    5  C   UNL     1      -2.134   5.866 -33.825  1.00  0.00     0.217 C 
BRANCH   5   6
HETATM    6  C   UNL     1      -3.481   5.162 -33.874  1.00  0.00    -0.085 C 
BRANCH   6   7
HETATM    7  C   UNL     1      -4.636   4.558 -33.915  1.00  0.00    -0.078 C 
BRANCH   7   8
HETATM    8  C   UNL     1      -5.982   3.855 -33.964  1.00  0.00     0.269 C 
BRANCH   8   9
HETATM    9  O   UNL     1      -6.000   2.771 -33.040  1.00  0.00    -0.339 OA
BRANCH   9  10
HETATM   10  C   UNL     1      -6.138   1.520 -33.589  1.00  0.00     0.072 A 
HETATM   11  C   UNL     1      -5.338   0.406 -33.302  1.00  0.00     0.066 A 
HETATM   12  C   UNL     1      -5.586  -0.831 -33.906  1.00  0.00     0.037 A 
HETATM   13  C   UNL     1      -6.639  -0.938 -34.822  1.00  0.00     0.029 A 
HETATM   14  C   UNL     1      -7.434   0.169 -35.120  1.00  0.00     0.005 A 
HETATM   15  C   UNL     1      -7.184   1.393 -34.502  1.00  0.00     0.037 A 
BRANCH  12  16
HETATM   16  N   UNL     1      -4.835  -1.998 -33.644  1.00  0.00    -0.327 N 
HETATM   17  C   UNL     1      -4.777  -3.153 -34.404  1.00  0.00     0.218 C 
HETATM   18  C   UNL     1      -3.845  -4.184 -33.816  1.00  0.00     0.117 C 
HETATM   19  O   UNL     1      -5.359  -3.370 -35.462  1.00  0.00    -0.274 OA
HETATM   20  H   UNL     1      -4.253  -1.970 -32.816  1.00  0.00     0.169 HD
ENDBRANCH  12  16
ENDBRANCH   9  10
ENDBRANCH   8   9
ENDBRANCH   7   8
ENDBRANCH   6   7
ENDBRANCH   5   6
ENDBRANCH   1   5
BRANCH   2  21
HETATM   21  C   UNL     1      -0.812   6.461 -30.400  1.00  0.00     0.120 A 
HETATM   22  N   UNL     1      -1.821   6.500 -29.478  1.00  0.00    -0.272 N 
HETATM   23  H   UNL     1      -2.750   6.101 -29.577  1.00  0.00     0.189 HD
HETATM   24  N   UNL     1      -1.506   7.144 -28.345  1.00  0.00    -0.174 NA
HETATM   25  C   UNL     1      -0.237   7.545 -28.519  1.00  0.00     0.089 A 
HETATM   26  C   UNL     1       0.230   7.142 -29.803  1.00  0.00     0.071 A 
BRANCH  25  27
HETATM   27  C   UNL     1       0.484   8.291 -27.481  1.00  0.00    -0.005 A 
HETATM   28  C   UNL     1       1.521   7.694 -26.744  1.00  0.00     0.017 A 
HETATM   29  C   UNL     1       2.199   8.416 -25.756  1.00  0.00     0.043 A 
HETATM   30  C   UNL     1       1.844   9.734 -25.502  1.00  0.00     0.116 A 
HETATM   31  F   UNL     1       2.496  10.422 -24.554  1.00  0.00    -0.206 F 
HETATM   32  C   UNL     1       0.822  10.347 -26.214  1.00  0.00     0.043 A 
HETATM   33  C   UNL     1       0.144   9.627 -27.200  1.00  0.00     0.017 A 
ENDBRANCH  25  27
ENDBRANCH   2  21
TORSDOF 9
ENDMDL
MODEL 9
REMARK VINA RESULT:      -7.6     17.168     19.314
REMARK  9 active torsions:
REMARK  status: ('A' for Active; 'I' for Inactive)
REMARK       I    between atoms: C_2  and  N_3 
REMARK    1  A    between atoms: N_3  and  C_4 
REMARK    2  A    between atoms: C_6  and  O_7 
REMARK    3  A    between atoms: O_7  and  C_8 
REMARK    4  A    between atoms: C_8  and  C_9 
REMARK    5  A    between atoms: C_9  and  C_10 
REMARK    6  A    between atoms: C_10  and  C_11 
REMARK    7  A    between atoms: C_11  and  N_12 
REMARK       I    between atoms: N_12  and  C_13 
REMARK    8  A    between atoms: C_13  and  C_14 
REMARK    9  A    between atoms: C_18  and  C_19 
ROOT
HETATM    1  N   UNL     1      -1.313 -14.748 -35.960  1.00  0.00    -0.345 N 
HETATM    2  C   UNL     1      -1.266 -14.422 -37.292  1.00  0.00     0.270 C 
HETATM    3  O   UNL     1      -0.331 -14.744 -38.019  1.00  0.00    -0.266 OA
HETATM    4  H   UNL     1      -2.146 -14.563 -35.425  1.00  0.00     0.163 HD
ENDROOT
BRANCH   1   5
HETATM    5  C   UNL     1      -0.284 -15.554 -35.360  1.00  0.00     0.217 C 
BRANCH   5   6
HETATM    6  C   UNL     1      -0.725 -15.948 -33.959  1.00  0.00    -0.085 C 
BRANCH   6   7
HETATM    7  C   UNL     1      -1.103 -16.288 -32.758  1.00  0.00    -0.078 C 
BRANCH   7   8
HETATM    8  C   UNL     1      -1.543 -16.684 -31.358  1.00  0.00     0.269 C 
BRANCH   8   9
HETATM    9  O   UNL     1      -1.610 -15.532 -30.524  1.00  0.00    -0.339 OA
BRANCH   9  10
HETATM   10  C   UNL     1      -0.487 -15.268 -29.779  1.00  0.00     0.072 A 
HETATM   11  C   UNL     1      -0.050 -14.000 -29.374  1.00  0.00     0.066 A 
HETATM   12  C   UNL     1       1.100 -13.851 -28.593  1.00  0.00     0.037 A 
HETATM   13  C   UNL     1       1.827 -14.993 -28.235  1.00  0.00     0.029 A 
HETATM   14  C   UNL     1       1.404 -16.259 -28.641  1.00  0.00     0.005 A 
HETATM   15  C   UNL     1       0.249 -16.394 -29.409  1.00  0.00     0.037 A 
BRANCH  12  16
HETATM   16  N   UNL     1       1.581 -12.606 -28.132  1.00  0.00    -0.327 N 
HETATM   17  C   UNL     1       2.885 -12.142 -28.160  1.00  0.00     0.218 C 
HETATM   18  C   UNL     1       3.014 -10.749 -27.596  1.00  0.00     0.117 C 
HETATM   19  O   UNL     1       3.866 -12.725 -28.610  1.00  0.00    -0.274 OA
HETATM   20  H   UNL     1       0.882 -11.974 -27.763  1.00  0.00     0.169 HD
ENDBRANCH  12  16
ENDBRANCH   9  10
ENDBRANCH   8   9
ENDBRANCH   7   8
ENDBRANCH   6   7
ENDBRANCH   5   6
ENDBRANCH   1   5
BRANCH   2  21
HETATM   21  C   UNL     1      -2.397 -13.683 -37.782  1.00  0.00     0.120 A 
HETATM   22  N   UNL     1      -2.370 -12.321 -37.888  1.00  0.00    -0.272 N 
HETATM   23  H   UNL     1      -1.597 -11.708 -37.647  1.00  0.00     0.189 HD
HETATM   24  N   UNL     1      -3.503 -11.783 -38.363  1.00  0.00    -0.174 NA
HETATM   25  C   UNL     1      -4.314 -12.830 -38.583  1.00  0.00     0.089 A 
HETATM   26  C   UNL     1      -3.656 -14.040 -38.221  1.00  0.00     0.071 A 
BRANCH  25  27
HETATM   27  C   UNL     1      -5.669 -12.655 -39.118  1.00  0.00    -0.005 A 
HETATM   28  C   UNL     1      -5.892 -12.502 -40.498  1.00  0.00     0.017 A 
HETATM   29  C   UNL     1      -7.189 -12.333 -40.994  1.00  0.00     0.043 A 
HETATM   30  C   UNL     1      -8.265 -12.318 -40.117  1.00  0.00     0.116 A 
HETATM   31  F   UNL     1      -9.506 -12.156 -40.596  1.00  0.00    -0.206 F 
HETATM   32  C   UNL     1      -8.072 -12.465 -38.750  1.00  0.00     0.043 A 
HETATM   33  C   UNL     1      -6.778 -12.632 -38.253  1.00  0.00     0.017 A 
ENDBRANCH  25  27
ENDBRANCH   2  21
TORSDOF 9
ENDMDL
MODEL 10
REMARK VINA RESULT:      -7.4      4.561     10.438
REMARK  9 active torsions:
REMARK  status: ('A' for Active; 'I' for Inactive)
REMARK       I    between atoms: C_2  and  N_3 
REMARK    1  A    between atoms: N_3  and  C_4 
REMARK    2  A    between atoms: C_6  and  O_7 
REMARK    3  A    between atoms: O_7  and  C_8 
REMARK    4  A    between atoms: C_8  and  C_9 
REMARK    5  A    between atoms: C_9  and  C_10 
REMARK    6  A    between atoms: C_10  and  C_11 
REMARK    7  A    between atoms: C_11  and  N_12 
REMARK       I    between atoms: N_12  and  C_13 
REMARK    8  A    between atoms: C_13  and  C_14 
REMARK    9  A    between atoms: C_18  and  C_19 
ROOT
HETATM    1  N   UNL     1      -3.738   5.504 -32.321  1.00  0.00    -0.345 N 
HETATM    2  C   UNL     1      -2.457   5.631 -32.794  1.00  0.00     0.270 C 
HETATM    3  O   UNL     1      -2.151   5.371 -33.953  1.00  0.00    -0.266 OA
HETATM    4  H   UNL     1      -3.970   5.832 -31.397  1.00  0.00     0.163 HD
ENDROOT
BRANCH   1   5
HETATM    5  C   UNL     1      -4.813   5.117 -33.194  1.00  0.00     0.217 C 
BRANCH   5   6
HETATM    6  C   UNL     1      -4.999   3.611 -33.108  1.00  0.00    -0.085 C 
BRANCH   6   7
HETATM    7  C   UNL     1      -5.157   2.319 -33.034  1.00  0.00    -0.078 C 
BRANCH   7   8
HETATM    8  C   UNL     1      -5.342   0.813 -32.947  1.00  0.00     0.269 C 
BRANCH   8   9
HETATM    9  O   UNL     1      -6.237   0.371 -33.963  1.00  0.00    -0.339 OA
BRANCH   9  10
HETATM   10  C   UNL     1      -7.573   0.537 -33.695  1.00  0.00     0.072 A 
HETATM   11  C   UNL     1      -8.510   1.145 -34.541  1.00  0.00     0.066 A 
HETATM   12  C   UNL     1      -9.857   1.238 -34.173  1.00  0.00     0.037 A 
HETATM   13  C   UNL     1     -10.256   0.730 -32.931  1.00  0.00     0.029 A 
HETATM   14  C   UNL     1      -9.327   0.131 -32.079  1.00  0.00     0.005 A 
HETATM   15  C   UNL     1      -7.991   0.034 -32.463  1.00  0.00     0.037 A 
BRANCH  12  16
HETATM   16  N   UNL     1     -10.855   1.816 -34.987  1.00  0.00    -0.327 N 
HETATM   17  C   UNL     1     -11.210   3.152 -35.067  1.00  0.00     0.218 C 
HETATM   18  C   UNL     1     -12.312   3.397 -36.069  1.00  0.00     0.117 C 
HETATM   19  O   UNL     1     -10.707   4.087 -34.453  1.00  0.00    -0.274 OA
HETATM   20  H   UNL     1     -11.347   1.178 -35.600  1.00  0.00     0.169 HD
ENDBRANCH  12  16
ENDBRANCH   9  10
ENDBRANCH   8   9
ENDBRANCH   7   8
ENDBRANCH   6   7
ENDBRANCH   5   6
ENDBRANCH   1   5
BRANCH   2  21
HETATM   21  C   UNL     1      -1.494   6.103 -31.835  1.00  0.00     0.120 A 
HETATM   22  N   UNL     1      -0.254   6.528 -32.218  1.00  0.00    -0.272 N 
HETATM   23  H   UNL     1       0.114   6.558 -33.164  1.00  0.00     0.189 HD
HETATM   24  N   UNL     1       0.524   6.938 -31.205  1.00  0.00    -0.174 NA
HETATM   25  C   UNL     1      -0.231   6.780 -30.107  1.00  0.00     0.089 A 
HETATM   26  C   UNL     1      -1.504   6.249 -30.463  1.00  0.00     0.071 A 
BRANCH  25  27
HETATM   27  C   UNL     1       0.269   7.130 -28.772  1.00  0.00    -0.005 A 
HETATM   28  C   UNL     1      -0.123   6.402 -27.635  1.00  0.00     0.017 A 
HETATM   29  C   UNL     1       0.360   6.747 -26.368  1.00  0.00     0.043 A 
HETATM   30  C   UNL     1       1.235   7.817 -26.234  1.00  0.00     0.116 A 
HETATM   31  F   UNL     1       1.695   8.145 -25.018  1.00  0.00    -0.206 F 
HETATM   32  C   UNL     1       1.636   8.553 -27.340  1.00  0.00     0.043 A 
HETATM   33  C   UNL     1       1.154   8.211 -28.605  1.00  0.00     0.017 A 
ENDBRANCH  25  27
ENDBRANCH   2  21
TORSDOF 9
ENDMDL
