MODEL 1
REMARK VINA RESULT:      -8.8      0.000      0.000
REMARK  6 active torsions:
REMARK  status: ('A' for Active; 'I' for Inactive)
REMARK    1  A    between atoms: C_3  and  N_4 
REMARK       I    between atoms: N_4  and  C_5 
REMARK    2  A    between atoms: C_5  and  C_6 
REMARK    3  A    between atoms: C_6  and  O_7 
REMARK    4  A    between atoms: O_7  and  C_8 
REMARK    5  A    between atoms: C_10  and  N_11 
REMARK       I    between atoms: N_11  and  C_12 
REMARK    6  A    between atoms: C_12  and  C_13 
ROOT
HETATM    1  C   UNL     1      -4.686   2.843 -31.764  1.00  0.00     0.278 C 
ENDROOT
BRANCH   1   2
HETATM    2  C   UNL     1      -5.375   1.491 -31.984  1.00  0.00     0.246 C 
HETATM    3  N   UNL     1      -5.026   0.909 -33.189  1.00  0.00    -0.323 N 
HETATM    4  H   UNL     1      -4.188   1.326 -33.586  1.00  0.00     0.169 HD
HETATM    5  O   UNL     1      -6.120   1.030 -31.126  1.00  0.00    -0.271 OA
BRANCH   3   6
HETATM    6  C   UNL     1      -5.430  -0.338 -33.732  1.00  0.00     0.065 A 
HETATM    7  C   UNL     1      -6.546  -0.542 -34.560  1.00  0.00    -0.031 A 
HETATM    8  C   UNL     1      -7.421   0.543 -35.126  1.00  0.00     0.050 C 
HETATM    9  C   UNL     1      -6.868  -1.857 -34.944  1.00  0.00     0.035 A 
HETATM   10  C   UNL     1      -6.050  -2.913 -34.574  1.00  0.00     0.031 A 
HETATM   11  N   UNL     1      -4.926  -2.729 -33.856  1.00  0.00    -0.256 NA
HETATM   12  C   UNL     1      -6.394  -4.316 -34.973  1.00  0.00     0.070 C 
HETATM   13  C   UNL     1      -4.626  -1.467 -33.451  1.00  0.00     0.058 A 
HETATM   14  C   UNL     1      -3.362  -1.369 -32.640  1.00  0.00     0.073 C 
ENDBRANCH   3   6
ENDBRANCH   1   2
BRANCH   1  15
HETATM   15  O   UNL     1      -4.329   3.485 -32.987  1.00  0.00    -0.342 OA
BRANCH  15  16
HETATM   16  C   UNL     1      -3.226   4.293 -32.948  1.00  0.00     0.071 A 
HETATM   17  C   UNL     1      -2.700   4.535 -31.675  1.00  0.00     0.066 A 
HETATM   18  C   UNL     1      -1.551   5.311 -31.513  1.00  0.00     0.037 A 
HETATM   19  C   UNL     1      -0.921   5.825 -32.654  1.00  0.00     0.029 A 
HETATM   20  C   UNL     1      -1.429   5.564 -33.929  1.00  0.00     0.005 A 
HETATM   21  C   UNL     1      -2.580   4.791 -34.079  1.00  0.00     0.037 A 
BRANCH  18  22
HETATM   22  N   UNL     1      -0.969   5.614 -30.265  1.00  0.00    -0.327 N 
HETATM   23  C   UNL     1       0.258   5.201 -29.788  1.00  0.00     0.226 C 
HETATM   24  O   UNL     1       1.075   4.505 -30.373  1.00  0.00    -0.273 OA
HETATM   25  H   UNL     1      -1.512   6.210 -29.662  1.00  0.00     0.169 HD
BRANCH  23  26
HETATM   26  C   UNL     1       0.617   5.671 -28.413  1.00  0.00     0.078 A 
HETATM   27  C   UNL     1       0.842   7.147 -28.168  1.00  0.00     0.015 A 
HETATM   28  C   UNL     1      -0.274   6.435 -27.463  1.00  0.00     0.015 A 
ENDBRANCH  23  26
ENDBRANCH  18  22
ENDBRANCH  15  16
ENDBRANCH   1  15
TORSDOF 6
ENDMDL
MODEL 2
REMARK VINA RESULT:      -8.6      1.485      1.900
REMARK  6 active torsions:
REMARK  status: ('A' for Active; 'I' for Inactive)
REMARK    1  A    between atoms: C_3  and  N_4 
REMARK       I    between atoms: N_4  and  C_5 
REMARK    2  A    between atoms: C_5  and  C_6 
REMARK    3  A    between atoms: C_6  and  O_7 
REMARK    4  A    between atoms: O_7  and  C_8 
REMARK    5  A    between atoms: C_10  and  N_11 
REMARK       I    between atoms: N_11  and  C_12 
REMARK    6  A    between atoms: C_12  and  C_13 
ROOT
HETATM    1  C   UNL     1      -5.497   2.826 -31.611  1.00  0.00     0.278 C 
ENDROOT
BRANCH   1   2
HETATM    2  C   UNL     1      -5.998   1.416 -31.946  1.00  0.00     0.246 C 
HETATM    3  N   UNL     1      -5.392   0.893 -33.075  1.00  0.00    -0.323 N 
HETATM    4  H   UNL     1      -4.545   1.398 -33.321  1.00  0.00     0.169 HD
HETATM    5  O   UNL     1      -6.828   0.868 -31.229  1.00  0.00    -0.271 OA
BRANCH   3   6
HETATM    6  C   UNL     1      -5.569  -0.378 -33.679  1.00  0.00     0.065 A 
HETATM    7  C   UNL     1      -6.599  -0.718 -34.572  1.00  0.00    -0.031 A 
HETATM    8  C   UNL     1      -7.605   0.240 -35.147  1.00  0.00     0.050 C 
HETATM    9  C   UNL     1      -6.693  -2.050 -35.015  1.00  0.00     0.035 A 
HETATM   10  C   UNL     1      -5.738  -2.982 -34.637  1.00  0.00     0.031 A 
HETATM   11  N   UNL     1      -4.692  -2.656 -33.855  1.00  0.00    -0.256 NA
HETATM   12  C   UNL     1      -5.840  -4.403 -35.100  1.00  0.00     0.070 C 
HETATM   13  C   UNL     1      -4.613  -1.380 -33.392  1.00  0.00     0.058 A 
HETATM   14  C   UNL     1      -3.420  -1.121 -32.512  1.00  0.00     0.073 C 
ENDBRANCH   3   6
ENDBRANCH   1   2
BRANCH   1  15
HETATM   15  O   UNL     1      -5.872   3.792 -32.592  1.00  0.00    -0.342 OA
BRANCH  15  16
HETATM   16  C   UNL     1      -4.851   4.401 -33.266  1.00  0.00     0.071 A 
HETATM   17  C   UNL     1      -3.706   4.673 -32.508  1.00  0.00     0.066 A 
HETATM   18  C   UNL     1      -2.582   5.254 -33.097  1.00  0.00     0.037 A 
HETATM   19  C   UNL     1      -2.614   5.543 -34.468  1.00  0.00     0.029 A 
HETATM   20  C   UNL     1      -3.747   5.250 -35.232  1.00  0.00     0.005 A 
HETATM   21  C   UNL     1      -4.866   4.672 -34.634  1.00  0.00     0.037 A 
BRANCH  18  22
HETATM   22  N   UNL     1      -1.398   5.573 -32.400  1.00  0.00    -0.327 N 
HETATM   23  C   UNL     1      -0.840   6.822 -32.220  1.00  0.00     0.226 C 
HETATM   24  O   UNL     1      -1.284   7.887 -32.623  1.00  0.00    -0.273 OA
HETATM   25  H   UNL     1      -0.916   4.796 -31.978  1.00  0.00     0.169 HD
BRANCH  23  26
HETATM   26  C   UNL     1       0.436   6.861 -31.440  1.00  0.00     0.078 A 
HETATM   27  C   UNL     1       0.385   7.083 -29.944  1.00  0.00     0.015 A 
HETATM   28  C   UNL     1       0.943   5.802 -30.492  1.00  0.00     0.015 A 
ENDBRANCH  23  26
ENDBRANCH  18  22
ENDBRANCH  15  16
ENDBRANCH   1  15
TORSDOF 6
ENDMDL
MODEL 3
REMARK VINA RESULT:      -8.2      1.160      2.031
REMARK  6 active torsions:
REMARK  status: ('A' for Active; 'I' for Inactive)
REMARK    1  A    between atoms: C_3  and  N_4 
REMARK       I    between atoms: N_4  and  C_5 
REMARK    2  A    between atoms: C_5  and  C_6 
REMARK    3  A    between atoms: C_6  and  O_7 
REMARK    4  A    between atoms: O_7  and  C_8 
REMARK    5  A    between atoms: C_10  and  N_11 
REMARK       I    between atoms: N_11  and  C_12 
REMARK    6  A    between atoms: C_12  and  C_13 
ROOT
HETATM    1  C   UNL     1      -4.800   2.822 -31.755  1.00  0.00     0.278 C 
ENDROOT
BRANCH   1   2
HETATM    2  C   UNL     1      -5.262   1.365 -31.871  1.00  0.00     0.246 C 
HETATM    3  N   UNL     1      -4.925   0.797 -33.086  1.00  0.00    -0.323 N 
HETATM    4  H   UNL     1      -4.208   1.331 -33.571  1.00  0.00     0.169 HD
HETATM    5  O   UNL     1      -5.840   0.823 -30.935  1.00  0.00    -0.271 OA
BRANCH   3   6
HETATM    6  C   UNL     1      -5.153  -0.523 -33.552  1.00  0.00     0.065 A 
HETATM    7  C   UNL     1      -4.402  -1.655 -33.193  1.00  0.00    -0.031 A 
HETATM    8  C   UNL     1      -3.319  -1.686 -32.150  1.00  0.00     0.050 C 
HETATM    9  C   UNL     1      -4.696  -2.883 -33.813  1.00  0.00     0.035 A 
HETATM   10  C   UNL     1      -5.759  -2.982 -34.699  1.00  0.00     0.031 A 
HETATM   11  N   UNL     1      -6.548  -1.931 -34.988  1.00  0.00    -0.256 NA
HETATM   12  C   UNL     1      -6.070  -4.286 -35.368  1.00  0.00     0.070 C 
HETATM   13  C   UNL     1      -6.249  -0.732 -34.422  1.00  0.00     0.058 A 
HETATM   14  C   UNL     1      -7.177   0.383 -34.822  1.00  0.00     0.073 C 
ENDBRANCH   3   6
ENDBRANCH   1   2
BRANCH   1  15
HETATM   15  O   UNL     1      -4.276   3.333 -32.980  1.00  0.00    -0.342 OA
BRANCH  15  16
HETATM   16  C   UNL     1      -3.171   4.133 -32.880  1.00  0.00     0.071 A 
HETATM   17  C   UNL     1      -2.745   4.413 -31.577  1.00  0.00     0.066 A 
HETATM   18  C   UNL     1      -1.604   5.184 -31.350  1.00  0.00     0.037 A 
HETATM   19  C   UNL     1      -0.880   5.655 -32.453  1.00  0.00     0.029 A 
HETATM   20  C   UNL     1      -1.288   5.355 -33.755  1.00  0.00     0.005 A 
HETATM   21  C   UNL     1      -2.431   4.587 -33.972  1.00  0.00     0.037 A 
BRANCH  18  22
HETATM   22  N   UNL     1      -1.120   5.524 -30.070  1.00  0.00    -0.327 N 
HETATM   23  C   UNL     1      -1.249   6.733 -29.417  1.00  0.00     0.226 C 
HETATM   24  O   UNL     1      -1.824   7.730 -29.829  1.00  0.00    -0.273 OA
HETATM   25  H   UNL     1      -0.635   4.792 -29.576  1.00  0.00     0.169 HD
BRANCH  23  26
HETATM   26  C   UNL     1      -0.623   6.813 -28.060  1.00  0.00     0.078 A 
HETATM   27  C   UNL     1       0.881   6.711 -27.929  1.00  0.00     0.015 A 
HETATM   28  C   UNL     1       0.177   7.968 -27.507  1.00  0.00     0.015 A 
ENDBRANCH  23  26
ENDBRANCH  18  22
ENDBRANCH  15  16
ENDBRANCH   1  15
TORSDOF 6
ENDMDL
MODEL 4
REMARK VINA RESULT:      -7.8      4.391      7.682
REMARK  6 active torsions:
REMARK  status: ('A' for Active; 'I' for Inactive)
REMARK    1  A    between atoms: C_3  and  N_4 
REMARK       I    between atoms: N_4  and  C_5 
REMARK    2  A    between atoms: C_5  and  C_6 
REMARK    3  A    between atoms: C_6  and  O_7 
REMARK    4  A    between atoms: O_7  and  C_8 
REMARK    5  A    between atoms: C_10  and  N_11 
REMARK       I    between atoms: N_11  and  C_12 
REMARK    6  A    between atoms: C_12  and  C_13 
ROOT
HETATM    1  C   UNL     1      -5.461   2.301 -31.157  1.00  0.00     0.278 C 
ENDROOT
BRANCH   1   2
HETATM    2  C   UNL     1      -5.813   0.851 -31.511  1.00  0.00     0.246 C 
HETATM    3  N   UNL     1      -5.520   0.541 -32.827  1.00  0.00    -0.323 N 
HETATM    4  H   UNL     1      -4.884   1.215 -33.245  1.00  0.00     0.169 HD
HETATM    5  O   UNL     1      -6.278   0.102 -30.659  1.00  0.00    -0.271 OA
BRANCH   3   6
HETATM    6  C   UNL     1      -5.676  -0.691 -33.512  1.00  0.00     0.065 A 
HETATM    7  C   UNL     1      -6.730  -1.008 -34.385  1.00  0.00    -0.031 A 
HETATM    8  C   UNL     1      -7.795  -0.052 -34.849  1.00  0.00     0.050 C 
HETATM    9  C   UNL     1      -6.794  -2.308 -34.919  1.00  0.00     0.035 A 
HETATM   10  C   UNL     1      -5.790  -3.225 -34.648  1.00  0.00     0.031 A 
HETATM   11  N   UNL     1      -4.724  -2.914 -33.887  1.00  0.00    -0.256 NA
HETATM   12  C   UNL     1      -5.859  -4.614 -35.206  1.00  0.00     0.070 C 
HETATM   13  C   UNL     1      -4.672  -1.671 -33.338  1.00  0.00     0.058 A 
HETATM   14  C   UNL     1      -3.452  -1.427 -32.490  1.00  0.00     0.073 C 
ENDBRANCH   3   6
ENDBRANCH   1   2
BRANCH   1  15
HETATM   15  O   UNL     1      -6.597   3.059 -30.744  1.00  0.00    -0.342 OA
BRANCH  15  16
HETATM   16  C   UNL     1      -7.483   3.409 -31.725  1.00  0.00     0.071 A 
HETATM   17  C   UNL     1      -8.728   2.774 -31.667  1.00  0.00     0.066 A 
HETATM   18  C   UNL     1      -9.729   3.081 -32.590  1.00  0.00     0.037 A 
HETATM   19  C   UNL     1      -9.470   4.052 -33.565  1.00  0.00     0.029 A 
HETATM   20  C   UNL     1      -8.236   4.706 -33.611  1.00  0.00     0.005 A 
HETATM   21  C   UNL     1      -7.241   4.390 -32.686  1.00  0.00     0.037 A 
BRANCH  18  22
HETATM   22  N   UNL     1     -11.003   2.474 -32.608  1.00  0.00    -0.327 N 
HETATM   23  C   UNL     1     -11.565   1.733 -33.626  1.00  0.00     0.226 C 
HETATM   24  O   UNL     1     -11.050   1.452 -34.698  1.00  0.00    -0.273 OA
HETATM   25  H   UNL     1     -11.555   2.591 -31.773  1.00  0.00     0.169 HD
BRANCH  23  26
HETATM   26  C   UNL     1     -12.947   1.216 -33.372  1.00  0.00     0.078 A 
HETATM   27  C   UNL     1     -13.880   0.988 -34.539  1.00  0.00     0.015 A 
HETATM   28  C   UNL     1     -13.459  -0.170 -33.683  1.00  0.00     0.015 A 
ENDBRANCH  23  26
ENDBRANCH  18  22
ENDBRANCH  15  16
ENDBRANCH   1  15
TORSDOF 6
ENDMDL
MODEL 5
REMARK VINA RESULT:      -7.7      4.473      7.639
REMARK  6 active torsions:
REMARK  status: ('A' for Active; 'I' for Inactive)
REMARK    1  A    between atoms: C_3  and  N_4 
REMARK       I    between atoms: N_4  and  C_5 
REMARK    2  A    between atoms: C_5  and  C_6 
REMARK    3  A    between atoms: C_6  and  O_7 
REMARK    4  A    between atoms: O_7  and  C_8 
REMARK    5  A    between atoms: C_10  and  N_11 
REMARK       I    between atoms: N_11  and  C_12 
REMARK    6  A    between atoms: C_12  and  C_13 
ROOT
HETATM    1  C   UNL     1      -5.514   2.263 -30.976  1.00  0.00     0.278 C 
ENDROOT
BRANCH   1   2
HETATM    2  C   UNL     1      -5.671   0.762 -31.246  1.00  0.00     0.246 C 
HETATM    3  N   UNL     1      -5.557   0.450 -32.589  1.00  0.00    -0.323 N 
HETATM    4  H   UNL     1      -5.125   1.202 -33.119  1.00  0.00     0.169 HD
HETATM    5  O   UNL     1      -5.850  -0.018 -30.317  1.00  0.00    -0.271 OA
BRANCH   3   6
HETATM    6  C   UNL     1      -5.616  -0.818 -33.222  1.00  0.00     0.065 A 
HETATM    7  C   UNL     1      -4.574  -1.759 -33.258  1.00  0.00    -0.031 A 
HETATM    8  C   UNL     1      -3.271  -1.645 -32.517  1.00  0.00     0.050 C 
HETATM    9  C   UNL     1      -4.756  -2.936 -34.007  1.00  0.00     0.035 A 
HETATM   10  C   UNL     1      -5.970  -3.190 -34.627  1.00  0.00     0.031 A 
HETATM   11  N   UNL     1      -7.013  -2.343 -34.530  1.00  0.00    -0.256 NA
HETATM   12  C   UNL     1      -6.165  -4.438 -35.433  1.00  0.00     0.070 C 
HETATM   13  C   UNL     1      -6.834  -1.187 -33.839  1.00  0.00     0.058 A 
HETATM   14  C   UNL     1      -8.050  -0.301 -33.804  1.00  0.00     0.073 C 
ENDBRANCH   3   6
ENDBRANCH   1   2
BRANCH   1  15
HETATM   15  O   UNL     1      -6.289   2.707 -29.863  1.00  0.00    -0.342 OA
BRANCH  15  16
HETATM   16  C   UNL     1      -7.473   3.326 -30.156  1.00  0.00     0.071 A 
HETATM   17  C   UNL     1      -8.376   2.572 -30.913  1.00  0.00     0.066 A 
HETATM   18  C   UNL     1      -9.634   3.083 -31.239  1.00  0.00     0.037 A 
HETATM   19  C   UNL     1      -9.983   4.357 -30.774  1.00  0.00     0.029 A 
HETATM   20  C   UNL     1      -9.093   5.102 -29.996  1.00  0.00     0.005 A 
HETATM   21  C   UNL     1      -7.837   4.585 -29.679  1.00  0.00     0.037 A 
BRANCH  18  22
HETATM   22  N   UNL     1     -10.593   2.394 -32.010  1.00  0.00    -0.327 N 
HETATM   23  C   UNL     1     -10.698   2.361 -33.385  1.00  0.00     0.226 C 
HETATM   24  O   UNL     1      -9.962   2.915 -34.189  1.00  0.00    -0.273 OA
HETATM   25  H   UNL     1     -11.269   1.857 -31.491  1.00  0.00     0.169 HD
BRANCH  23  26
HETATM   26  C   UNL     1     -11.828   1.550 -33.935  1.00  0.00     0.078 A 
HETATM   27  C   UNL     1     -13.152   2.222 -34.225  1.00  0.00     0.015 A 
HETATM   28  C   UNL     1     -12.369   1.601 -35.344  1.00  0.00     0.015 A 
ENDBRANCH  23  26
ENDBRANCH  18  22
ENDBRANCH  15  16
ENDBRANCH   1  15
TORSDOF 6
ENDMDL
MODEL 6
REMARK VINA RESULT:      -7.6      2.029      2.178
REMARK  6 active torsions:
REMARK  status: ('A' for Active; 'I' for Inactive)
REMARK    1  A    between atoms: C_3  and  N_4 
REMARK       I    between atoms: N_4  and  C_5 
REMARK    2  A    between atoms: C_5  and  C_6 
REMARK    3  A    between atoms: C_6  and  O_7 
REMARK    4  A    between atoms: O_7  and  C_8 
REMARK    5  A    between atoms: C_10  and  N_11 
REMARK       I    between atoms: N_11  and  C_12 
REMARK    6  A    between atoms: C_12  and  C_13 
ROOT
HETATM    1  C   UNL     1      -5.437   3.161 -31.529  1.00  0.00     0.278 C 
ENDROOT
BRANCH   1   2
HETATM    2  C   UNL     1      -5.994   1.780 -31.894  1.00  0.00     0.246 C 
HETATM    3  N   UNL     1      -5.335   1.209 -32.968  1.00  0.00    -0.323 N 
HETATM    4  H   UNL     1      -4.442   1.660 -33.151  1.00  0.00     0.169 HD
HETATM    5  O   UNL     1      -6.909   1.290 -31.241  1.00  0.00    -0.271 OA
BRANCH   3   6
HETATM    6  C   UNL     1      -5.540  -0.056 -33.576  1.00  0.00     0.065 A 
HETATM    7  C   UNL     1      -6.611  -0.386 -34.423  1.00  0.00    -0.031 A 
HETATM    8  C   UNL     1      -7.642   0.577 -34.942  1.00  0.00     0.050 C 
HETATM    9  C   UNL     1      -6.725  -1.714 -34.876  1.00  0.00     0.035 A 
HETATM   10  C   UNL     1      -5.754  -2.649 -34.552  1.00  0.00     0.031 A 
HETATM   11  N   UNL     1      -4.673  -2.331 -33.815  1.00  0.00    -0.256 NA
HETATM   12  C   UNL     1      -5.878  -4.066 -35.023  1.00  0.00     0.070 C 
HETATM   13  C   UNL     1      -4.572  -1.060 -33.344  1.00  0.00     0.058 A 
HETATM   14  C   UNL     1      -3.339  -0.810 -32.518  1.00  0.00     0.073 C 
ENDBRANCH   3   6
ENDBRANCH   1   2
BRANCH   1  15
HETATM   15  O   UNL     1      -5.083   3.933 -32.676  1.00  0.00    -0.342 OA
BRANCH  15  16
HETATM   16  C   UNL     1      -3.863   4.550 -32.639  1.00  0.00     0.071 A 
HETATM   17  C   UNL     1      -3.706   5.517 -31.641  1.00  0.00     0.066 A 
HETATM   18  C   UNL     1      -2.491   6.184 -31.478  1.00  0.00     0.037 A 
HETATM   19  C   UNL     1      -1.423   5.851 -32.321  1.00  0.00     0.029 A 
HETATM   20  C   UNL     1      -1.569   4.868 -33.303  1.00  0.00     0.005 A 
HETATM   21  C   UNL     1      -2.788   4.209 -33.459  1.00  0.00     0.037 A 
BRANCH  18  22
HETATM   22  N   UNL     1      -2.259   7.182 -30.508  1.00  0.00    -0.327 N 
HETATM   23  C   UNL     1      -2.278   8.549 -30.688  1.00  0.00     0.226 C 
HETATM   24  O   UNL     1      -2.518   9.147 -31.727  1.00  0.00    -0.273 OA
HETATM   25  H   UNL     1      -2.068   6.850 -29.576  1.00  0.00     0.169 HD
BRANCH  23  26
HETATM   26  C   UNL     1      -1.984   9.373 -29.474  1.00  0.00     0.078 A 
HETATM   27  C   UNL     1      -3.116   9.769 -28.553  1.00  0.00     0.015 A 
HETATM   28  C   UNL     1      -2.005   8.900 -28.041  1.00  0.00     0.015 A 
ENDBRANCH  23  26
ENDBRANCH  18  22
ENDBRANCH  15  16
ENDBRANCH   1  15
TORSDOF 6
ENDMDL
MODEL 7
REMARK VINA RESULT:      -7.6      6.204      9.617
REMARK  6 active torsions:
REMARK  status: ('A' for Active; 'I' for Inactive)
REMARK    1  A    between atoms: C_3  and  N_4 
REMARK       I    between atoms: N_4  and  C_5 
REMARK    2  A    between atoms: C_5  and  C_6 
REMARK    3  A    between atoms: C_6  and  O_7 
REMARK    4  A    between atoms: O_7  and  C_8 
REMARK    5  A    between atoms: C_10  and  N_11 
REMARK       I    between atoms: N_11  and  C_12 
REMARK    6  A    between atoms: C_12  and  C_13 
ROOT
HETATM    1  C   UNL     1      -9.589   3.359 -34.004  1.00  0.00     0.278 C 
ENDROOT
BRANCH   1   2
HETATM    2  C   UNL     1     -11.114   3.513 -34.047  1.00  0.00     0.246 C 
HETATM    3  N   UNL     1     -11.755   2.691 -33.137  1.00  0.00    -0.323 N 
HETATM    4  H   UNL     1     -11.119   2.342 -32.425  1.00  0.00     0.169 HD
HETATM    5  O   UNL     1     -11.634   4.316 -34.814  1.00  0.00    -0.271 OA
BRANCH   3   6
HETATM    6  C   UNL     1     -13.141   2.568 -32.863  1.00  0.00     0.065 A 
HETATM    7  C   UNL     1     -13.985   1.566 -33.372  1.00  0.00    -0.031 A 
HETATM    8  C   UNL     1     -13.540   0.378 -34.178  1.00  0.00     0.050 C 
HETATM    9  C   UNL     1     -15.360   1.633 -33.080  1.00  0.00     0.035 A 
HETATM   10  C   UNL     1     -15.850   2.624 -32.242  1.00  0.00     0.031 A 
HETATM   11  N   UNL     1     -15.045   3.540 -31.671  1.00  0.00    -0.256 NA
HETATM   12  C   UNL     1     -17.314   2.704 -31.936  1.00  0.00     0.070 C 
HETATM   13  C   UNL     1     -13.720   3.505 -31.976  1.00  0.00     0.058 A 
HETATM   14  C   UNL     1     -12.909   4.579 -31.304  1.00  0.00     0.073 C 
ENDBRANCH   3   6
ENDBRANCH   1   2
BRANCH   1  15
HETATM   15  O   UNL     1      -9.139   2.150 -34.614  1.00  0.00    -0.342 OA
BRANCH  15  16
HETATM   16  C   UNL     1      -8.443   1.288 -33.812  1.00  0.00     0.071 A 
HETATM   17  C   UNL     1      -7.954   0.139 -34.444  1.00  0.00     0.066 A 
HETATM   18  C   UNL     1      -7.193  -0.793 -33.738  1.00  0.00     0.037 A 
HETATM   19  C   UNL     1      -6.910  -0.547 -32.388  1.00  0.00     0.029 A 
HETATM   20  C   UNL     1      -7.376   0.612 -31.761  1.00  0.00     0.005 A 
HETATM   21  C   UNL     1      -8.138   1.536 -32.475  1.00  0.00     0.037 A 
BRANCH  18  22
HETATM   22  N   UNL     1      -6.678  -1.982 -34.296  1.00  0.00    -0.327 N 
HETATM   23  C   UNL     1      -5.353  -2.320 -34.476  1.00  0.00     0.226 C 
HETATM   24  O   UNL     1      -4.378  -1.651 -34.167  1.00  0.00    -0.273 OA
HETATM   25  H   UNL     1      -7.363  -2.662 -34.585  1.00  0.00     0.169 HD
BRANCH  23  26
HETATM   26  C   UNL     1      -5.099  -3.652 -35.108  1.00  0.00     0.078 A 
HETATM   27  C   UNL     1      -5.140  -4.899 -34.253  1.00  0.00     0.015 A 
HETATM   28  C   UNL     1      -6.121  -4.730 -35.375  1.00  0.00     0.015 A 
ENDBRANCH  23  26
ENDBRANCH  18  22
ENDBRANCH  15  16
ENDBRANCH   1  15
TORSDOF 6
ENDMDL
MODEL 8
REMARK VINA RESULT:      -7.6      2.455      9.165
REMARK  6 active torsions:
REMARK  status: ('A' for Active; 'I' for Inactive)
REMARK    1  A    between atoms: C_3  and  N_4 
REMARK       I    between atoms: N_4  and  C_5 
REMARK    2  A    between atoms: C_5  and  C_6 
REMARK    3  A    between atoms: C_6  and  O_7 
REMARK    4  A    between atoms: O_7  and  C_8 
REMARK    5  A    between atoms: C_10  and  N_11 
REMARK       I    between atoms: N_11  and  C_12 
REMARK    6  A    between atoms: C_12  and  C_13 
ROOT
HETATM    1  C   UNL     1      -2.557   5.648 -34.388  1.00  0.00     0.278 C 
ENDROOT
BRANCH   1   2
HETATM    2  C   UNL     1      -1.938   6.681 -33.440  1.00  0.00     0.246 C 
HETATM    3  N   UNL     1      -1.866   6.227 -32.135  1.00  0.00    -0.323 N 
HETATM    4  H   UNL     1      -1.972   5.217 -32.077  1.00  0.00     0.169 HD
HETATM    5  O   UNL     1      -1.550   7.762 -33.871  1.00  0.00    -0.271 OA
BRANCH   3   6
HETATM    6  C   UNL     1      -1.338   6.874 -30.989  1.00  0.00     0.065 A 
HETATM    7  C   UNL     1      -1.945   7.943 -30.308  1.00  0.00    -0.031 A 
HETATM    8  C   UNL     1      -3.316   8.491 -30.590  1.00  0.00     0.050 C 
HETATM    9  C   UNL     1      -1.250   8.540 -29.239  1.00  0.00     0.035 A 
HETATM   10  C   UNL     1      -0.031   8.026 -28.823  1.00  0.00     0.031 A 
HETATM   11  N   UNL     1       0.525   6.947 -29.405  1.00  0.00    -0.256 NA
HETATM   12  C   UNL     1       0.715   8.665 -27.692  1.00  0.00     0.070 C 
HETATM   13  C   UNL     1      -0.121   6.386 -30.461  1.00  0.00     0.058 A 
HETATM   14  C   UNL     1       0.589   5.197 -31.052  1.00  0.00     0.073 C 
ENDBRANCH   3   6
ENDBRANCH   1   2
BRANCH   1  15
HETATM   15  O   UNL     1      -3.927   5.920 -34.682  1.00  0.00    -0.342 OA
BRANCH  15  16
HETATM   16  C   UNL     1      -4.850   5.368 -33.838  1.00  0.00     0.071 A 
HETATM   17  C   UNL     1      -5.037   3.987 -33.969  1.00  0.00     0.066 A 
HETATM   18  C   UNL     1      -5.923   3.305 -33.133  1.00  0.00     0.037 A 
HETATM   19  C   UNL     1      -6.606   4.026 -32.145  1.00  0.00     0.029 A 
HETATM   20  C   UNL     1      -6.402   5.400 -31.996  1.00  0.00     0.005 A 
HETATM   21  C   UNL     1      -5.518   6.073 -32.838  1.00  0.00     0.037 A 
BRANCH  18  22
HETATM   22  N   UNL     1      -6.179   1.920 -33.212  1.00  0.00    -0.327 N 
HETATM   23  C   UNL     1      -7.268   1.299 -33.789  1.00  0.00     0.226 C 
HETATM   24  O   UNL     1      -8.206   1.842 -34.353  1.00  0.00    -0.273 OA
HETATM   25  H   UNL     1      -5.477   1.321 -32.809  1.00  0.00     0.169 HD
BRANCH  23  26
HETATM   26  C   UNL     1      -7.282  -0.195 -33.717  1.00  0.00     0.078 A 
HETATM   27  C   UNL     1      -6.741  -1.000 -34.878  1.00  0.00     0.015 A 
HETATM   28  C   UNL     1      -6.086  -1.097 -33.532  1.00  0.00     0.015 A 
ENDBRANCH  23  26
ENDBRANCH  18  22
ENDBRANCH  15  16
ENDBRANCH   1  15
TORSDOF 6
ENDMDL
MODEL 9
REMARK VINA RESULT:      -7.6      3.805      5.454
REMARK  6 active torsions:
REMARK  status: ('A' for Active; 'I' for Inactive)
REMARK    1  A    between atoms: C_3  and  N_4 
REMARK       I    between atoms: N_4  and  C_5 
REMARK    2  A    between atoms: C_5  and  C_6 
REMARK    3  A    between atoms: C_6  and  O_7 
REMARK    4  A    between atoms: O_7  and  C_8 
REMARK    5  A    between atoms: C_10  and  N_11 
REMARK       I    between atoms: N_11  and  C_12 
REMARK    6  A    between atoms: C_12  and  C_13 
ROOT
HETATM    1  C   UNL     1      -7.066   3.193 -33.741  1.00  0.00     0.278 C 
ENDROOT
BRANCH   1   2
HETATM    2  C   UNL     1      -8.581   3.259 -33.514  1.00  0.00     0.246 C 
HETATM    3  N   UNL     1      -9.267   2.298 -34.235  1.00  0.00    -0.323 N 
HETATM    4  H   UNL     1      -8.654   1.558 -34.564  1.00  0.00     0.169 HD
HETATM    5  O   UNL     1      -9.055   4.085 -32.742  1.00  0.00    -0.271 OA
BRANCH   3   6
HETATM    6  C   UNL     1     -10.659   2.028 -34.268  1.00  0.00     0.065 A 
HETATM    7  C   UNL     1     -11.623   2.804 -34.933  1.00  0.00    -0.031 A 
HETATM    8  C   UNL     1     -11.331   3.970 -35.836  1.00  0.00     0.050 C 
HETATM    9  C   UNL     1     -12.979   2.455 -34.795  1.00  0.00     0.035 A 
HETATM   10  C   UNL     1     -13.341   1.322 -34.082  1.00  0.00     0.031 A 
HETATM   11  N   UNL     1     -12.427   0.514 -33.513  1.00  0.00    -0.256 NA
HETATM   12  C   UNL     1     -14.785   0.952 -33.926  1.00  0.00     0.070 C 
HETATM   13  C   UNL     1     -11.117   0.863 -33.610  1.00  0.00     0.058 A 
HETATM   14  C   UNL     1     -10.177  -0.093 -32.926  1.00  0.00     0.073 C 
ENDBRANCH   3   6
ENDBRANCH   1   2
BRANCH   1  15
HETATM   15  O   UNL     1      -6.578   1.854 -33.814  1.00  0.00    -0.342 OA
BRANCH  15  16
HETATM   16  C   UNL     1      -5.501   1.556 -33.025  1.00  0.00     0.071 A 
HETATM   17  C   UNL     1      -4.775   2.656 -32.556  1.00  0.00     0.066 A 
HETATM   18  C   UNL     1      -3.680   2.480 -31.708  1.00  0.00     0.037 A 
HETATM   19  C   UNL     1      -3.335   1.179 -31.318  1.00  0.00     0.029 A 
HETATM   20  C   UNL     1      -4.074   0.080 -31.764  1.00  0.00     0.005 A 
HETATM   21  C   UNL     1      -5.164   0.267 -32.613  1.00  0.00     0.037 A 
BRANCH  18  22
HETATM   22  N   UNL     1      -2.888   3.534 -31.207  1.00  0.00    -0.327 N 
HETATM   23  C   UNL     1      -2.106   4.412 -31.927  1.00  0.00     0.226 C 
HETATM   24  O   UNL     1      -1.969   4.444 -33.142  1.00  0.00    -0.273 OA
HETATM   25  H   UNL     1      -2.911   3.661 -30.208  1.00  0.00     0.169 HD
BRANCH  23  26
HETATM   26  C   UNL     1      -1.360   5.432 -31.125  1.00  0.00     0.078 A 
HETATM   27  C   UNL     1       0.116   5.235 -30.862  1.00  0.00     0.015 A 
HETATM   28  C   UNL     1      -0.350   6.424 -31.650  1.00  0.00     0.015 A 
ENDBRANCH  23  26
ENDBRANCH  18  22
ENDBRANCH  15  16
ENDBRANCH   1  15
TORSDOF 6
ENDMDL
MODEL 10
REMARK VINA RESULT:      -7.6      2.171      9.591
REMARK  6 active torsions:
REMARK  status: ('A' for Active; 'I' for Inactive)
REMARK    1  A    between atoms: C_3  and  N_4 
REMARK       I    between atoms: N_4  and  C_5 
REMARK    2  A    between atoms: C_5  and  C_6 
REMARK    3  A    between atoms: C_6  and  O_7 
REMARK    4  A    between atoms: O_7  and  C_8 
REMARK    5  A    between atoms: C_10  and  N_11 
REMARK       I    between atoms: N_11  and  C_12 
REMARK    6  A    between atoms: C_12  and  C_13 
ROOT
HETATM    1  C   UNL     1      -4.045   4.828 -31.776  1.00  0.00     0.278 C 
ENDROOT
BRANCH   1   2
HETATM    2  C   UNL     1      -3.200   6.036 -31.355  1.00  0.00     0.246 C 
HETATM    3  N   UNL     1      -2.397   5.766 -30.261  1.00  0.00    -0.323 N 
HETATM    4  H   UNL     1      -2.296   4.768 -30.100  1.00  0.00     0.169 HD
HETATM    5  O   UNL     1      -3.266   7.087 -31.984  1.00  0.00    -0.271 OA
BRANCH   3   6
HETATM    6  C   UNL     1      -1.467   6.610 -29.603  1.00  0.00     0.065 A 
HETATM    7  C   UNL     1      -0.145   6.844 -30.017  1.00  0.00    -0.031 A 
HETATM    8  C   UNL     1       0.466   6.351 -31.300  1.00  0.00     0.050 C 
HETATM    9  C   UNL     1       0.685   7.638 -29.204  1.00  0.00     0.035 A 
HETATM   10  C   UNL     1       0.178   8.238 -28.062  1.00  0.00     0.031 A 
HETATM   11  N   UNL     1      -1.111   8.101 -27.695  1.00  0.00    -0.256 NA
HETATM   12  C   UNL     1       1.060   9.076 -27.189  1.00  0.00     0.070 C 
HETATM   13  C   UNL     1      -1.911   7.307 -28.455  1.00  0.00     0.058 A 
HETATM   14  C   UNL     1      -3.325   7.203 -27.952  1.00  0.00     0.073 C 
ENDBRANCH   3   6
ENDBRANCH   1   2
BRANCH   1  15
HETATM   15  O   UNL     1      -3.477   3.587 -31.361  1.00  0.00    -0.342 OA
BRANCH  15  16
HETATM   16  C   UNL     1      -4.339   2.530 -31.256  1.00  0.00     0.071 A 
HETATM   17  C   UNL     1      -4.231   1.562 -32.261  1.00  0.00     0.066 A 
HETATM   18  C   UNL     1      -5.029   0.418 -32.237  1.00  0.00     0.037 A 
HETATM   19  C   UNL     1      -5.926   0.245 -31.175  1.00  0.00     0.029 A 
HETATM   20  C   UNL     1      -6.018   1.197 -30.157  1.00  0.00     0.005 A 
HETATM   21  C   UNL     1      -5.219   2.339 -30.191  1.00  0.00     0.037 A 
BRANCH  18  22
HETATM   22  N   UNL     1      -4.992  -0.594 -33.220  1.00  0.00    -0.327 N 
HETATM   23  C   UNL     1      -4.247  -1.754 -33.203  1.00  0.00     0.226 C 
HETATM   24  O   UNL     1      -3.488  -2.125 -32.319  1.00  0.00    -0.273 OA
HETATM   25  H   UNL     1      -5.591  -0.451 -34.018  1.00  0.00     0.169 HD
BRANCH  23  26
HETATM   26  C   UNL     1      -4.400  -2.647 -34.394  1.00  0.00     0.078 A 
HETATM   27  C   UNL     1      -5.176  -3.939 -34.258  1.00  0.00     0.015 A 
HETATM   28  C   UNL     1      -5.661  -2.870 -35.194  1.00  0.00     0.015 A 
ENDBRANCH  23  26
ENDBRANCH  18  22
ENDBRANCH  15  16
ENDBRANCH   1  15
TORSDOF 6
ENDMDL
