MODEL 1
REMARK VINA RESULT:      -8.3      0.000      0.000
REMARK  4 active torsions:
REMARK  status: ('A' for Active; 'I' for Inactive)
REMARK    1  A    between atoms: C_2  and  C_3 
REMARK    2  A    between atoms: C_5  and  C_6 
REMARK       I    between atoms: C_6  and  N_7 
REMARK    3  A    between atoms: N_7  and  C_8 
REMARK    4  A    between atoms: C_10  and  C_11 
ROOT
HETATM    1  C   UNL     1      -7.658   0.033 -34.108  1.00  0.00     0.035 A 
HETATM    2  C   UNL     1      -7.313  -1.291 -34.400  1.00  0.00     0.042 A 
HETATM    3  C   UNL     1      -6.010  -1.769 -34.174  1.00  0.00    -0.021 A 
HETATM    4  C   UNL     1      -5.051  -0.891 -33.653  1.00  0.00     0.012 A 
HETATM    5  C   UNL     1      -5.387   0.430 -33.356  1.00  0.00     0.003 A 
HETATM    6  C   UNL     1      -6.685   0.886 -33.577  1.00  0.00     0.029 A 
ENDROOT
BRANCH   1   7
HETATM    7  N   UNL     1      -8.946   0.570 -34.297  1.00  0.00    -0.321 N 
HETATM    8  C   UNL     1     -10.038   0.515 -33.447  1.00  0.00     0.280 C 
HETATM    9  O   UNL     1     -10.068  -0.071 -32.369  1.00  0.00    -0.265 OA
HETATM   10  H   UNL     1      -9.125   1.046 -35.175  1.00  0.00     0.169 HD
BRANCH   8  11
HETATM   11  C   UNL     1     -11.190   1.229 -33.981  1.00  0.00     0.149 A 
HETATM   12  O   UNL     1     -10.999   2.482 -34.508  1.00  0.00    -0.309 OA
HETATM   13  C   UNL     1     -12.215   2.950 -34.901  1.00  0.00     0.054 A 
HETATM   14  C   UNL     1     -13.186   2.006 -34.655  1.00  0.00     0.042 A 
HETATM   15  C   UNL     1     -12.533   0.889 -34.064  1.00  0.00    -0.020 A 
HETATM   16  C   UNL     1     -13.168  -0.377 -33.619  1.00  0.00     0.051 C 
BRANCH  13  17
HETATM   17  C   UNL     1     -12.247   4.318 -35.476  1.00  0.00     0.060 C 
HETATM   18  C   UNL     1     -10.904   5.015 -35.340  1.00  0.00     0.012 C 
ENDBRANCH  13  17
ENDBRANCH   8  11
ENDBRANCH   1   7
BRANCH   3  19
HETATM   19  C   UNL     1      -5.655  -3.152 -34.456  1.00  0.00     0.010 A 
HETATM   20  C   UNL     1      -6.381  -4.183 -35.101  1.00  0.00     0.152 A 
HETATM   21  N   UNL     1      -5.707  -5.334 -35.165  1.00  0.00    -0.187 NA
HETATM   22  N   UNL     1      -4.542  -5.047 -34.565  1.00  0.00    -0.289 N 
HETATM   23  H   UNL     1      -3.843  -5.779 -34.492  1.00  0.00     0.188 HD
HETATM   24  C   UNL     1      -4.463  -3.759 -34.119  1.00  0.00     0.123 A 
ENDBRANCH   3  19
TORSDOF 4
ENDMDL
MODEL 2
REMARK VINA RESULT:      -8.3      1.041      2.140
REMARK  4 active torsions:
REMARK  status: ('A' for Active; 'I' for Inactive)
REMARK    1  A    between atoms: C_2  and  C_3 
REMARK    2  A    between atoms: C_5  and  C_6 
REMARK       I    between atoms: C_6  and  N_7 
REMARK    3  A    between atoms: N_7  and  C_8 
REMARK    4  A    between atoms: C_10  and  C_11 
ROOT
HETATM    1  C   UNL     1      -7.340  -0.144 -33.902  1.00  0.00     0.035 A 
HETATM    2  C   UNL     1      -6.976  -1.465 -34.189  1.00  0.00     0.042 A 
HETATM    3  C   UNL     1      -5.657  -1.914 -33.998  1.00  0.00    -0.021 A 
HETATM    4  C   UNL     1      -4.701  -1.010 -33.518  1.00  0.00     0.012 A 
HETATM    5  C   UNL     1      -5.054   0.308 -33.226  1.00  0.00     0.003 A 
HETATM    6  C   UNL     1      -6.368   0.735 -33.412  1.00  0.00     0.029 A 
ENDROOT
BRANCH   1   7
HETATM    7  N   UNL     1      -8.643   0.364 -34.057  1.00  0.00    -0.321 N 
HETATM    8  C   UNL     1      -9.607   0.580 -33.087  1.00  0.00     0.280 C 
HETATM    9  O   UNL     1      -9.486   0.311 -31.895  1.00  0.00    -0.265 OA
HETATM   10  H   UNL     1      -8.944   0.588 -35.000  1.00  0.00     0.169 HD
BRANCH   8  11
HETATM   11  C   UNL     1     -10.825   1.159 -33.636  1.00  0.00     0.149 A 
HETATM   12  O   UNL     1     -11.988   0.432 -33.564  1.00  0.00    -0.309 OA
HETATM   13  C   UNL     1     -12.964   1.161 -34.170  1.00  0.00     0.054 A 
HETATM   14  C   UNL     1     -12.452   2.360 -34.612  1.00  0.00     0.042 A 
HETATM   15  C   UNL     1     -11.071   2.369 -34.269  1.00  0.00    -0.020 A 
HETATM   16  C   UNL     1     -10.096   3.454 -34.543  1.00  0.00     0.051 C 
BRANCH  13  17
HETATM   17  C   UNL     1     -14.311   0.543 -34.237  1.00  0.00     0.060 C 
HETATM   18  C   UNL     1     -15.330   1.328 -33.429  1.00  0.00     0.012 C 
ENDBRANCH  13  17
ENDBRANCH   8  11
ENDBRANCH   1   7
BRANCH   3  19
HETATM   19  C   UNL     1      -5.283  -3.293 -34.274  1.00  0.00     0.010 A 
HETATM   20  C   UNL     1      -5.978  -4.325 -34.949  1.00  0.00     0.152 A 
HETATM   21  N   UNL     1      -5.294  -5.472 -34.995  1.00  0.00    -0.187 NA
HETATM   22  N   UNL     1      -4.153  -5.179 -34.353  1.00  0.00    -0.289 N 
HETATM   23  H   UNL     1      -3.452  -5.907 -34.259  1.00  0.00     0.188 HD
HETATM   24  C   UNL     1      -4.099  -3.894 -33.898  1.00  0.00     0.123 A 
ENDBRANCH   3  19
TORSDOF 4
ENDMDL
MODEL 3
REMARK VINA RESULT:      -8.1      2.669      7.635
REMARK  4 active torsions:
REMARK  status: ('A' for Active; 'I' for Inactive)
REMARK    1  A    between atoms: C_2  and  C_3 
REMARK    2  A    between atoms: C_5  and  C_6 
REMARK       I    between atoms: C_6  and  N_7 
REMARK    3  A    between atoms: N_7  and  C_8 
REMARK    4  A    between atoms: C_10  and  C_11 
ROOT
HETATM    1  C   UNL     1      -8.883   0.923 -33.167  1.00  0.00     0.035 A 
HETATM    2  C   UNL     1     -10.171   0.483 -33.489  1.00  0.00     0.042 A 
HETATM    3  C   UNL     1     -11.268   1.363 -33.465  1.00  0.00    -0.021 A 
HETATM    4  C   UNL     1     -11.051   2.699 -33.105  1.00  0.00     0.012 A 
HETATM    5  C   UNL     1      -9.769   3.149 -32.785  1.00  0.00     0.003 A 
HETATM    6  C   UNL     1      -8.692   2.265 -32.822  1.00  0.00     0.029 A 
ENDROOT
BRANCH   1   7
HETATM    7  N   UNL     1      -7.742   0.099 -33.185  1.00  0.00    -0.321 N 
HETATM    8  C   UNL     1      -6.900  -0.188 -34.247  1.00  0.00     0.280 C 
HETATM    9  O   UNL     1      -7.047   0.215 -35.397  1.00  0.00    -0.265 OA
HETATM   10  H   UNL     1      -7.499  -0.375 -32.322  1.00  0.00     0.169 HD
BRANCH   8  11
HETATM   11  C   UNL     1      -5.797  -1.057 -33.859  1.00  0.00     0.149 A 
HETATM   12  O   UNL     1      -4.863  -0.576 -32.974  1.00  0.00    -0.309 OA
HETATM   13  C   UNL     1      -3.926  -1.547 -32.801  1.00  0.00     0.054 A 
HETATM   14  C   UNL     1      -4.255  -2.657 -33.545  1.00  0.00     0.042 A 
HETATM   15  C   UNL     1      -5.464  -2.351 -34.229  1.00  0.00    -0.020 A 
HETATM   16  C   UNL     1      -6.207  -3.240 -35.158  1.00  0.00     0.051 C 
BRANCH  13  17
HETATM   17  C   UNL     1      -2.793  -1.224 -31.899  1.00  0.00     0.060 C 
HETATM   18  C   UNL     1      -2.995   0.110 -31.201  1.00  0.00     0.012 C 
ENDBRANCH  13  17
ENDBRANCH   8  11
ENDBRANCH   1   7
BRANCH   3  19
HETATM   19  C   UNL     1     -12.604   0.912 -33.822  1.00  0.00     0.010 A 
HETATM   20  C   UNL     1     -13.653   1.571 -34.509  1.00  0.00     0.152 A 
HETATM   21  N   UNL     1     -14.746   0.816 -34.642  1.00  0.00    -0.187 NA
HETATM   22  N   UNL     1     -14.403  -0.336 -34.044  1.00  0.00    -0.289 N 
HETATM   23  H   UNL     1     -15.084  -1.088 -34.019  1.00  0.00     0.188 HD
HETATM   24  C   UNL     1     -13.137  -0.328 -33.533  1.00  0.00     0.123 A 
ENDBRANCH   3  19
TORSDOF 4
ENDMDL
MODEL 4
REMARK VINA RESULT:      -7.9      5.301      8.114
REMARK  4 active torsions:
REMARK  status: ('A' for Active; 'I' for Inactive)
REMARK    1  A    between atoms: C_2  and  C_3 
REMARK    2  A    between atoms: C_5  and  C_6 
REMARK       I    between atoms: C_6  and  N_7 
REMARK    3  A    between atoms: N_7  and  C_8 
REMARK    4  A    between atoms: C_10  and  C_11 
ROOT
HETATM    1  C   UNL     1      -4.284   1.443 -31.750  1.00  0.00     0.035 A 
HETATM    2  C   UNL     1      -4.467   0.427 -32.694  1.00  0.00     0.042 A 
HETATM    3  C   UNL     1      -5.485  -0.532 -32.541  1.00  0.00    -0.021 A 
HETATM    4  C   UNL     1      -6.317  -0.458 -31.417  1.00  0.00     0.012 A 
HETATM    5  C   UNL     1      -6.144   0.554 -30.472  1.00  0.00     0.003 A 
HETATM    6  C   UNL     1      -5.136   1.502 -30.642  1.00  0.00     0.029 A 
ENDROOT
BRANCH   1   7
HETATM    7  N   UNL     1      -3.295   2.440 -31.850  1.00  0.00    -0.321 N 
HETATM    8  C   UNL     1      -3.336   3.629 -32.559  1.00  0.00     0.280 C 
HETATM    9  O   UNL     1      -4.263   3.995 -33.276  1.00  0.00    -0.265 OA
HETATM   10  H   UNL     1      -2.421   2.276 -31.363  1.00  0.00     0.169 HD
BRANCH   8  11
HETATM   11  C   UNL     1      -2.126   4.421 -32.381  1.00  0.00     0.149 A 
HETATM   12  O   UNL     1      -1.558   4.480 -31.132  1.00  0.00    -0.309 OA
HETATM   13  C   UNL     1      -0.476   5.300 -31.213  1.00  0.00     0.054 A 
HETATM   14  C   UNL     1      -0.324   5.753 -32.504  1.00  0.00     0.042 A 
HETATM   15  C   UNL     1      -1.383   5.188 -33.266  1.00  0.00    -0.020 A 
HETATM   16  C   UNL     1      -1.640   5.390 -34.715  1.00  0.00     0.051 C 
BRANCH  13  17
HETATM   17  C   UNL     1       0.275   5.536 -29.956  1.00  0.00     0.060 C 
HETATM   18  C   UNL     1       0.362   7.015 -29.623  1.00  0.00     0.012 C 
ENDBRANCH  13  17
ENDBRANCH   8  11
ENDBRANCH   1   7
BRANCH   3  19
HETATM   19  C   UNL     1      -5.692  -1.576 -33.533  1.00  0.00     0.010 A 
HETATM   20  C   UNL     1      -4.767  -2.401 -34.219  1.00  0.00     0.152 A 
HETATM   21  N   UNL     1      -5.353  -3.249 -35.068  1.00  0.00    -0.187 NA
HETATM   22  N   UNL     1      -6.660  -2.976 -34.928  1.00  0.00    -0.289 N 
HETATM   23  H   UNL     1      -7.326  -3.507 -35.481  1.00  0.00     0.188 HD
HETATM   24  C   UNL     1      -6.915  -1.981 -34.029  1.00  0.00     0.123 A 
ENDBRANCH   3  19
TORSDOF 4
ENDMDL
MODEL 5
REMARK VINA RESULT:      -7.8      4.072      6.519
REMARK  4 active torsions:
REMARK  status: ('A' for Active; 'I' for Inactive)
REMARK    1  A    between atoms: C_2  and  C_3 
REMARK    2  A    between atoms: C_5  and  C_6 
REMARK       I    between atoms: C_6  and  N_7 
REMARK    3  A    between atoms: N_7  and  C_8 
REMARK    4  A    between atoms: C_10  and  C_11 
ROOT
HETATM    1  C   UNL     1      -5.832   0.790 -33.761  1.00  0.00     0.035 A 
HETATM    2  C   UNL     1      -5.364  -0.528 -33.791  1.00  0.00     0.042 A 
HETATM    3  C   UNL     1      -6.105  -1.548 -34.415  1.00  0.00    -0.021 A 
HETATM    4  C   UNL     1      -7.332  -1.224 -35.006  1.00  0.00     0.012 A 
HETATM    5  C   UNL     1      -7.805   0.088 -34.985  1.00  0.00     0.003 A 
HETATM    6  C   UNL     1      -7.055   1.090 -34.370  1.00  0.00     0.029 A 
ENDROOT
BRANCH   1   7
HETATM    7  N   UNL     1      -5.134   1.859 -33.168  1.00  0.00    -0.321 N 
HETATM    8  C   UNL     1      -4.104   1.812 -32.244  1.00  0.00     0.280 C 
HETATM    9  O   UNL     1      -3.646   0.788 -31.745  1.00  0.00    -0.265 OA
HETATM   10  H   UNL     1      -5.424   2.798 -33.421  1.00  0.00     0.169 HD
BRANCH   8  11
HETATM   11  C   UNL     1      -3.610   3.138 -31.897  1.00  0.00     0.149 A 
HETATM   12  O   UNL     1      -2.377   3.521 -32.364  1.00  0.00    -0.309 OA
HETATM   13  C   UNL     1      -2.127   4.768 -31.880  1.00  0.00     0.054 A 
HETATM   14  C   UNL     1      -3.192   5.204 -31.126  1.00  0.00     0.042 A 
HETATM   15  C   UNL     1      -4.157   4.159 -31.134  1.00  0.00    -0.020 A 
HETATM   16  C   UNL     1      -5.477   4.164 -30.453  1.00  0.00     0.051 C 
BRANCH  13  17
HETATM   17  C   UNL     1      -0.818   5.369 -32.238  1.00  0.00     0.060 C 
HETATM   18  C   UNL     1      -0.988   6.705 -32.941  1.00  0.00     0.012 C 
ENDBRANCH  13  17
ENDBRANCH   8  11
ENDBRANCH   1   7
BRANCH   3  19
HETATM   19  C   UNL     1      -5.609  -2.915 -34.466  1.00  0.00     0.010 A 
HETATM   20  C   UNL     1      -6.221  -4.107 -34.926  1.00  0.00     0.152 A 
HETATM   21  N   UNL     1      -5.433  -5.179 -34.805  1.00  0.00    -0.187 NA
HETATM   22  N   UNL     1      -4.309  -4.680 -34.270  1.00  0.00    -0.289 N 
HETATM   23  H   UNL     1      -3.539  -5.315 -34.083  1.00  0.00     0.188 HD
HETATM   24  C   UNL     1      -4.364  -3.335 -34.043  1.00  0.00     0.123 A 
ENDBRANCH   3  19
TORSDOF 4
ENDMDL
MODEL 6
REMARK VINA RESULT:      -7.7      2.225      3.086
REMARK  4 active torsions:
REMARK  status: ('A' for Active; 'I' for Inactive)
REMARK    1  A    between atoms: C_2  and  C_3 
REMARK    2  A    between atoms: C_5  and  C_6 
REMARK       I    between atoms: C_6  and  N_7 
REMARK    3  A    between atoms: N_7  and  C_8 
REMARK    4  A    between atoms: C_10  and  C_11 
ROOT
HETATM    1  C   UNL     1      -7.550  -0.327 -34.127  1.00  0.00     0.035 A 
HETATM    2  C   UNL     1      -6.515   0.063 -33.270  1.00  0.00     0.042 A 
HETATM    3  C   UNL     1      -5.334  -0.694 -33.164  1.00  0.00    -0.021 A 
HETATM    4  C   UNL     1      -5.210  -1.859 -33.931  1.00  0.00     0.012 A 
HETATM    5  C   UNL     1      -6.235  -2.255 -34.790  1.00  0.00     0.003 A 
HETATM    6  C   UNL     1      -7.395  -1.489 -34.891  1.00  0.00     0.029 A 
ENDROOT
BRANCH   1   7
HETATM    7  N   UNL     1      -8.749   0.392 -34.291  1.00  0.00    -0.321 N 
HETATM    8  C   UNL     1      -9.820   0.495 -33.420  1.00  0.00     0.280 C 
HETATM    9  O   UNL     1      -9.915  -0.083 -32.341  1.00  0.00    -0.265 OA
HETATM   10  H   UNL     1      -8.873   0.891 -35.165  1.00  0.00     0.169 HD
BRANCH   8  11
HETATM   11  C   UNL     1     -10.866   1.370 -33.931  1.00  0.00     0.149 A 
HETATM   12  O   UNL     1     -10.513   2.616 -34.391  1.00  0.00    -0.309 OA
HETATM   13  C   UNL     1     -11.655   3.248 -34.775  1.00  0.00     0.054 A 
HETATM   14  C   UNL     1     -12.738   2.420 -34.592  1.00  0.00     0.042 A 
HETATM   15  C   UNL     1     -12.238   1.202 -34.050  1.00  0.00    -0.020 A 
HETATM   16  C   UNL     1     -13.032   0.004 -33.680  1.00  0.00     0.051 C 
BRANCH  13  17
HETATM   17  C   UNL     1     -11.508   4.636 -35.279  1.00  0.00     0.060 C 
HETATM   18  C   UNL     1     -12.848   5.234 -35.673  1.00  0.00     0.012 C 
ENDBRANCH  13  17
ENDBRANCH   8  11
ENDBRANCH   1   7
BRANCH   3  19
HETATM   19  C   UNL     1      -4.247  -0.277 -32.291  1.00  0.00     0.010 A 
HETATM   20  C   UNL     1      -3.915   0.996 -31.766  1.00  0.00     0.152 A 
HETATM   21  N   UNL     1      -2.826   0.975 -30.994  1.00  0.00    -0.187 NA
HETATM   22  N   UNL     1      -2.455  -0.314 -31.015  1.00  0.00    -0.289 N 
HETATM   23  H   UNL     1      -1.634  -0.589 -30.485  1.00  0.00     0.188 HD
HETATM   24  C   UNL     1      -3.267  -1.102 -31.779  1.00  0.00     0.123 A 
ENDBRANCH   3  19
TORSDOF 4
ENDMDL
MODEL 7
REMARK VINA RESULT:      -7.7      2.810      7.799
REMARK  4 active torsions:
REMARK  status: ('A' for Active; 'I' for Inactive)
REMARK    1  A    between atoms: C_2  and  C_3 
REMARK    2  A    between atoms: C_5  and  C_6 
REMARK       I    between atoms: C_6  and  N_7 
REMARK    3  A    between atoms: N_7  and  C_8 
REMARK    4  A    between atoms: C_10  and  C_11 
ROOT
HETATM    1  C   UNL     1      -9.250   1.642 -33.234  1.00  0.00     0.035 A 
HETATM    2  C   UNL     1     -10.565   1.244 -33.498  1.00  0.00     0.042 A 
HETATM    3  C   UNL     1     -11.641   2.136 -33.340  1.00  0.00    -0.021 A 
HETATM    4  C   UNL     1     -11.375   3.441 -32.905  1.00  0.00     0.012 A 
HETATM    5  C   UNL     1     -10.067   3.848 -32.642  1.00  0.00     0.003 A 
HETATM    6  C   UNL     1      -9.011   2.954 -32.812  1.00  0.00     0.029 A 
ENDROOT
BRANCH   1   7
HETATM    7  N   UNL     1      -8.130   0.804 -33.385  1.00  0.00    -0.321 N 
HETATM    8  C   UNL     1      -7.394   0.159 -32.406  1.00  0.00     0.280 C 
HETATM    9  O   UNL     1      -7.586   0.255 -31.197  1.00  0.00    -0.265 OA
HETATM   10  H   UNL     1      -7.786   0.657 -34.329  1.00  0.00     0.169 HD
BRANCH   8  11
HETATM   11  C   UNL     1      -6.324  -0.657 -32.964  1.00  0.00     0.149 A 
HETATM   12  O   UNL     1      -6.648  -1.618 -33.891  1.00  0.00    -0.309 OA
HETATM   13  C   UNL     1      -5.498  -2.263 -34.228  1.00  0.00     0.054 A 
HETATM   14  C   UNL     1      -4.433  -1.716 -33.550  1.00  0.00     0.042 A 
HETATM   15  C   UNL     1      -4.957  -0.675 -32.732  1.00  0.00    -0.020 A 
HETATM   16  C   UNL     1      -4.189   0.203 -31.814  1.00  0.00     0.051 C 
BRANCH  13  17
HETATM   17  C   UNL     1      -5.622  -3.375 -35.203  1.00  0.00     0.060 C 
HETATM   18  C   UNL     1      -6.781  -4.295 -34.860  1.00  0.00     0.012 C 
ENDBRANCH  13  17
ENDBRANCH   8  11
ENDBRANCH   1   7
BRANCH   3  19
HETATM   19  C   UNL     1     -13.007   1.731 -33.636  1.00  0.00     0.010 A 
HETATM   20  C   UNL     1     -13.513   0.776 -34.552  1.00  0.00     0.152 A 
HETATM   21  N   UNL     1     -14.846   0.692 -34.534  1.00  0.00    -0.187 NA
HETATM   22  N   UNL     1     -15.202   1.590 -33.603  1.00  0.00    -0.289 N 
HETATM   23  H   UNL     1     -16.190   1.709 -33.401  1.00  0.00     0.188 HD
HETATM   24  C   UNL     1     -14.143   2.241 -33.041  1.00  0.00     0.123 A 
ENDBRANCH   3  19
TORSDOF 4
ENDMDL
MODEL 8
REMARK VINA RESULT:      -7.6      2.443      3.778
REMARK  4 active torsions:
REMARK  status: ('A' for Active; 'I' for Inactive)
REMARK    1  A    between atoms: C_2  and  C_3 
REMARK    2  A    between atoms: C_5  and  C_6 
REMARK       I    between atoms: C_6  and  N_7 
REMARK    3  A    between atoms: N_7  and  C_8 
REMARK    4  A    between atoms: C_10  and  C_11 
ROOT
HETATM    1  C   UNL     1      -7.449  -0.662 -33.984  1.00  0.00     0.035 A 
HETATM    2  C   UNL     1      -6.399  -0.286 -33.139  1.00  0.00     0.042 A 
HETATM    3  C   UNL     1      -5.171  -0.971 -33.155  1.00  0.00    -0.021 A 
HETATM    4  C   UNL     1      -5.013  -2.050 -34.035  1.00  0.00     0.012 A 
HETATM    5  C   UNL     1      -6.053  -2.430 -34.885  1.00  0.00     0.003 A 
HETATM    6  C   UNL     1      -7.261  -1.735 -34.862  1.00  0.00     0.029 A 
ENDROOT
BRANCH   1   7
HETATM    7  N   UNL     1      -8.696  -0.011 -34.027  1.00  0.00    -0.321 N 
HETATM    8  C   UNL     1      -8.959   1.344 -34.140  1.00  0.00     0.280 C 
HETATM    9  O   UNL     1      -8.111   2.230 -34.180  1.00  0.00    -0.265 OA
HETATM   10  H   UNL     1      -9.524  -0.591 -33.944  1.00  0.00     0.169 HD
BRANCH   8  11
HETATM   11  C   UNL     1     -10.387   1.627 -34.192  1.00  0.00     0.149 A 
HETATM   12  O   UNL     1     -11.266   0.645 -33.805  1.00  0.00    -0.309 OA
HETATM   13  C   UNL     1     -12.525   1.131 -33.976  1.00  0.00     0.054 A 
HETATM   14  C   UNL     1     -12.471   2.423 -34.447  1.00  0.00     0.042 A 
HETATM   15  C   UNL     1     -11.094   2.754 -34.586  1.00  0.00    -0.020 A 
HETATM   16  C   UNL     1     -10.535   4.043 -35.066  1.00  0.00     0.051 C 
BRANCH  13  17
HETATM   17  C   UNL     1     -13.642   0.213 -33.647  1.00  0.00     0.060 C 
HETATM   18  C   UNL     1     -14.961   0.706 -34.219  1.00  0.00     0.012 C 
ENDBRANCH  13  17
ENDBRANCH   8  11
ENDBRANCH   1   7
BRANCH   3  19
HETATM   19  C   UNL     1      -4.070  -0.567 -32.293  1.00  0.00     0.010 A 
HETATM   20  C   UNL     1      -3.774   0.680 -31.691  1.00  0.00     0.152 A 
HETATM   21  N   UNL     1      -2.655   0.654 -30.961  1.00  0.00    -0.187 NA
HETATM   22  N   UNL     1      -2.230  -0.612 -31.088  1.00  0.00    -0.289 N 
HETATM   23  H   UNL     1      -1.378  -0.886 -30.608  1.00  0.00     0.188 HD
HETATM   24  C   UNL     1      -3.036  -1.381 -31.877  1.00  0.00     0.123 A 
ENDBRANCH   3  19
TORSDOF 4
ENDMDL
MODEL 9
REMARK VINA RESULT:      -7.6      6.457      9.053
REMARK  4 active torsions:
REMARK  status: ('A' for Active; 'I' for Inactive)
REMARK    1  A    between atoms: C_2  and  C_3 
REMARK    2  A    between atoms: C_5  and  C_6 
REMARK       I    between atoms: C_6  and  N_7 
REMARK    3  A    between atoms: N_7  and  C_8 
REMARK    4  A    between atoms: C_10  and  C_11 
ROOT
HETATM    1  C   UNL     1      -2.655   3.906 -32.552  1.00  0.00     0.035 A 
HETATM    2  C   UNL     1      -2.042   4.420 -31.404  1.00  0.00     0.042 A 
HETATM    3  C   UNL     1      -1.111   5.471 -31.485  1.00  0.00    -0.021 A 
HETATM    4  C   UNL     1      -0.799   5.998 -32.745  1.00  0.00     0.012 A 
HETATM    5  C   UNL     1      -1.408   5.494 -33.895  1.00  0.00     0.003 A 
HETATM    6  C   UNL     1      -2.335   4.458 -33.796  1.00  0.00     0.029 A 
ENDROOT
BRANCH   1   7
HETATM    7  N   UNL     1      -3.604   2.866 -32.538  1.00  0.00    -0.321 N 
HETATM    8  C   UNL     1      -3.579   1.683 -31.819  1.00  0.00     0.280 C 
HETATM    9  O   UNL     1      -2.666   1.320 -31.083  1.00  0.00    -0.265 OA
HETATM   10  H   UNL     1      -4.411   2.968 -33.144  1.00  0.00     0.169 HD
BRANCH   8  11
HETATM   11  C   UNL     1      -4.771   0.875 -32.042  1.00  0.00     0.149 A 
HETATM   12  O   UNL     1      -5.034   0.430 -33.314  1.00  0.00    -0.309 OA
HETATM   13  C   UNL     1      -6.205  -0.261 -33.272  1.00  0.00     0.054 A 
HETATM   14  C   UNL     1      -6.690  -0.289 -31.984  1.00  0.00     0.042 A 
HETATM   15  C   UNL     1      -5.768   0.440 -31.181  1.00  0.00    -0.020 A 
HETATM   16  C   UNL     1      -5.866   0.688 -29.721  1.00  0.00     0.051 C 
BRANCH  13  17
HETATM   17  C   UNL     1      -6.700  -0.808 -34.559  1.00  0.00     0.060 C 
HETATM   18  C   UNL     1      -6.776  -2.325 -34.531  1.00  0.00     0.012 C 
ENDBRANCH  13  17
ENDBRANCH   8  11
ENDBRANCH   1   7
BRANCH   3  19
HETATM   19  C   UNL     1      -0.490   6.022 -30.291  1.00  0.00     0.010 A 
HETATM   20  C   UNL     1      -0.580   7.311 -29.709  1.00  0.00     0.152 A 
HETATM   21  N   UNL     1       0.152   7.434 -28.598  1.00  0.00    -0.187 NA
HETATM   22  N   UNL     1       0.713   6.223 -28.459  1.00  0.00    -0.289 N 
HETATM   23  H   UNL     1       1.325   6.063 -27.665  1.00  0.00     0.188 HD
HETATM   24  C   UNL     1       0.366   5.346 -29.446  1.00  0.00     0.123 A 
ENDBRANCH   3  19
TORSDOF 4
ENDMDL
MODEL 10
REMARK VINA RESULT:      -7.5      5.033      8.425
REMARK  4 active torsions:
REMARK  status: ('A' for Active; 'I' for Inactive)
REMARK    1  A    between atoms: C_2  and  C_3 
REMARK    2  A    between atoms: C_5  and  C_6 
REMARK       I    between atoms: C_6  and  N_7 
REMARK    3  A    between atoms: N_7  and  C_8 
REMARK    4  A    between atoms: C_10  and  C_11 
ROOT
HETATM    1  C   UNL     1      -4.466   1.280 -32.630  1.00  0.00     0.035 A 
HETATM    2  C   UNL     1      -5.846   1.434 -32.804  1.00  0.00     0.042 A 
HETATM    3  C   UNL     1      -6.712   0.327 -32.762  1.00  0.00    -0.021 A 
HETATM    4  C   UNL     1      -6.168  -0.946 -32.548  1.00  0.00     0.012 A 
HETATM    5  C   UNL     1      -4.794  -1.110 -32.370  1.00  0.00     0.003 A 
HETATM    6  C   UNL     1      -3.950  -0.001 -32.406  1.00  0.00     0.029 A 
ENDROOT
BRANCH   1   7
HETATM    7  N   UNL     1      -3.547   2.346 -32.646  1.00  0.00    -0.321 N 
HETATM    8  C   UNL     1      -3.482   3.443 -31.804  1.00  0.00     0.280 C 
HETATM    9  O   UNL     1      -4.273   3.689 -30.899  1.00  0.00    -0.265 OA
HETATM   10  H   UNL     1      -2.845   2.341 -33.378  1.00  0.00     0.169 HD
BRANCH   8  11
HETATM   11  C   UNL     1      -2.356   4.314 -32.116  1.00  0.00     0.149 A 
HETATM   12  O   UNL     1      -1.338   4.423 -31.200  1.00  0.00    -0.309 OA
HETATM   13  C   UNL     1      -0.436   5.311 -31.697  1.00  0.00     0.054 A 
HETATM   14  C   UNL     1      -0.845   5.759 -32.932  1.00  0.00     0.042 A 
HETATM   15  C   UNL     1      -2.084   5.118 -33.213  1.00  0.00    -0.020 A 
HETATM   16  C   UNL     1      -2.915   5.287 -34.431  1.00  0.00     0.051 C 
BRANCH  13  17
HETATM   17  C   UNL     1       0.742   5.609 -30.846  1.00  0.00     0.060 C 
HETATM   18  C   UNL     1       0.518   5.175 -29.407  1.00  0.00     0.012 C 
ENDBRANCH  13  17
ENDBRANCH   8  11
ENDBRANCH   1   7
BRANCH   3  19
HETATM   19  C   UNL     1      -8.150   0.488 -32.919  1.00  0.00     0.010 A 
HETATM   20  C   UNL     1      -8.938   0.702 -34.076  1.00  0.00     0.152 A 
HETATM   21  N   UNL     1     -10.243   0.803 -33.807  1.00  0.00    -0.187 NA
HETATM   22  N   UNL     1     -10.299   0.651 -32.475  1.00  0.00    -0.289 N 
HETATM   23  H   UNL     1     -11.207   0.686 -32.023  1.00  0.00     0.188 HD
HETATM   24  C   UNL     1      -9.077   0.465 -31.896  1.00  0.00     0.123 A 
ENDBRANCH   3  19
TORSDOF 4
ENDMDL
