MODEL 1
REMARK VINA RESULT:      -8.2      0.000      0.000
REMARK  9 active torsions:
REMARK  status: ('A' for Active; 'I' for Inactive)
REMARK    1  A    between atoms: O_2  and  C_3 
REMARK    2  A    between atoms: C_9  and  C_13 
REMARK       I    between atoms: C_13  and  N_15 
REMARK    3  A    between atoms: N_15  and  C_16 
REMARK    4  A    between atoms: C_19  and  C_27 
REMARK    5  A    between atoms: C_21  and  O_22 
REMARK    6  A    between atoms: O_22  and  C_23 
REMARK    7  A    between atoms: C_23  and  C_24 
REMARK    8  A    between atoms: C_24  and  C_25 
REMARK    9  A    between atoms: C_25  and  O_26 
ROOT
HETATM    1  C   UNL     1      -8.397   2.711 -33.374  1.00  0.00     0.068 A 
HETATM    2  C   UNL     1      -9.516   3.319 -32.800  1.00  0.00     0.033 A 
HETATM    3  C   UNL     1     -10.794   2.790 -33.004  1.00  0.00     0.015 A 
HETATM    4  C   UNL     1     -10.978   1.645 -33.783  1.00  0.00    -0.020 A 
HETATM    5  C   UNL     1      -9.858   1.039 -34.370  1.00  0.00     0.051 A 
HETATM    6  C   UNL     1      -8.572   1.563 -34.174  1.00  0.00     0.096 A 
ENDROOT
BRANCH   1   7
HETATM    7  N   UNL     1      -7.074   3.179 -33.187  1.00  0.00    -0.324 N 
HETATM    8  C   UNL     1      -6.162   2.779 -32.228  1.00  0.00     0.228 C 
HETATM    9  O   UNL     1      -6.372   1.971 -31.329  1.00  0.00    -0.273 OA
HETATM   10  H   UNL     1      -6.782   3.855 -33.885  1.00  0.00     0.169 HD
BRANCH   8  11
HETATM   11  C   UNL     1      -4.807   3.454 -32.378  1.00  0.00     0.107 C 
HETATM   12  C   UNL     1      -3.840   2.947 -31.314  1.00  0.00     0.190 C 
HETATM   13  O   UNL     1      -2.522   3.465 -31.513  1.00  0.00    -0.350 OA
HETATM   14  C   UNL     1      -2.474   4.825 -31.657  1.00  0.00     0.075 A 
HETATM   15  C   UNL     1      -1.231   5.417 -31.458  1.00  0.00     0.040 A 
HETATM   16  C   UNL     1      -3.580   5.602 -32.019  1.00  0.00    -0.021 A 
HETATM   17  C   UNL     1      -1.088   6.798 -31.593  1.00  0.00     0.039 A 
HETATM   18  C   UNL     1      -2.181   7.593 -31.942  1.00  0.00     0.068 A 
HETATM   19  C   UNL     1      -3.427   6.994 -32.147  1.00  0.00     0.046 A 
HETATM   20  C   UNL     1      -4.928   4.969 -32.239  1.00  0.00     0.058 C 
BRANCH  18  21
HETATM   21  O   UNL     1      -1.903   8.928 -32.043  1.00  0.00    -0.356 OA
HETATM   22  C   UNL     1      -2.361   9.764 -30.988  1.00  0.00     0.210 C 
ENDBRANCH  18  21
ENDBRANCH   8  11
ENDBRANCH   1   7
BRANCH   6  23
HETATM   23  O   UNL     1      -7.419   1.036 -34.717  1.00  0.00    -0.349 OA
BRANCH  23  24
HETATM   24  C   UNL     1      -7.546  -0.188 -35.444  1.00  0.00     0.178 C 
BRANCH  24  25
HETATM   25  C   UNL     1      -6.757  -1.277 -34.727  1.00  0.00     0.053 C 
BRANCH  25  26
HETATM   26  C   UNL     1      -5.748  -0.695 -33.746  1.00  0.00     0.166 C 
BRANCH  26  27
HETATM   27  O   UNL     1      -6.301  -0.690 -32.435  1.00  0.00    -0.401 OA
HETATM   28  H   UNL     1      -5.585  -0.889 -31.809  1.00  0.00     0.209 HD
ENDBRANCH  26  27
ENDBRANCH  25  26
ENDBRANCH  24  25
ENDBRANCH  23  24
ENDBRANCH   6  23
BRANCH   4  29
HETATM   29  C   UNL     1     -12.317   1.109 -33.978  1.00  0.00     0.010 A 
HETATM   30  C   UNL     1     -13.461   1.681 -34.584  1.00  0.00     0.152 A 
HETATM   31  N   UNL     1     -14.523   0.871 -34.549  1.00  0.00    -0.187 NA
HETATM   32  N   UNL     1     -14.068  -0.217 -33.913  1.00  0.00    -0.289 N 
HETATM   33  H   UNL     1     -14.712  -0.986 -33.754  1.00  0.00     0.188 HD
HETATM   34  C   UNL     1     -12.754  -0.127 -33.551  1.00  0.00     0.123 A 
ENDBRANCH   4  29
TORSDOF 9
ENDMDL
MODEL 2
REMARK VINA RESULT:      -8.2      1.932      2.566
REMARK  9 active torsions:
REMARK  status: ('A' for Active; 'I' for Inactive)
REMARK    1  A    between atoms: O_2  and  C_3 
REMARK    2  A    between atoms: C_9  and  C_13 
REMARK       I    between atoms: C_13  and  N_15 
REMARK    3  A    between atoms: N_15  and  C_16 
REMARK    4  A    between atoms: C_19  and  C_27 
REMARK    5  A    between atoms: C_21  and  O_22 
REMARK    6  A    between atoms: O_22  and  C_23 
REMARK    7  A    between atoms: C_23  and  C_24 
REMARK    8  A    between atoms: C_24  and  C_25 
REMARK    9  A    between atoms: C_25  and  O_26 
ROOT
HETATM    1  C   UNL     1      -8.930   3.159 -33.550  1.00  0.00     0.068 A 
HETATM    2  C   UNL     1      -9.893   3.637 -34.440  1.00  0.00     0.033 A 
HETATM    3  C   UNL     1     -11.114   2.971 -34.591  1.00  0.00     0.015 A 
HETATM    4  C   UNL     1     -11.394   1.817 -33.855  1.00  0.00    -0.020 A 
HETATM    5  C   UNL     1     -10.424   1.328 -32.968  1.00  0.00     0.051 A 
HETATM    6  C   UNL     1      -9.196   1.987 -32.812  1.00  0.00     0.096 A 
ENDROOT
BRANCH   1   7
HETATM    7  N   UNL     1      -7.686   3.799 -33.329  1.00  0.00    -0.324 N 
HETATM    8  C   UNL     1      -6.460   3.484 -33.884  1.00  0.00     0.228 C 
HETATM    9  O   UNL     1      -6.233   2.542 -34.638  1.00  0.00    -0.273 OA
HETATM   10  H   UNL     1      -7.751   4.608 -32.719  1.00  0.00     0.169 HD
BRANCH   8  11
HETATM   11  C   UNL     1      -5.355   4.440 -33.466  1.00  0.00     0.107 C 
HETATM   12  C   UNL     1      -4.630   4.983 -34.693  1.00  0.00     0.190 C 
HETATM   13  O   UNL     1      -3.673   5.986 -34.337  1.00  0.00    -0.350 OA
HETATM   14  C   UNL     1      -2.810   5.604 -33.346  1.00  0.00     0.075 A 
HETATM   15  C   UNL     1      -1.640   6.350 -33.233  1.00  0.00     0.040 A 
HETATM   16  C   UNL     1      -3.070   4.554 -32.457  1.00  0.00    -0.021 A 
HETATM   17  C   UNL     1      -0.707   6.036 -32.246  1.00  0.00     0.039 A 
HETATM   18  C   UNL     1      -0.942   4.986 -31.356  1.00  0.00     0.068 A 
HETATM   19  C   UNL     1      -2.120   4.243 -31.469  1.00  0.00     0.046 A 
HETATM   20  C   UNL     1      -4.333   3.744 -32.571  1.00  0.00     0.058 C 
BRANCH  18  21
HETATM   21  O   UNL     1       0.052   4.788 -30.437  1.00  0.00    -0.356 OA
HETATM   22  C   UNL     1       0.185   5.763 -29.411  1.00  0.00     0.210 C 
ENDBRANCH  18  21
ENDBRANCH   8  11
ENDBRANCH   1   7
BRANCH   6  23
HETATM   23  O   UNL     1      -8.185   1.573 -31.970  1.00  0.00    -0.349 OA
BRANCH  23  24
HETATM   24  C   UNL     1      -7.612   0.289 -32.227  1.00  0.00     0.178 C 
BRANCH  24  25
HETATM   25  C   UNL     1      -6.670  -0.073 -31.085  1.00  0.00     0.053 C 
BRANCH  25  26
HETATM   26  C   UNL     1      -6.196   1.158 -30.326  1.00  0.00     0.166 C 
BRANCH  26  27
HETATM   27  O   UNL     1      -5.926   0.813 -28.973  1.00  0.00    -0.401 OA
HETATM   28  H   UNL     1      -5.963  -0.155 -28.900  1.00  0.00     0.209 HD
ENDBRANCH  26  27
ENDBRANCH  25  26
ENDBRANCH  24  25
ENDBRANCH  23  24
ENDBRANCH   6  23
BRANCH   4  29
HETATM   29  C   UNL     1     -12.671   1.142 -34.025  1.00  0.00     0.010 A 
HETATM   30  C   UNL     1     -13.888   1.595 -34.589  1.00  0.00     0.152 A 
HETATM   31  N   UNL     1     -14.854   0.674 -34.542  1.00  0.00    -0.187 NA
HETATM   32  N   UNL     1     -14.266  -0.368 -33.938  1.00  0.00    -0.289 N 
HETATM   33  H   UNL     1     -14.818  -1.204 -33.776  1.00  0.00     0.188 HD
HETATM   34  C   UNL     1     -12.959  -0.141 -33.609  1.00  0.00     0.123 A 
ENDBRANCH   4  29
TORSDOF 9
ENDMDL
MODEL 3
REMARK VINA RESULT:      -8.1     16.642     18.520
REMARK  9 active torsions:
REMARK  status: ('A' for Active; 'I' for Inactive)
REMARK    1  A    between atoms: O_2  and  C_3 
REMARK    2  A    between atoms: C_9  and  C_13 
REMARK       I    between atoms: C_13  and  N_15 
REMARK    3  A    between atoms: N_15  and  C_16 
REMARK    4  A    between atoms: C_19  and  C_27 
REMARK    5  A    between atoms: C_21  and  O_22 
REMARK    6  A    between atoms: O_22  and  C_23 
REMARK    7  A    between atoms: C_23  and  C_24 
REMARK    8  A    between atoms: C_24  and  C_25 
REMARK    9  A    between atoms: C_25  and  O_26 
ROOT
HETATM    1  C   UNL     1      -5.287 -13.441 -39.151  1.00  0.00     0.068 A 
HETATM    2  C   UNL     1      -5.721 -13.261 -40.466  1.00  0.00     0.033 A 
HETATM    3  C   UNL     1      -7.081 -13.100 -40.749  1.00  0.00     0.015 A 
HETATM    4  C   UNL     1      -8.031 -13.114 -39.725  1.00  0.00    -0.020 A 
HETATM    5  C   UNL     1      -7.599 -13.305 -38.405  1.00  0.00     0.051 A 
HETATM    6  C   UNL     1      -6.238 -13.471 -38.110  1.00  0.00     0.096 A 
ENDROOT
BRANCH   1   7
HETATM    7  N   UNL     1      -3.925 -13.583 -38.792  1.00  0.00    -0.324 N 
HETATM    8  C   UNL     1      -3.030 -12.586 -38.450  1.00  0.00     0.228 C 
HETATM    9  O   UNL     1      -3.262 -11.381 -38.450  1.00  0.00    -0.273 OA
HETATM   10  H   UNL     1      -3.617 -14.549 -38.751  1.00  0.00     0.169 HD
BRANCH   8  11
HETATM   11  C   UNL     1      -1.664 -13.124 -38.054  1.00  0.00     0.107 C 
HETATM   12  C   UNL     1      -0.972 -13.755 -39.257  1.00  0.00     0.190 C 
HETATM   13  O   UNL     1       0.367 -14.150 -38.945  1.00  0.00    -0.350 OA
HETATM   14  C   UNL     1       0.472 -14.920 -37.818  1.00  0.00     0.075 A 
HETATM   15  C   UNL     1       1.650 -15.649 -37.684  1.00  0.00     0.040 A 
HETATM   16  C   UNL     1      -0.509 -14.967 -36.821  1.00  0.00    -0.021 A 
HETATM   17  C   UNL     1       1.845 -16.455 -36.562  1.00  0.00     0.039 A 
HETATM   18  C   UNL     1       0.874 -16.525 -35.562  1.00  0.00     0.068 A 
HETATM   19  C   UNL     1      -0.304 -15.786 -35.697  1.00  0.00     0.046 A 
HETATM   20  C   UNL     1      -1.784 -14.179 -36.957  1.00  0.00     0.058 C 
BRANCH  18  21
HETATM   21  O   UNL     1       1.194 -17.349 -34.518  1.00  0.00    -0.356 OA
HETATM   22  C   UNL     1       2.520 -17.858 -34.480  1.00  0.00     0.210 C 
ENDBRANCH  18  21
ENDBRANCH   8  11
ENDBRANCH   1   7
BRANCH   6  23
HETATM   23  O   UNL     1      -5.728 -13.670 -36.844  1.00  0.00    -0.349 OA
BRANCH  23  24
HETATM   24  C   UNL     1      -6.543 -14.400 -35.925  1.00  0.00     0.178 C 
BRANCH  24  25
HETATM   25  C   UNL     1      -6.976 -13.470 -34.797  1.00  0.00     0.053 C 
BRANCH  25  26
HETATM   26  C   UNL     1      -5.852 -13.223 -33.801  1.00  0.00     0.166 C 
BRANCH  26  27
HETATM   27  O   UNL     1      -4.853 -12.404 -34.399  1.00  0.00    -0.401 OA
HETATM   28  H   UNL     1      -5.120 -11.477 -34.283  1.00  0.00     0.209 HD
ENDBRANCH  26  27
ENDBRANCH  25  26
ENDBRANCH  24  25
ENDBRANCH  23  24
ENDBRANCH   6  23
BRANCH   4  29
HETATM   29  C   UNL     1      -9.440 -12.941 -40.042  1.00  0.00     0.010 A 
HETATM   30  C   UNL     1     -10.488 -13.887 -40.140  1.00  0.00     0.152 A 
HETATM   31  N   UNL     1     -11.655 -13.333 -40.479  1.00  0.00    -0.187 NA
HETATM   32  N   UNL     1     -11.359 -12.032 -40.609  1.00  0.00    -0.289 N 
HETATM   33  H   UNL     1     -12.102 -11.394 -40.878  1.00  0.00     0.188 HD
HETATM   34  C   UNL     1     -10.048 -11.744 -40.357  1.00  0.00     0.123 A 
ENDBRANCH   4  29
TORSDOF 9
ENDMDL
MODEL 4
REMARK VINA RESULT:      -8.1     16.794     18.965
REMARK  9 active torsions:
REMARK  status: ('A' for Active; 'I' for Inactive)
REMARK    1  A    between atoms: O_2  and  C_3 
REMARK    2  A    between atoms: C_9  and  C_13 
REMARK       I    between atoms: C_13  and  N_15 
REMARK    3  A    between atoms: N_15  and  C_16 
REMARK    4  A    between atoms: C_19  and  C_27 
REMARK    5  A    between atoms: C_21  and  O_22 
REMARK    6  A    between atoms: O_22  and  C_23 
REMARK    7  A    between atoms: C_23  and  C_24 
REMARK    8  A    between atoms: C_24  and  C_25 
REMARK    9  A    between atoms: C_25  and  O_26 
ROOT
HETATM    1  C   UNL     1      -5.299 -13.331 -39.094  1.00  0.00     0.068 A 
HETATM    2  C   UNL     1      -6.263 -13.183 -38.095  1.00  0.00     0.033 A 
HETATM    3  C   UNL     1      -7.615 -13.050 -38.425  1.00  0.00     0.015 A 
HETATM    4  C   UNL     1      -8.029 -13.065 -39.760  1.00  0.00    -0.020 A 
HETATM    5  C   UNL     1      -7.063 -13.202 -40.766  1.00  0.00     0.051 A 
HETATM    6  C   UNL     1      -5.704 -13.333 -40.445  1.00  0.00     0.096 A 
ENDROOT
BRANCH   1   7
HETATM    7  N   UNL     1      -3.918 -13.496 -38.828  1.00  0.00    -0.324 N 
HETATM    8  C   UNL     1      -2.987 -12.516 -38.540  1.00  0.00     0.228 C 
HETATM    9  O   UNL     1      -3.200 -11.308 -38.516  1.00  0.00    -0.273 OA
HETATM   10  H   UNL     1      -3.624 -14.468 -38.814  1.00  0.00     0.169 HD
BRANCH   8  11
HETATM   11  C   UNL     1      -1.607 -13.078 -38.239  1.00  0.00     0.107 C 
HETATM   12  C   UNL     1      -1.039 -13.779 -39.468  1.00  0.00     0.190 C 
HETATM   13  O   UNL     1       0.311 -14.201 -39.255  1.00  0.00    -0.350 OA
HETATM   14  C   UNL     1       0.494 -14.926 -38.109  1.00  0.00     0.075 A 
HETATM   15  C   UNL     1       1.659 -15.685 -38.045  1.00  0.00     0.040 A 
HETATM   16  C   UNL     1      -0.397 -14.902 -37.030  1.00  0.00    -0.021 A 
HETATM   17  C   UNL     1       1.930 -16.448 -36.909  1.00  0.00     0.039 A 
HETATM   18  C   UNL     1       1.049 -16.447 -35.826  1.00  0.00     0.068 A 
HETATM   19  C   UNL     1      -0.117 -15.679 -35.892  1.00  0.00     0.046 A 
HETATM   20  C   UNL     1      -1.658 -14.082 -37.090  1.00  0.00     0.058 C 
BRANCH  18  21
HETATM   21  O   UNL     1       1.436 -17.235 -34.778  1.00  0.00    -0.356 OA
HETATM   22  C   UNL     1       2.553 -16.793 -34.017  1.00  0.00     0.210 C 
ENDBRANCH  18  21
ENDBRANCH   8  11
ENDBRANCH   1   7
BRANCH   6  23
HETATM   23  O   UNL     1      -4.689 -13.466 -41.369  1.00  0.00    -0.349 OA
BRANCH  23  24
HETATM   24  C   UNL     1      -5.015 -14.111 -42.602  1.00  0.00     0.178 C 
BRANCH  24  25
HETATM   25  C   UNL     1      -3.802 -14.894 -43.091  1.00  0.00     0.053 C 
BRANCH  25  26
HETATM   26  C   UNL     1      -3.964 -15.347 -44.535  1.00  0.00     0.166 C 
BRANCH  26  27
HETATM   27  O   UNL     1      -4.196 -14.219 -45.370  1.00  0.00    -0.401 OA
HETATM   28  H   UNL     1      -3.920 -14.454 -46.272  1.00  0.00     0.209 HD
ENDBRANCH  26  27
ENDBRANCH  25  26
ENDBRANCH  24  25
ENDBRANCH  23  24
ENDBRANCH   6  23
BRANCH   4  29
HETATM   29  C   UNL     1      -9.441 -12.929 -40.081  1.00  0.00     0.010 A 
HETATM   30  C   UNL     1     -10.456 -13.907 -40.219  1.00  0.00     0.152 A 
HETATM   31  N   UNL     1     -11.639 -13.382 -40.547  1.00  0.00    -0.187 NA
HETATM   32  N   UNL     1     -11.387 -12.068 -40.631  1.00  0.00    -0.289 N 
HETATM   33  H   UNL     1     -12.150 -11.448 -40.885  1.00  0.00     0.188 HD
HETATM   34  C   UNL     1     -10.088 -11.744 -40.360  1.00  0.00     0.123 A 
ENDBRANCH   4  29
TORSDOF 9
ENDMDL
MODEL 5
REMARK VINA RESULT:      -8.0      3.485      5.172
REMARK  9 active torsions:
REMARK  status: ('A' for Active; 'I' for Inactive)
REMARK    1  A    between atoms: O_2  and  C_3 
REMARK    2  A    between atoms: C_9  and  C_13 
REMARK       I    between atoms: C_13  and  N_15 
REMARK    3  A    between atoms: N_15  and  C_16 
REMARK    4  A    between atoms: C_19  and  C_27 
REMARK    5  A    between atoms: C_21  and  O_22 
REMARK    6  A    between atoms: O_22  and  C_23 
REMARK    7  A    between atoms: C_23  and  C_24 
REMARK    8  A    between atoms: C_24  and  C_25 
REMARK    9  A    between atoms: C_25  and  O_26 
ROOT
HETATM    1  C   UNL     1      -4.749   0.900 -32.586  1.00  0.00     0.068 A 
HETATM    2  C   UNL     1      -3.758  -0.044 -32.861  1.00  0.00     0.033 A 
HETATM    3  C   UNL     1      -4.093  -1.289 -33.403  1.00  0.00     0.015 A 
HETATM    4  C   UNL     1      -5.424  -1.612 -33.680  1.00  0.00    -0.020 A 
HETATM    5  C   UNL     1      -6.423  -0.670 -33.395  1.00  0.00     0.051 A 
HETATM    6  C   UNL     1      -6.097   0.580 -32.849  1.00  0.00     0.096 A 
ENDROOT
BRANCH   1   7
HETATM    7  N   UNL     1      -4.476   2.188 -32.063  1.00  0.00    -0.324 N 
HETATM    8  C   UNL     1      -4.578   3.404 -32.711  1.00  0.00     0.228 C 
HETATM    9  O   UNL     1      -4.880   3.568 -33.889  1.00  0.00    -0.273 OA
HETATM   10  H   UNL     1      -4.219   2.178 -31.081  1.00  0.00     0.169 HD
BRANCH   8  11
HETATM   11  C   UNL     1      -4.269   4.587 -31.806  1.00  0.00     0.107 C 
HETATM   12  C   UNL     1      -4.679   5.892 -32.479  1.00  0.00     0.190 C 
HETATM   13  O   UNL     1      -4.523   7.009 -31.599  1.00  0.00    -0.350 OA
HETATM   14  C   UNL     1      -3.288   7.088 -31.014  1.00  0.00     0.075 A 
HETATM   15  C   UNL     1      -2.943   8.326 -30.480  1.00  0.00     0.040 A 
HETATM   16  C   UNL     1      -2.412   6.001 -30.909  1.00  0.00    -0.021 A 
HETATM   17  C   UNL     1      -1.706   8.495 -29.858  1.00  0.00     0.039 A 
HETATM   18  C   UNL     1      -0.814   7.427 -29.752  1.00  0.00     0.068 A 
HETATM   19  C   UNL     1      -1.166   6.184 -30.284  1.00  0.00     0.046 A 
HETATM   20  C   UNL     1      -2.779   4.659 -31.482  1.00  0.00     0.058 C 
BRANCH  18  21
HETATM   21  O   UNL     1       0.360   7.728 -29.117  1.00  0.00    -0.356 OA
HETATM   22  C   UNL     1       0.717   6.919 -28.004  1.00  0.00     0.210 C 
ENDBRANCH  18  21
ENDBRANCH   8  11
ENDBRANCH   1   7
BRANCH   6  23
HETATM   23  O   UNL     1      -7.014   1.560 -32.532  1.00  0.00    -0.349 OA
BRANCH  23  24
HETATM   24  C   UNL     1      -8.036   1.214 -31.596  1.00  0.00     0.178 C 
BRANCH  24  25
HETATM   25  C   UNL     1      -8.449   2.462 -30.824  1.00  0.00     0.053 C 
BRANCH  25  26
HETATM   26  C   UNL     1      -7.331   2.969 -29.924  1.00  0.00     0.166 C 
BRANCH  26  27
HETATM   27  O   UNL     1      -6.510   1.881 -29.518  1.00  0.00    -0.401 OA
HETATM   28  H   UNL     1      -6.576   1.189 -30.198  1.00  0.00     0.209 HD
ENDBRANCH  26  27
ENDBRANCH  25  26
ENDBRANCH  24  25
ENDBRANCH  23  24
ENDBRANCH   6  23
BRANCH   4  29
HETATM   29  C   UNL     1      -5.750  -2.911 -34.247  1.00  0.00     0.010 A 
HETATM   30  C   UNL     1      -4.938  -4.045 -34.488  1.00  0.00     0.152 A 
HETATM   31  N   UNL     1      -5.610  -5.053 -35.050  1.00  0.00    -0.187 NA
HETATM   32  N   UNL     1      -6.853  -4.568 -35.180  1.00  0.00    -0.289 N 
HETATM   33  H   UNL     1      -7.559  -5.163 -35.603  1.00  0.00     0.188 HD
HETATM   34  C   UNL     1      -6.991  -3.291 -34.714  1.00  0.00     0.123 A 
ENDBRANCH   4  29
TORSDOF 9
ENDMDL
MODEL 6
REMARK VINA RESULT:      -8.0      4.323      7.841
REMARK  9 active torsions:
REMARK  status: ('A' for Active; 'I' for Inactive)
REMARK    1  A    between atoms: O_2  and  C_3 
REMARK    2  A    between atoms: C_9  and  C_13 
REMARK       I    between atoms: C_13  and  N_15 
REMARK    3  A    between atoms: N_15  and  C_16 
REMARK    4  A    between atoms: C_19  and  C_27 
REMARK    5  A    between atoms: C_21  and  O_22 
REMARK    6  A    between atoms: O_22  and  C_23 
REMARK    7  A    between atoms: C_23  and  C_24 
REMARK    8  A    between atoms: C_24  and  C_25 
REMARK    9  A    between atoms: C_25  and  O_26 
ROOT
HETATM    1  C   UNL     1      -8.068   1.067 -34.266  1.00  0.00     0.068 A 
HETATM    2  C   UNL     1      -8.009  -0.030 -35.127  1.00  0.00     0.033 A 
HETATM    3  C   UNL     1      -7.034  -1.017 -34.955  1.00  0.00     0.015 A 
HETATM    4  C   UNL     1      -6.101  -0.928 -33.918  1.00  0.00    -0.020 A 
HETATM    5  C   UNL     1      -6.151   0.178 -33.058  1.00  0.00     0.051 A 
HETATM    6  C   UNL     1      -7.123   1.175 -33.224  1.00  0.00     0.096 A 
ENDROOT
BRANCH   1   7
HETATM    7  N   UNL     1      -9.044   2.087 -34.367  1.00  0.00    -0.324 N 
HETATM    8  C   UNL     1     -10.372   2.030 -33.990  1.00  0.00     0.228 C 
HETATM    9  O   UNL     1     -10.950   1.045 -33.541  1.00  0.00    -0.273 OA
HETATM   10  H   UNL     1      -8.676   2.964 -34.725  1.00  0.00     0.169 HD
BRANCH   8  11
HETATM   11  C   UNL     1     -11.104   3.349 -34.185  1.00  0.00     0.107 C 
HETATM   12  C   UNL     1     -12.292   3.164 -35.122  1.00  0.00     0.190 C 
HETATM   13  O   UNL     1     -13.075   4.357 -35.219  1.00  0.00    -0.350 OA
HETATM   14  C   UNL     1     -12.347   5.478 -35.513  1.00  0.00     0.075 A 
HETATM   15  C   UNL     1     -13.068   6.564 -36.003  1.00  0.00     0.040 A 
HETATM   16  C   UNL     1     -10.966   5.577 -35.311  1.00  0.00    -0.021 A 
HETATM   17  C   UNL     1     -12.407   7.751 -36.321  1.00  0.00     0.039 A 
HETATM   18  C   UNL     1     -11.028   7.866 -36.138  1.00  0.00     0.068 A 
HETATM   19  C   UNL     1     -10.309   6.776 -35.640  1.00  0.00     0.046 A 
HETATM   20  C   UNL     1     -10.180   4.408 -34.780  1.00  0.00     0.058 C 
BRANCH  18  21
HETATM   21  O   UNL     1     -10.509   9.083 -36.486  1.00  0.00    -0.356 OA
HETATM   22  C   UNL     1     -10.696  10.150 -35.566  1.00  0.00     0.210 C 
ENDBRANCH  18  21
ENDBRANCH   8  11
ENDBRANCH   1   7
BRANCH   6  23
HETATM   23  O   UNL     1      -7.240   2.297 -32.430  1.00  0.00    -0.349 OA
BRANCH  23  24
HETATM   24  C   UNL     1      -7.081   2.113 -31.022  1.00  0.00     0.178 C 
BRANCH  24  25
HETATM   25  C   UNL     1      -7.916   3.155 -30.286  1.00  0.00     0.053 C 
BRANCH  25  26
HETATM   26  C   UNL     1      -9.408   2.954 -30.517  1.00  0.00     0.166 C 
BRANCH  26  27
HETATM   27  O   UNL     1      -9.674   1.579 -30.769  1.00  0.00    -0.401 OA
HETATM   28  H   UNL     1     -10.527   1.361 -30.357  1.00  0.00     0.209 HD
ENDBRANCH  26  27
ENDBRANCH  25  26
ENDBRANCH  24  25
ENDBRANCH  23  24
ENDBRANCH   6  23
BRANCH   4  29
HETATM   29  C   UNL     1      -5.098  -1.968 -33.755  1.00  0.00     0.010 A 
HETATM   30  C   UNL     1      -4.881  -3.165 -34.479  1.00  0.00     0.152 A 
HETATM   31  N   UNL     1      -3.858  -3.879 -34.004  1.00  0.00    -0.187 NA
HETATM   32  N   UNL     1      -3.421  -3.150 -32.967  1.00  0.00    -0.289 N 
HETATM   33  H   UNL     1      -2.636  -3.503 -32.428  1.00  0.00     0.188 HD
HETATM   34  C   UNL     1      -4.128  -1.997 -32.775  1.00  0.00     0.123 A 
ENDBRANCH   4  29
TORSDOF 9
ENDMDL
MODEL 7
REMARK VINA RESULT:      -7.9      3.640      5.506
REMARK  9 active torsions:
REMARK  status: ('A' for Active; 'I' for Inactive)
REMARK    1  A    between atoms: O_2  and  C_3 
REMARK    2  A    between atoms: C_9  and  C_13 
REMARK       I    between atoms: C_13  and  N_15 
REMARK    3  A    between atoms: N_15  and  C_16 
REMARK    4  A    between atoms: C_19  and  C_27 
REMARK    5  A    between atoms: C_21  and  O_22 
REMARK    6  A    between atoms: O_22  and  C_23 
REMARK    7  A    between atoms: C_23  and  C_24 
REMARK    8  A    between atoms: C_24  and  C_25 
REMARK    9  A    between atoms: C_25  and  O_26 
ROOT
HETATM    1  C   UNL     1      -5.246   0.646 -32.682  1.00  0.00     0.068 A 
HETATM    2  C   UNL     1      -4.409  -0.324 -32.127  1.00  0.00     0.033 A 
HETATM    3  C   UNL     1      -4.384  -1.623 -32.644  1.00  0.00     0.015 A 
HETATM    4  C   UNL     1      -5.194  -1.976 -33.726  1.00  0.00    -0.020 A 
HETATM    5  C   UNL     1      -6.044  -1.008 -34.280  1.00  0.00     0.051 A 
HETATM    6  C   UNL     1      -6.078   0.297 -33.766  1.00  0.00     0.096 A 
ENDROOT
BRANCH   1   7
HETATM    7  N   UNL     1      -5.300   1.985 -32.225  1.00  0.00    -0.324 N 
HETATM    8  C   UNL     1      -6.102   2.508 -31.229  1.00  0.00     0.228 C 
HETATM    9  O   UNL     1      -6.955   1.894 -30.596  1.00  0.00    -0.273 OA
HETATM   10  H   UNL     1      -4.624   2.593 -32.677  1.00  0.00     0.169 HD
BRANCH   8  11
HETATM   11  C   UNL     1      -5.834   3.981 -30.962  1.00  0.00     0.107 C 
HETATM   12  C   UNL     1      -4.377   4.319 -31.261  1.00  0.00     0.190 C 
HETATM   13  O   UNL     1      -4.130   5.723 -31.146  1.00  0.00    -0.350 OA
HETATM   14  C   UNL     1      -4.562   6.270 -29.969  1.00  0.00     0.075 A 
HETATM   15  C   UNL     1      -4.013   7.504 -29.630  1.00  0.00     0.040 A 
HETATM   16  C   UNL     1      -5.524   5.672 -29.146  1.00  0.00    -0.021 A 
HETATM   17  C   UNL     1      -4.403   8.138 -28.450  1.00  0.00     0.039 A 
HETATM   18  C   UNL     1      -5.352   7.553 -27.611  1.00  0.00     0.068 A 
HETATM   19  C   UNL     1      -5.906   6.317 -27.957  1.00  0.00     0.046 A 
HETATM   20  C   UNL     1      -6.124   4.339 -29.507  1.00  0.00     0.058 C 
BRANCH  18  21
HETATM   21  O   UNL     1      -5.645   8.281 -26.491  1.00  0.00    -0.356 OA
HETATM   22  C   UNL     1      -5.734   9.692 -26.644  1.00  0.00     0.210 C 
ENDBRANCH  18  21
ENDBRANCH   8  11
ENDBRANCH   1   7
BRANCH   6  23
HETATM   23  O   UNL     1      -6.886   1.307 -34.245  1.00  0.00    -0.349 OA
BRANCH  23  24
HETATM   24  C   UNL     1      -8.242   0.967 -34.541  1.00  0.00     0.178 C 
BRANCH  24  25
HETATM   25  C   UNL     1      -9.129   1.397 -33.378  1.00  0.00     0.053 C 
BRANCH  25  26
HETATM   26  C   UNL     1      -9.611   0.207 -32.561  1.00  0.00     0.166 C 
BRANCH  26  27
HETATM   27  O   UNL     1      -9.404   0.460 -31.176  1.00  0.00    -0.401 OA
HETATM   28  H   UNL     1      -8.533   0.881 -31.078  1.00  0.00     0.209 HD
ENDBRANCH  26  27
ENDBRANCH  25  26
ENDBRANCH  24  25
ENDBRANCH  23  24
ENDBRANCH   6  23
BRANCH   4  29
HETATM   29  C   UNL     1      -5.150  -3.332 -34.251  1.00  0.00     0.010 A 
HETATM   30  C   UNL     1      -6.100  -4.064 -35.002  1.00  0.00     0.152 A 
HETATM   31  N   UNL     1      -5.695  -5.305 -35.281  1.00  0.00    -0.187 NA
HETATM   32  N   UNL     1      -4.488  -5.379 -34.701  1.00  0.00    -0.289 N 
HETATM   33  H   UNL     1      -3.975  -6.252 -34.769  1.00  0.00     0.188 HD
HETATM   34  C   UNL     1      -4.114  -4.225 -34.073  1.00  0.00     0.123 A 
ENDBRANCH   4  29
TORSDOF 9
ENDMDL
MODEL 8
REMARK VINA RESULT:      -7.9      3.108      5.125
REMARK  9 active torsions:
REMARK  status: ('A' for Active; 'I' for Inactive)
REMARK    1  A    between atoms: O_2  and  C_3 
REMARK    2  A    between atoms: C_9  and  C_13 
REMARK       I    between atoms: C_13  and  N_15 
REMARK    3  A    between atoms: N_15  and  C_16 
REMARK    4  A    between atoms: C_19  and  C_27 
REMARK    5  A    between atoms: C_21  and  O_22 
REMARK    6  A    between atoms: O_22  and  C_23 
REMARK    7  A    between atoms: C_23  and  C_24 
REMARK    8  A    between atoms: C_24  and  C_25 
REMARK    9  A    between atoms: C_25  and  O_26 
ROOT
HETATM    1  C   UNL     1      -5.478   0.438 -32.252  1.00  0.00     0.068 A 
HETATM    2  C   UNL     1      -4.390  -0.433 -32.329  1.00  0.00     0.033 A 
HETATM    3  C   UNL     1      -4.506  -1.658 -32.994  1.00  0.00     0.015 A 
HETATM    4  C   UNL     1      -5.710  -2.033 -33.595  1.00  0.00    -0.020 A 
HETATM    5  C   UNL     1      -6.808  -1.165 -33.510  1.00  0.00     0.051 A 
HETATM    6  C   UNL     1      -6.702   0.064 -32.843  1.00  0.00     0.096 A 
ENDROOT
BRANCH   1   7
HETATM    7  N   UNL     1      -5.420   1.703 -31.618  1.00  0.00    -0.324 N 
HETATM    8  C   UNL     1      -5.702   2.003 -30.299  1.00  0.00     0.228 C 
HETATM    9  O   UNL     1      -6.107   1.213 -29.452  1.00  0.00    -0.273 OA
HETATM   10  H   UNL     1      -5.087   2.444 -32.226  1.00  0.00     0.169 HD
BRANCH   8  11
HETATM   11  C   UNL     1      -5.462   3.466 -29.957  1.00  0.00     0.107 C 
HETATM   12  C   UNL     1      -6.778   4.236 -29.964  1.00  0.00     0.190 C 
HETATM   13  O   UNL     1      -6.599   5.584 -29.517  1.00  0.00    -0.350 OA
HETATM   14  C   UNL     1      -5.597   6.256 -30.162  1.00  0.00     0.075 A 
HETATM   15  C   UNL     1      -5.631   7.644 -30.066  1.00  0.00     0.040 A 
HETATM   16  C   UNL     1      -4.561   5.618 -30.855  1.00  0.00    -0.021 A 
HETATM   17  C   UNL     1      -4.643   8.409 -30.686  1.00  0.00     0.039 A 
HETATM   18  C   UNL     1      -3.608   7.793 -31.392  1.00  0.00     0.068 A 
HETATM   19  C   UNL     1      -3.574   6.399 -31.481  1.00  0.00     0.046 A 
HETATM   20  C   UNL     1      -4.515   4.118 -30.962  1.00  0.00     0.058 C 
BRANCH  18  21
HETATM   21  O   UNL     1      -2.707   8.659 -31.947  1.00  0.00    -0.356 OA
HETATM   22  C   UNL     1      -1.564   8.087 -32.570  1.00  0.00     0.210 C 
ENDBRANCH  18  21
ENDBRANCH   8  11
ENDBRANCH   1   7
BRANCH   6  23
HETATM   23  O   UNL     1      -7.731   0.973 -32.706  1.00  0.00    -0.349 OA
BRANCH  23  24
HETATM   24  C   UNL     1      -8.850   0.571 -31.914  1.00  0.00     0.178 C 
BRANCH  24  25
HETATM   25  C   UNL     1     -10.046   0.330 -32.828  1.00  0.00     0.053 C 
BRANCH  25  26
HETATM   26  C   UNL     1     -10.136   1.374 -33.932  1.00  0.00     0.166 C 
BRANCH  26  27
HETATM   27  O   UNL     1      -9.298   0.999 -35.018  1.00  0.00    -0.401 OA
HETATM   28  H   UNL     1      -9.582   1.499 -35.801  1.00  0.00     0.209 HD
ENDBRANCH  26  27
ENDBRANCH  25  26
ENDBRANCH  24  25
ENDBRANCH  23  24
ENDBRANCH   6  23
BRANCH   4  29
HETATM   29  C   UNL     1      -5.808  -3.310 -34.285  1.00  0.00     0.010 A 
HETATM   30  C   UNL     1      -4.856  -4.344 -34.455  1.00  0.00     0.152 A 
HETATM   31  N   UNL     1      -5.324  -5.364 -35.180  1.00  0.00    -0.187 NA
HETATM   32  N   UNL     1      -6.572  -4.984 -35.487  1.00  0.00    -0.289 N 
HETATM   33  H   UNL     1      -7.137  -5.606 -36.057  1.00  0.00     0.188 HD
HETATM   34  C   UNL     1      -6.912  -3.764 -34.975  1.00  0.00     0.123 A 
ENDBRANCH   4  29
TORSDOF 9
ENDMDL
MODEL 9
REMARK VINA RESULT:      -7.7      1.927      2.291
REMARK  9 active torsions:
REMARK  status: ('A' for Active; 'I' for Inactive)
REMARK    1  A    between atoms: O_2  and  C_3 
REMARK    2  A    between atoms: C_9  and  C_13 
REMARK       I    between atoms: C_13  and  N_15 
REMARK    3  A    between atoms: N_15  and  C_16 
REMARK    4  A    between atoms: C_19  and  C_27 
REMARK    5  A    between atoms: C_21  and  O_22 
REMARK    6  A    between atoms: O_22  and  C_23 
REMARK    7  A    between atoms: C_23  and  C_24 
REMARK    8  A    between atoms: C_24  and  C_25 
REMARK    9  A    between atoms: C_25  and  O_26 
ROOT
HETATM    1  C   UNL     1      -9.191   3.331 -33.788  1.00  0.00     0.068 A 
HETATM    2  C   UNL     1     -10.429   3.966 -33.670  1.00  0.00     0.033 A 
HETATM    3  C   UNL     1     -11.616   3.234 -33.769  1.00  0.00     0.015 A 
HETATM    4  C   UNL     1     -11.589   1.854 -33.986  1.00  0.00    -0.020 A 
HETATM    5  C   UNL     1     -10.348   1.215 -34.116  1.00  0.00     0.051 A 
HETATM    6  C   UNL     1      -9.151   1.940 -34.021  1.00  0.00     0.096 A 
ENDROOT
BRANCH   1   7
HETATM    7  N   UNL     1      -7.953   4.007 -33.672  1.00  0.00    -0.324 N 
HETATM    8  C   UNL     1      -7.547   4.866 -32.668  1.00  0.00     0.228 C 
HETATM    9  O   UNL     1      -8.230   5.232 -31.716  1.00  0.00    -0.273 OA
HETATM   10  H   UNL     1      -7.295   3.774 -34.409  1.00  0.00     0.169 HD
BRANCH   8  11
HETATM   11  C   UNL     1      -6.117   5.350 -32.841  1.00  0.00     0.107 C 
HETATM   12  C   UNL     1      -5.589   4.968 -34.220  1.00  0.00     0.190 C 
HETATM   13  O   UNL     1      -4.294   5.526 -34.460  1.00  0.00    -0.350 OA
HETATM   14  C   UNL     1      -3.387   5.275 -33.466  1.00  0.00     0.075 A 
HETATM   15  C   UNL     1      -2.047   5.435 -33.807  1.00  0.00     0.040 A 
HETATM   16  C   UNL     1      -3.750   4.914 -32.163  1.00  0.00    -0.021 A 
HETATM   17  C   UNL     1      -1.055   5.209 -32.853  1.00  0.00     0.039 A 
HETATM   18  C   UNL     1      -1.395   4.837 -31.551  1.00  0.00     0.068 A 
HETATM   19  C   UNL     1      -2.742   4.683 -31.211  1.00  0.00     0.046 A 
HETATM   20  C   UNL     1      -5.197   4.741 -31.787  1.00  0.00     0.058 C 
BRANCH  18  21
HETATM   21  O   UNL     1      -0.327   4.650 -30.717  1.00  0.00    -0.356 OA
HETATM   22  C   UNL     1       0.810   5.477 -30.930  1.00  0.00     0.210 C 
ENDBRANCH  18  21
ENDBRANCH   8  11
ENDBRANCH   1   7
BRANCH   6  23
HETATM   23  O   UNL     1      -7.891   1.394 -34.143  1.00  0.00    -0.349 OA
BRANCH  23  24
HETATM   24  C   UNL     1      -7.738   0.318 -35.071  1.00  0.00     0.178 C 
BRANCH  24  25
HETATM   25  C   UNL     1      -6.537  -0.527 -34.661  1.00  0.00     0.053 C 
BRANCH  25  26
HETATM   26  C   UNL     1      -6.949  -1.927 -34.229  1.00  0.00     0.166 C 
BRANCH  26  27
HETATM   27  O   UNL     1      -5.923  -2.854 -34.563  1.00  0.00    -0.401 OA
HETATM   28  H   UNL     1      -5.908  -3.542 -33.877  1.00  0.00     0.209 HD
ENDBRANCH  26  27
ENDBRANCH  25  26
ENDBRANCH  24  25
ENDBRANCH  23  24
ENDBRANCH   6  23
BRANCH   4  29
HETATM   29  C   UNL     1     -12.836   1.112 -34.082  1.00  0.00     0.010 A 
HETATM   30  C   UNL     1     -14.105   1.496 -34.577  1.00  0.00     0.152 A 
HETATM   31  N   UNL     1     -15.016   0.526 -34.473  1.00  0.00    -0.187 NA
HETATM   32  N   UNL     1     -14.340  -0.481 -33.902  1.00  0.00    -0.289 N 
HETATM   33  H   UNL     1     -14.837  -1.345 -33.707  1.00  0.00     0.188 HD
HETATM   34  C   UNL     1     -13.031  -0.183 -33.648  1.00  0.00     0.123 A 
ENDBRANCH   4  29
TORSDOF 9
ENDMDL
MODEL 10
REMARK VINA RESULT:      -7.7      4.190      7.075
REMARK  9 active torsions:
REMARK  status: ('A' for Active; 'I' for Inactive)
REMARK    1  A    between atoms: O_2  and  C_3 
REMARK    2  A    between atoms: C_9  and  C_13 
REMARK       I    between atoms: C_13  and  N_15 
REMARK    3  A    between atoms: N_15  and  C_16 
REMARK    4  A    between atoms: C_19  and  C_27 
REMARK    5  A    between atoms: C_21  and  O_22 
REMARK    6  A    between atoms: O_22  and  C_23 
REMARK    7  A    between atoms: C_23  and  C_24 
REMARK    8  A    between atoms: C_24  and  C_25 
REMARK    9  A    between atoms: C_25  and  O_26 
ROOT
HETATM    1  C   UNL     1      -9.686   3.990 -34.313  1.00  0.00     0.068 A 
HETATM    2  C   UNL     1      -9.384   5.348 -34.204  1.00  0.00     0.033 A 
HETATM    3  C   UNL     1     -10.282   6.315 -34.668  1.00  0.00     0.015 A 
HETATM    4  C   UNL     1     -11.498   5.942 -35.246  1.00  0.00    -0.020 A 
HETATM    5  C   UNL     1     -11.799   4.578 -35.367  1.00  0.00     0.051 A 
HETATM    6  C   UNL     1     -10.904   3.601 -34.908  1.00  0.00     0.096 A 
ENDROOT
BRANCH   1   7
HETATM    7  N   UNL     1      -8.835   2.961 -33.840  1.00  0.00    -0.324 N 
HETATM    8  C   UNL     1      -8.727   2.476 -32.551  1.00  0.00     0.228 C 
HETATM    9  O   UNL     1      -9.328   2.902 -31.570  1.00  0.00    -0.273 OA
HETATM   10  H   UNL     1      -8.286   2.523 -34.574  1.00  0.00     0.169 HD
BRANCH   8  11
HETATM   11  C   UNL     1      -7.753   1.314 -32.432  1.00  0.00     0.107 C 
HETATM   12  C   UNL     1      -6.315   1.823 -32.440  1.00  0.00     0.190 C 
HETATM   13  O   UNL     1      -5.383   0.765 -32.197  1.00  0.00    -0.350 OA
HETATM   14  C   UNL     1      -5.555  -0.326 -33.004  1.00  0.00     0.075 A 
HETATM   15  C   UNL     1      -4.473  -1.196 -33.096  1.00  0.00     0.040 A 
HETATM   16  C   UNL     1      -6.748  -0.603 -33.684  1.00  0.00    -0.021 A 
HETATM   17  C   UNL     1      -4.565  -2.338 -33.891  1.00  0.00     0.039 A 
HETATM   18  C   UNL     1      -5.740  -2.627 -34.586  1.00  0.00     0.068 A 
HETATM   19  C   UNL     1      -6.827  -1.754 -34.486  1.00  0.00     0.046 A 
HETATM   20  C   UNL     1      -7.924   0.332 -33.588  1.00  0.00     0.058 C 
BRANCH  18  21
HETATM   21  O   UNL     1      -5.696  -3.778 -35.323  1.00  0.00    -0.356 OA
HETATM   22  C   UNL     1      -5.305  -4.964 -34.644  1.00  0.00     0.210 C 
ENDBRANCH  18  21
ENDBRANCH   8  11
ENDBRANCH   1   7
BRANCH   6  23
HETATM   23  O   UNL     1     -11.117   2.241 -34.992  1.00  0.00    -0.349 OA
BRANCH  23  24
HETATM   24  C   UNL     1     -12.470   1.790 -34.906  1.00  0.00     0.178 C 
BRANCH  24  25
HETATM   25  C   UNL     1     -12.572   0.724 -33.821  1.00  0.00     0.053 C 
BRANCH  25  26
HETATM   26  C   UNL     1     -13.965   0.113 -33.754  1.00  0.00     0.166 C 
BRANCH  26  27
HETATM   27  O   UNL     1     -13.897  -1.172 -33.149  1.00  0.00    -0.401 OA
HETATM   28  H   UNL     1     -12.991  -1.298 -32.819  1.00  0.00     0.209 HD
ENDBRANCH  26  27
ENDBRANCH  25  26
ENDBRANCH  24  25
ENDBRANCH  23  24
ENDBRANCH   6  23
BRANCH   4  29
HETATM   29  C   UNL     1     -12.418   6.965 -35.718  1.00  0.00     0.010 A 
HETATM   30  C   UNL     1     -13.622   6.855 -36.454  1.00  0.00     0.152 A 
HETATM   31  N   UNL     1     -14.177   8.041 -36.718  1.00  0.00    -0.187 NA
HETATM   32  N   UNL     1     -13.327   8.916 -36.161  1.00  0.00    -0.289 N 
HETATM   33  H   UNL     1     -13.535   9.907 -36.243  1.00  0.00     0.188 HD
HETATM   34  C   UNL     1     -12.259   8.324 -35.549  1.00  0.00     0.123 A 
ENDBRANCH   4  29
TORSDOF 9
ENDMDL
