MODEL 1
REMARK VINA RESULT:      -9.3      0.000      0.000
REMARK  2 active torsions:
REMARK  status: ('A' for Active; 'I' for Inactive)
REMARK    1  A    between atoms: C_10  and  C_11 
REMARK    2  A    between atoms: C_12  and  O_13 
ROOT
HETATM    1  C   UNL     1      -4.503  -5.296 -34.260  1.00  0.00     0.076 C 
HETATM    2  C   UNL     1      -5.321  -4.072 -34.376  1.00  0.00     0.050 A 
HETATM    3  O   UNL     1      -4.774  -2.922 -33.893  1.00  0.00    -0.312 OA
HETATM    4  C   UNL     1      -5.691  -1.915 -34.074  1.00  0.00     0.121 A 
HETATM    5  C   UNL     1      -5.452  -0.572 -33.656  1.00  0.00     0.163 A 
HETATM    6  N   UNL     1      -6.309   0.421 -33.698  1.00  0.00    -0.221 NA
HETATM    7  C   UNL     1      -5.662   1.522 -33.147  1.00  0.00     0.149 A 
HETATM    8  C   UNL     1      -4.364   1.171 -32.796  1.00  0.00     0.046 A 
HETATM    9  C   UNL     1      -3.192   1.872 -32.203  1.00  0.00     0.070 C 
HETATM   10  C   UNL     1      -3.415   3.267 -31.604  1.00  0.00     0.045 C 
HETATM   11  C   UNL     1      -4.846   3.567 -31.130  1.00  0.00     0.132 C 
HETATM   12  N   UNL     1      -5.845   3.752 -32.157  1.00  0.00    -0.355 N 
HETATM   13  C   UNL     1      -6.345   2.812 -33.023  1.00  0.00     0.272 C 
HETATM   14  O   UNL     1      -7.352   3.103 -33.666  1.00  0.00    -0.266 OA
HETATM   15  N   UNL     1      -4.263  -0.161 -33.133  1.00  0.00    -0.340 N 
HETATM   16  H   UNL     1      -3.456  -0.758 -33.015  1.00  0.00     0.167 HD
HETATM   17  C   UNL     1      -6.814  -2.442 -34.688  1.00  0.00     0.043 A 
HETATM   18  C   UNL     1      -6.576  -3.823 -34.883  1.00  0.00     0.035 A 
HETATM   19  H   UNL     1      -6.430   4.576 -32.115  1.00  0.00     0.162 HD
ENDROOT
BRANCH  10  20
HETATM   20  C   UNL     1      -2.743   4.366 -32.435  1.00  0.00    -0.019 A 
HETATM   21  C   UNL     1      -1.519   4.941 -32.020  1.00  0.00     0.074 A 
HETATM   22  C   UNL     1      -0.925   5.954 -32.782  1.00  0.00     0.037 A 
HETATM   23  C   UNL     1      -1.513   6.385 -33.971  1.00  0.00     0.003 A 
HETATM   24  C   UNL     1      -2.690   5.797 -34.413  1.00  0.00     0.001 A 
HETATM   25  C   UNL     1      -3.295   4.791 -33.657  1.00  0.00     0.010 A 
BRANCH  21  26
HETATM   26  O   UNL     1      -0.981   4.452 -30.856  1.00  0.00    -0.355 OA
HETATM   27  C   UNL     1       0.066   5.202 -30.253  1.00  0.00     0.210 C 
ENDBRANCH  21  26
ENDBRANCH  10  20
TORSDOF 2
ENDMDL
MODEL 2
REMARK VINA RESULT:      -8.5      2.211      7.969
REMARK  2 active torsions:
REMARK  status: ('A' for Active; 'I' for Inactive)
REMARK    1  A    between atoms: C_10  and  C_11 
REMARK    2  A    between atoms: C_12  and  O_13 
ROOT
HETATM    1  C   UNL     1      -1.882   7.608 -33.128  1.00  0.00     0.076 C 
HETATM    2  C   UNL     1      -2.532   6.731 -32.135  1.00  0.00     0.050 A 
HETATM    3  O   UNL     1      -2.866   5.478 -32.552  1.00  0.00    -0.312 OA
HETATM    4  C   UNL     1      -3.472   4.835 -31.500  1.00  0.00     0.121 A 
HETATM    5  C   UNL     1      -3.974   3.503 -31.597  1.00  0.00     0.163 A 
HETATM    6  N   UNL     1      -4.653   2.857 -30.678  1.00  0.00    -0.221 NA
HETATM    7  C   UNL     1      -4.973   1.618 -31.224  1.00  0.00     0.149 A 
HETATM    8  C   UNL     1      -4.435   1.521 -32.502  1.00  0.00     0.046 A 
HETATM    9  C   UNL     1      -4.399   0.482 -33.568  1.00  0.00     0.070 C 
HETATM   10  C   UNL     1      -5.318  -0.738 -33.416  1.00  0.00     0.045 C 
HETATM   11  C   UNL     1      -6.574  -0.523 -32.554  1.00  0.00     0.132 C 
HETATM   12  N   UNL     1      -6.368  -0.389 -31.131  1.00  0.00    -0.355 N 
HETATM   13  C   UNL     1      -5.752   0.639 -30.463  1.00  0.00     0.272 C 
HETATM   14  O   UNL     1      -5.881   0.688 -29.241  1.00  0.00    -0.266 OA
HETATM   15  N   UNL     1      -3.807   2.730 -32.707  1.00  0.00    -0.340 N 
HETATM   16  H   UNL     1      -3.307   3.022 -33.535  1.00  0.00     0.167 HD
HETATM   17  C   UNL     1      -3.503   5.692 -30.414  1.00  0.00     0.043 A 
HETATM   18  C   UNL     1      -2.899   6.906 -30.820  1.00  0.00     0.035 A 
HETATM   19  H   UNL     1      -6.921  -0.965 -30.510  1.00  0.00     0.162 HD
ENDROOT
BRANCH  10  20
HETATM   20  C   UNL     1      -4.530  -2.022 -33.137  1.00  0.00    -0.019 A 
HETATM   21  C   UNL     1      -4.697  -3.166 -33.953  1.00  0.00     0.074 A 
HETATM   22  C   UNL     1      -3.981  -4.337 -33.677  1.00  0.00     0.037 A 
HETATM   23  C   UNL     1      -3.074  -4.381 -32.619  1.00  0.00     0.003 A 
HETATM   24  C   UNL     1      -2.867  -3.252 -31.838  1.00  0.00     0.001 A 
HETATM   25  C   UNL     1      -3.581  -2.081 -32.101  1.00  0.00     0.010 A 
BRANCH  21  26
HETATM   26  O   UNL     1      -5.584  -3.046 -34.994  1.00  0.00    -0.355 OA
HETATM   27  C   UNL     1      -6.367  -4.187 -35.322  1.00  0.00     0.210 C 
ENDBRANCH  21  26
ENDBRANCH  10  20
TORSDOF 2
ENDMDL
MODEL 3
REMARK VINA RESULT:      -8.3      4.160      7.406
REMARK  2 active torsions:
REMARK  status: ('A' for Active; 'I' for Inactive)
REMARK    1  A    between atoms: C_10  and  C_11 
REMARK    2  A    between atoms: C_12  and  O_13 
ROOT
HETATM    1  C   UNL     1     -15.433   3.261 -31.982  1.00  0.00     0.076 C 
HETATM    2  C   UNL     1     -14.168   3.753 -32.563  1.00  0.00     0.050 A 
HETATM    3  O   UNL     1     -13.056   3.002 -32.332  1.00  0.00    -0.312 OA
HETATM    4  C   UNL     1     -11.994   3.633 -32.931  1.00  0.00     0.121 A 
HETATM    5  C   UNL     1     -10.661   3.129 -32.866  1.00  0.00     0.163 A 
HETATM    6  N   UNL     1      -9.581   3.720 -33.320  1.00  0.00    -0.221 NA
HETATM    7  C   UNL     1      -8.512   2.890 -32.994  1.00  0.00     0.149 A 
HETATM    8  C   UNL     1      -8.986   1.752 -32.352  1.00  0.00     0.046 A 
HETATM    9  C   UNL     1      -8.381   0.513 -31.791  1.00  0.00     0.070 C 
HETATM   10  C   UNL     1      -6.854   0.460 -31.644  1.00  0.00     0.045 C 
HETATM   11  C   UNL     1      -6.150   1.821 -31.513  1.00  0.00     0.132 C 
HETATM   12  N   UNL     1      -6.097   2.641 -32.700  1.00  0.00    -0.355 N 
HETATM   13  C   UNL     1      -7.139   3.259 -33.344  1.00  0.00     0.272 C 
HETATM   14  O   UNL     1      -6.867   4.101 -34.198  1.00  0.00    -0.266 OA
HETATM   15  N   UNL     1     -10.351   1.934 -32.288  1.00  0.00    -0.340 N 
HETATM   16  H   UNL     1     -11.029   1.306 -31.880  1.00  0.00     0.167 HD
HETATM   17  C   UNL     1     -12.452   4.782 -33.552  1.00  0.00     0.043 A 
HETATM   18  C   UNL     1     -13.845   4.858 -33.318  1.00  0.00     0.035 A 
HETATM   19  H   UNL     1      -5.202   3.017 -32.983  1.00  0.00     0.162 HD
ENDROOT
BRANCH  10  20
HETATM   20  C   UNL     1      -6.215  -0.530 -32.624  1.00  0.00    -0.019 A 
HETATM   21  C   UNL     1      -4.910  -1.028 -32.400  1.00  0.00     0.074 A 
HETATM   22  C   UNL     1      -4.333  -1.920 -33.312  1.00  0.00     0.037 A 
HETATM   23  C   UNL     1      -5.046  -2.352 -34.430  1.00  0.00     0.003 A 
HETATM   24  C   UNL     1      -6.344  -1.906 -34.638  1.00  0.00     0.001 A 
HETATM   25  C   UNL     1      -6.926  -1.010 -33.738  1.00  0.00     0.010 A 
BRANCH  21  26
HETATM   26  O   UNL     1      -4.275  -0.586 -31.267  1.00  0.00    -0.355 OA
HETATM   27  C   UNL     1      -2.909  -0.208 -31.386  1.00  0.00     0.210 C 
ENDBRANCH  21  26
ENDBRANCH  10  20
TORSDOF 2
ENDMDL
MODEL 4
REMARK VINA RESULT:      -7.9      3.477      7.506
REMARK  2 active torsions:
REMARK  status: ('A' for Active; 'I' for Inactive)
REMARK    1  A    between atoms: C_10  and  C_11 
REMARK    2  A    between atoms: C_12  and  O_13 
ROOT
HETATM    1  C   UNL     1     -13.578   4.528 -30.244  1.00  0.00     0.076 C 
HETATM    2  C   UNL     1     -12.390   4.775 -31.085  1.00  0.00     0.050 A 
HETATM    3  O   UNL     1     -11.455   3.786 -31.128  1.00  0.00    -0.312 OA
HETATM    4  C   UNL     1     -10.432   4.213 -31.939  1.00  0.00     0.121 A 
HETATM    5  C   UNL     1      -9.266   3.429 -32.186  1.00  0.00     0.163 A 
HETATM    6  N   UNL     1      -8.204   3.803 -32.861  1.00  0.00    -0.221 NA
HETATM    7  C   UNL     1      -7.308   2.740 -32.803  1.00  0.00     0.149 A 
HETATM    8  C   UNL     1      -7.878   1.689 -32.094  1.00  0.00     0.046 A 
HETATM    9  C   UNL     1      -7.464   0.311 -31.711  1.00  0.00     0.070 C 
HETATM   10  C   UNL     1      -5.994  -0.081 -31.914  1.00  0.00     0.045 C 
HETATM   11  C   UNL     1      -4.988   1.082 -31.917  1.00  0.00     0.132 C 
HETATM   12  N   UNL     1      -5.007   1.953 -33.068  1.00  0.00    -0.355 N 
HETATM   13  C   UNL     1      -5.995   2.827 -33.446  1.00  0.00     0.272 C 
HETATM   14  O   UNL     1      -5.730   3.649 -34.322  1.00  0.00    -0.266 OA
HETATM   15  N   UNL     1      -9.119   2.157 -31.719  1.00  0.00    -0.340 N 
HETATM   16  H   UNL     1      -9.817   1.664 -31.181  1.00  0.00     0.167 HD
HETATM   17  C   UNL     1     -10.740   5.476 -32.415  1.00  0.00     0.043 A 
HETATM   18  C   UNL     1     -11.995   5.835 -31.870  1.00  0.00     0.035 A 
HETATM   19  H   UNL     1      -4.132   2.145 -33.538  1.00  0.00     0.162 HD
ENDROOT
BRANCH  10  20
HETATM   20  C   UNL     1      -5.823  -1.114 -33.034  1.00  0.00    -0.019 A 
HETATM   21  C   UNL     1      -4.628  -1.862 -33.151  1.00  0.00     0.074 A 
HETATM   22  C   UNL     1      -4.480  -2.791 -34.188  1.00  0.00     0.037 A 
HETATM   23  C   UNL     1      -5.516  -3.013 -35.095  1.00  0.00     0.003 A 
HETATM   24  C   UNL     1      -6.710  -2.317 -34.964  1.00  0.00     0.001 A 
HETATM   25  C   UNL     1      -6.865  -1.384 -33.938  1.00  0.00     0.010 A 
BRANCH  21  26
HETATM   26  O   UNL     1      -3.661  -1.617 -32.209  1.00  0.00    -0.355 OA
HETATM   27  C   UNL     1      -2.900  -2.726 -31.746  1.00  0.00     0.210 C 
ENDBRANCH  21  26
ENDBRANCH  10  20
TORSDOF 2
ENDMDL
MODEL 5
REMARK VINA RESULT:      -7.8      2.228      2.765
REMARK  2 active torsions:
REMARK  status: ('A' for Active; 'I' for Inactive)
REMARK    1  A    between atoms: C_10  and  C_11 
REMARK    2  A    between atoms: C_12  and  O_13 
ROOT
HETATM    1  C   UNL     1      -3.395  -4.757 -33.864  1.00  0.00     0.076 C 
HETATM    2  C   UNL     1      -4.439  -3.749 -34.140  1.00  0.00     0.050 A 
HETATM    3  O   UNL     1      -4.433  -2.634 -33.358  1.00  0.00    -0.312 OA
HETATM    4  C   UNL     1      -5.482  -1.840 -33.755  1.00  0.00     0.121 A 
HETATM    5  C   UNL     1      -5.787  -0.596 -33.127  1.00  0.00     0.163 A 
HETATM    6  N   UNL     1      -6.824   0.168 -33.375  1.00  0.00    -0.221 NA
HETATM    7  C   UNL     1      -6.737   1.246 -32.498  1.00  0.00     0.149 A 
HETATM    8  C   UNL     1      -5.588   1.126 -31.727  1.00  0.00     0.046 A 
HETATM    9  C   UNL     1      -4.929   1.930 -30.661  1.00  0.00     0.070 C 
HETATM   10  C   UNL     1      -5.724   3.083 -30.035  1.00  0.00     0.045 C 
HETATM   11  C   UNL     1      -7.255   2.952 -30.103  1.00  0.00     0.132 C 
HETATM   12  N   UNL     1      -7.863   3.121 -31.403  1.00  0.00    -0.355 N 
HETATM   13  C   UNL     1      -7.758   2.296 -32.494  1.00  0.00     0.272 C 
HETATM   14  O   UNL     1      -8.532   2.484 -33.432  1.00  0.00    -0.266 OA
HETATM   15  N   UNL     1      -5.007  -0.050 -32.151  1.00  0.00    -0.340 N 
HETATM   16  H   UNL     1      -4.152  -0.464 -31.807  1.00  0.00     0.167 HD
HETATM   17  C   UNL     1      -6.139  -2.463 -34.801  1.00  0.00     0.043 A 
HETATM   18  C   UNL     1      -5.469  -3.684 -35.050  1.00  0.00     0.035 A 
HETATM   19  H   UNL     1      -8.636   3.767 -31.490  1.00  0.00     0.162 HD
ENDROOT
BRANCH  10  20
HETATM   20  C   UNL     1      -5.154   4.452 -30.421  1.00  0.00    -0.019 A 
HETATM   21  C   UNL     1      -5.216   5.542 -29.520  1.00  0.00     0.074 A 
HETATM   22  C   UNL     1      -4.704   6.791 -29.893  1.00  0.00     0.037 A 
HETATM   23  C   UNL     1      -4.101   6.968 -31.138  1.00  0.00     0.003 A 
HETATM   24  C   UNL     1      -3.994   5.896 -32.013  1.00  0.00     0.001 A 
HETATM   25  C   UNL     1      -4.507   4.648 -31.654  1.00  0.00     0.010 A 
BRANCH  21  26
HETATM   26  O   UNL     1      -5.795   5.292 -28.301  1.00  0.00    -0.355 OA
HETATM   27  C   UNL     1      -5.188   5.877 -27.155  1.00  0.00     0.210 C 
ENDBRANCH  21  26
ENDBRANCH  10  20
TORSDOF 2
ENDMDL
MODEL 6
REMARK VINA RESULT:      -7.8      2.228      8.029
REMARK  2 active torsions:
REMARK  status: ('A' for Active; 'I' for Inactive)
REMARK    1  A    between atoms: C_10  and  C_11 
REMARK    2  A    between atoms: C_12  and  O_13 
ROOT
HETATM    1  C   UNL     1      -1.873   8.925 -31.898  1.00  0.00     0.076 C 
HETATM    2  C   UNL     1      -1.516   7.510 -31.673  1.00  0.00     0.050 A 
HETATM    3  O   UNL     1      -2.521   6.599 -31.798  1.00  0.00    -0.312 OA
HETATM    4  C   UNL     1      -1.995   5.358 -31.532  1.00  0.00     0.121 A 
HETATM    5  C   UNL     1      -2.781   4.168 -31.548  1.00  0.00     0.163 A 
HETATM    6  N   UNL     1      -2.382   2.965 -31.208  1.00  0.00    -0.221 NA
HETATM    7  C   UNL     1      -3.490   2.133 -31.333  1.00  0.00     0.149 A 
HETATM    8  C   UNL     1      -4.574   2.869 -31.795  1.00  0.00     0.046 A 
HETATM    9  C   UNL     1      -5.991   2.576 -32.148  1.00  0.00     0.070 C 
HETATM   10  C   UNL     1      -6.563   1.209 -31.750  1.00  0.00     0.045 C 
HETATM   11  C   UNL     1      -5.881   0.522 -30.556  1.00  0.00     0.132 C 
HETATM   12  N   UNL     1      -4.553   0.001 -30.779  1.00  0.00    -0.355 N 
HETATM   13  C   UNL     1      -3.400   0.707 -31.013  1.00  0.00     0.272 C 
HETATM   14  O   UNL     1      -2.332   0.100 -30.946  1.00  0.00    -0.266 OA
HETATM   15  N   UNL     1      -4.092   4.154 -31.923  1.00  0.00    -0.340 N 
HETATM   16  H   UNL     1      -4.604   4.968 -32.232  1.00  0.00     0.167 HD
HETATM   17  C   UNL     1      -0.647   5.498 -31.251  1.00  0.00     0.043 A 
HETATM   18  C   UNL     1      -0.340   6.876 -31.344  1.00  0.00     0.035 A 
HETATM   19  H   UNL     1      -4.363  -0.956 -30.513  1.00  0.00     0.162 HD
ENDROOT
BRANCH  10  20
HETATM   20  C   UNL     1      -6.827   0.319 -32.970  1.00  0.00    -0.019 A 
HETATM   21  C   UNL     1      -7.830   0.657 -33.909  1.00  0.00     0.074 A 
HETATM   22  C   UNL     1      -8.070  -0.173 -35.011  1.00  0.00     0.037 A 
HETATM   23  C   UNL     1      -7.306  -1.323 -35.212  1.00  0.00     0.003 A 
HETATM   24  C   UNL     1      -6.290  -1.643 -34.322  1.00  0.00     0.001 A 
HETATM   25  C   UNL     1      -6.047  -0.825 -33.216  1.00  0.00     0.010 A 
BRANCH  21  26
HETATM   26  O   UNL     1      -8.524   1.817 -33.667  1.00  0.00    -0.355 OA
HETATM   27  C   UNL     1      -9.929   1.710 -33.476  1.00  0.00     0.210 C 
ENDBRANCH  21  26
ENDBRANCH  10  20
TORSDOF 2
ENDMDL
MODEL 7
REMARK VINA RESULT:      -7.8      3.720      5.944
REMARK  2 active torsions:
REMARK  status: ('A' for Active; 'I' for Inactive)
REMARK    1  A    between atoms: C_10  and  C_11 
REMARK    2  A    between atoms: C_12  and  O_13 
ROOT
HETATM    1  C   UNL     1      -7.336   0.340 -31.550  1.00  0.00     0.076 C 
HETATM    2  C   UNL     1      -5.897   0.671 -31.546  1.00  0.00     0.050 A 
HETATM    3  O   UNL     1      -5.574   1.992 -31.485  1.00  0.00    -0.312 OA
HETATM    4  C   UNL     1      -4.204   2.089 -31.513  1.00  0.00     0.121 A 
HETATM    5  C   UNL     1      -3.520   3.340 -31.490  1.00  0.00     0.163 A 
HETATM    6  N   UNL     1      -2.226   3.524 -31.616  1.00  0.00    -0.221 NA
HETATM    7  C   UNL     1      -2.019   4.899 -31.582  1.00  0.00     0.149 A 
HETATM    8  C   UNL     1      -3.234   5.548 -31.398  1.00  0.00     0.046 A 
HETATM    9  C   UNL     1      -3.678   6.962 -31.255  1.00  0.00     0.070 C 
HETATM   10  C   UNL     1      -2.668   8.070 -31.581  1.00  0.00     0.045 C 
HETATM   11  C   UNL     1      -1.544   7.682 -32.556  1.00  0.00     0.132 C 
HETATM   12  N   UNL     1      -0.531   6.782 -32.055  1.00  0.00    -0.355 N 
HETATM   13  C   UNL     1      -0.673   5.461 -31.715  1.00  0.00     0.272 C 
HETATM   14  O   UNL     1       0.350   4.803 -31.531  1.00  0.00    -0.266 OA
HETATM   15  N   UNL     1      -4.164   4.532 -31.341  1.00  0.00    -0.340 N 
HETATM   16  H   UNL     1      -5.162   4.628 -31.219  1.00  0.00     0.167 HD
HETATM   17  C   UNL     1      -3.670   0.814 -31.579  1.00  0.00     0.043 A 
HETATM   18  C   UNL     1      -4.754  -0.095 -31.597  1.00  0.00     0.035 A 
HETATM   19  H   UNL     1       0.439   7.041 -32.172  1.00  0.00     0.162 HD
ENDROOT
BRANCH  10  20
HETATM   20  C   UNL     1      -2.228   8.835 -30.328  1.00  0.00    -0.019 A 
HETATM   21  C   UNL     1      -2.693  10.149 -30.082  1.00  0.00     0.074 A 
HETATM   22  C   UNL     1      -2.271  10.841 -28.940  1.00  0.00     0.037 A 
HETATM   23  C   UNL     1      -1.417  10.236 -28.019  1.00  0.00     0.003 A 
HETATM   24  C   UNL     1      -0.989   8.932 -28.226  1.00  0.00     0.001 A 
HETATM   25  C   UNL     1      -1.398   8.235 -29.364  1.00  0.00     0.010 A 
BRANCH  21  26
HETATM   26  O   UNL     1      -3.554  10.674 -31.013  1.00  0.00    -0.355 OA
HETATM   27  C   UNL     1      -4.824  11.120 -30.552  1.00  0.00     0.210 C 
ENDBRANCH  21  26
ENDBRANCH  10  20
TORSDOF 2
ENDMDL
MODEL 8
REMARK VINA RESULT:      -7.6      4.288      6.900
REMARK  2 active torsions:
REMARK  status: ('A' for Active; 'I' for Inactive)
REMARK    1  A    between atoms: C_10  and  C_11 
REMARK    2  A    between atoms: C_12  and  O_13 
ROOT
HETATM    1  C   UNL     1      -6.741   1.197 -30.964  1.00  0.00     0.076 C 
HETATM    2  C   UNL     1      -5.944   2.195 -31.705  1.00  0.00     0.050 A 
HETATM    3  O   UNL     1      -5.395   3.204 -30.974  1.00  0.00    -0.312 OA
HETATM    4  C   UNL     1      -4.719   4.028 -31.841  1.00  0.00     0.121 A 
HETATM    5  C   UNL     1      -4.042   5.208 -31.413  1.00  0.00     0.163 A 
HETATM    6  N   UNL     1      -3.463   6.099 -32.184  1.00  0.00    -0.221 NA
HETATM    7  C   UNL     1      -2.979   7.094 -31.341  1.00  0.00     0.149 A 
HETATM    8  C   UNL     1      -3.256   6.760 -30.021  1.00  0.00     0.046 A 
HETATM    9  C   UNL     1      -2.993   7.370 -28.688  1.00  0.00     0.070 C 
HETATM   10  C   UNL     1      -2.482   8.817 -28.646  1.00  0.00     0.045 C 
HETATM   11  C   UNL     1      -2.840   9.685 -29.863  1.00  0.00     0.132 C 
HETATM   12  N   UNL     1      -2.156   9.385 -31.099  1.00  0.00    -0.355 N 
HETATM   13  C   UNL     1      -2.283   8.264 -31.880  1.00  0.00     0.272 C 
HETATM   14  O   UNL     1      -1.795   8.293 -33.009  1.00  0.00    -0.266 OA
HETATM   15  N   UNL     1      -3.928   5.560 -30.101  1.00  0.00    -0.340 N 
HETATM   16  H   UNL     1      -4.293   5.015 -29.332  1.00  0.00     0.167 HD
HETATM   17  C   UNL     1      -4.838   3.519 -33.122  1.00  0.00     0.043 A 
HETATM   18  C   UNL     1      -5.621   2.343 -33.035  1.00  0.00     0.035 A 
HETATM   19  H   UNL     1      -1.709  10.143 -31.596  1.00  0.00     0.162 HD
ENDROOT
BRANCH  10  20
HETATM   20  C   UNL     1      -1.027   8.899 -28.173  1.00  0.00    -0.019 A 
HETATM   21  C   UNL     1      -0.641   9.832 -27.181  1.00  0.00     0.074 A 
HETATM   22  C   UNL     1       0.695   9.907 -26.769  1.00  0.00     0.037 A 
HETATM   23  C   UNL     1       1.652   9.045 -27.305  1.00  0.00     0.003 A 
HETATM   24  C   UNL     1       1.278   8.096 -28.246  1.00  0.00     0.001 A 
HETATM   25  C   UNL     1      -0.050   8.018 -28.669  1.00  0.00     0.010 A 
BRANCH  21  26
HETATM   26  O   UNL     1      -1.637  10.629 -26.674  1.00  0.00    -0.355 OA
HETATM   27  C   UNL     1      -1.428  11.200 -25.388  1.00  0.00     0.210 C 
ENDBRANCH  21  26
ENDBRANCH  10  20
TORSDOF 2
ENDMDL
MODEL 9
REMARK VINA RESULT:      -7.6      2.889      7.769
REMARK  2 active torsions:
REMARK  status: ('A' for Active; 'I' for Inactive)
REMARK    1  A    between atoms: C_10  and  C_11 
REMARK    2  A    between atoms: C_12  and  O_13 
ROOT
HETATM    1  C   UNL     1      -9.843   7.432 -29.327  1.00  0.00     0.076 C 
HETATM    2  C   UNL     1      -8.550   7.145 -29.981  1.00  0.00     0.050 A 
HETATM    3  O   UNL     1      -8.231   5.832 -30.156  1.00  0.00    -0.312 OA
HETATM    4  C   UNL     1      -6.996   5.779 -30.755  1.00  0.00     0.121 A 
HETATM    5  C   UNL     1      -6.342   4.549 -31.062  1.00  0.00     0.163 A 
HETATM    6  N   UNL     1      -5.126   4.410 -31.537  1.00  0.00    -0.221 NA
HETATM    7  C   UNL     1      -4.895   3.041 -31.633  1.00  0.00     0.149 A 
HETATM    8  C   UNL     1      -6.030   2.349 -31.229  1.00  0.00     0.046 A 
HETATM    9  C   UNL     1      -6.426   0.918 -31.123  1.00  0.00     0.070 C 
HETATM   10  C   UNL     1      -5.330  -0.145 -31.272  1.00  0.00     0.045 C 
HETATM   11  C   UNL     1      -3.904   0.315 -30.926  1.00  0.00     0.132 C 
HETATM   12  N   UNL     1      -3.273   1.225 -31.854  1.00  0.00    -0.355 N 
HETATM   13  C   UNL     1      -3.613   2.527 -32.118  1.00  0.00     0.272 C 
HETATM   14  O   UNL     1      -2.817   3.208 -32.764  1.00  0.00    -0.266 OA
HETATM   15  N   UNL     1      -6.928   3.333 -30.875  1.00  0.00    -0.340 N 
HETATM   16  H   UNL     1      -7.867   3.202 -30.526  1.00  0.00     0.167 HD
HETATM   17  C   UNL     1      -6.549   7.071 -30.967  1.00  0.00     0.043 A 
HETATM   18  C   UNL     1      -7.545   7.946 -30.474  1.00  0.00     0.035 A 
HETATM   19  H   UNL     1      -2.345   1.001 -32.188  1.00  0.00     0.162 HD
ENDROOT
BRANCH  10  20
HETATM   20  C   UNL     1      -5.475  -0.945 -32.572  1.00  0.00    -0.019 A 
HETATM   21  C   UNL     1      -4.509  -1.911 -32.939  1.00  0.00     0.074 A 
HETATM   22  C   UNL     1      -4.648  -2.623 -34.136  1.00  0.00     0.037 A 
HETATM   23  C   UNL     1      -5.751  -2.413 -34.963  1.00  0.00     0.003 A 
HETATM   24  C   UNL     1      -6.729  -1.500 -34.592  1.00  0.00     0.001 A 
HETATM   25  C   UNL     1      -6.597  -0.780 -33.403  1.00  0.00     0.010 A 
BRANCH  21  26
HETATM   26  O   UNL     1      -3.464  -2.089 -32.067  1.00  0.00    -0.355 OA
HETATM   27  C   UNL     1      -2.998  -3.418 -31.866  1.00  0.00     0.210 C 
ENDBRANCH  21  26
ENDBRANCH  10  20
TORSDOF 2
ENDMDL
MODEL 10
REMARK VINA RESULT:      -7.6      4.689      7.903
REMARK  2 active torsions:
REMARK  status: ('A' for Active; 'I' for Inactive)
REMARK    1  A    between atoms: C_10  and  C_11 
REMARK    2  A    between atoms: C_12  and  O_13 
ROOT
HETATM    1  C   UNL     1      -4.811  -3.466 -34.273  1.00  0.00     0.076 C 
HETATM    2  C   UNL     1      -4.880  -2.028 -33.945  1.00  0.00     0.050 A 
HETATM    3  O   UNL     1      -6.102  -1.435 -34.050  1.00  0.00    -0.312 OA
HETATM    4  C   UNL     1      -5.952  -0.108 -33.727  1.00  0.00     0.121 A 
HETATM    5  C   UNL     1      -7.035   0.819 -33.758  1.00  0.00     0.163 A 
HETATM    6  N   UNL     1      -6.958   2.115 -33.564  1.00  0.00    -0.221 NA
HETATM    7  C   UNL     1      -8.245   2.616 -33.736  1.00  0.00     0.149 A 
HETATM    8  C   UNL     1      -9.117   1.570 -34.010  1.00  0.00     0.046 A 
HETATM    9  C   UNL     1     -10.579   1.438 -34.262  1.00  0.00     0.070 C 
HETATM   10  C   UNL     1     -11.386   2.721 -34.507  1.00  0.00     0.045 C 
HETATM   11  C   UNL     1     -10.588   3.916 -35.054  1.00  0.00     0.132 C 
HETATM   12  N   UNL     1      -9.674   4.559 -34.138  1.00  0.00    -0.355 N 
HETATM   13  C   UNL     1      -8.518   4.049 -33.606  1.00  0.00     0.272 C 
HETATM   14  O   UNL     1      -7.757   4.828 -33.033  1.00  0.00    -0.266 OA
HETATM   15  N   UNL     1      -8.321   0.446 -34.015  1.00  0.00    -0.340 N 
HETATM   16  H   UNL     1      -8.614  -0.506 -34.186  1.00  0.00     0.167 HD
HETATM   17  C   UNL     1      -4.626   0.124 -33.405  1.00  0.00     0.043 A 
HETATM   18  C   UNL     1      -3.940  -1.106 -33.542  1.00  0.00     0.035 A 
HETATM   19  H   UNL     1      -9.726   5.564 -34.037  1.00  0.00     0.162 HD
ENDROOT
BRANCH  10  20
HETATM   20  C   UNL     1     -12.342   3.030 -33.349  1.00  0.00    -0.019 A 
HETATM   21  C   UNL     1     -13.664   2.526 -33.349  1.00  0.00     0.074 A 
HETATM   22  C   UNL     1     -14.531   2.830 -32.292  1.00  0.00     0.037 A 
HETATM   23  C   UNL     1     -14.094   3.602 -31.216  1.00  0.00     0.003 A 
HETATM   24  C   UNL     1     -12.786   4.065 -31.183  1.00  0.00     0.001 A 
HETATM   25  C   UNL     1     -11.915   3.774 -32.235  1.00  0.00     0.010 A 
BRANCH  21  26
HETATM   26  O   UNL     1     -14.020   1.749 -34.423  1.00  0.00    -0.355 OA
HETATM   27  C   UNL     1     -14.439   0.416 -34.157  1.00  0.00     0.210 C 
ENDBRANCH  21  26
ENDBRANCH  10  20
TORSDOF 2
ENDMDL
