MODEL 1
REMARK VINA RESULT:      -8.5      0.000      0.000
REMARK  9 active torsions:
REMARK  status: ('A' for Active; 'I' for Inactive)
REMARK       I    between atoms: C_2  and  N_3 
REMARK    1  A    between atoms: N_3  and  C_4 
REMARK    2  A    between atoms: C_6  and  O_7 
REMARK    3  A    between atoms: O_7  and  C_8 
REMARK    4  A    between atoms: C_8  and  C_9 
REMARK    5  A    between atoms: C_9  and  C_10 
REMARK    6  A    between atoms: C_10  and  C_11 
REMARK    7  A    between atoms: C_11  and  N_12 
REMARK       I    between atoms: N_12  and  C_13 
REMARK    8  A    between atoms: C_13  and  C_14 
REMARK    9  A    between atoms: C_18  and  C_19 
ROOT
HETATM    1  C   UNL     1      -5.923   5.079 -33.659  1.00  0.00     0.217 C 
ENDROOT
BRANCH   1   2
HETATM    2  C   UNL     1      -4.483   5.512 -33.879  1.00  0.00    -0.085 C 
BRANCH   2   3
HETATM    3  C   UNL     1      -3.248   5.883 -34.067  1.00  0.00    -0.078 C 
BRANCH   3   4
HETATM    4  C   UNL     1      -1.808   6.317 -34.287  1.00  0.00     0.269 C 
BRANCH   4   5
HETATM    5  O   UNL     1      -1.597   7.614 -33.739  1.00  0.00    -0.339 OA
BRANCH   5   6
HETATM    6  C   UNL     1      -1.309   7.655 -32.398  1.00  0.00     0.072 A 
HETATM    7  C   UNL     1      -2.018   8.377 -31.429  1.00  0.00     0.066 A 
HETATM    8  C   UNL     1      -1.643   8.332 -30.082  1.00  0.00     0.037 A 
HETATM    9  C   UNL     1      -0.534   7.562 -29.713  1.00  0.00     0.029 A 
HETATM   10  C   UNL     1       0.181   6.844 -30.673  1.00  0.00     0.005 A 
HETATM   11  C   UNL     1      -0.208   6.890 -32.010  1.00  0.00     0.037 A 
BRANCH   8  12
HETATM   12  N   UNL     1      -2.323   9.023 -29.054  1.00  0.00    -0.327 N 
HETATM   13  C   UNL     1      -3.249   8.511 -28.163  1.00  0.00     0.218 C 
HETATM   14  C   UNL     1      -3.756   9.548 -27.191  1.00  0.00     0.117 C 
HETATM   15  O   UNL     1      -3.636   7.349 -28.088  1.00  0.00    -0.274 OA
HETATM   16  H   UNL     1      -2.085  10.002 -28.952  1.00  0.00     0.169 HD
ENDBRANCH   8  12
ENDBRANCH   5   6
ENDBRANCH   4   5
ENDBRANCH   3   4
ENDBRANCH   2   3
ENDBRANCH   1   2
BRANCH   1  17
HETATM   17  N   UNL     1      -6.051   3.702 -34.059  1.00  0.00    -0.345 N 
HETATM   18  C   UNL     1      -6.030   2.686 -33.139  1.00  0.00     0.270 C 
HETATM   19  O   UNL     1      -5.948   2.887 -31.932  1.00  0.00    -0.266 OA
HETATM   20  H   UNL     1      -6.012   3.491 -35.044  1.00  0.00     0.163 HD
BRANCH  18  21
HETATM   21  C   UNL     1      -6.101   1.361 -33.692  1.00  0.00     0.120 A 
HETATM   22  N   UNL     1      -6.873   1.080 -34.784  1.00  0.00    -0.272 N 
HETATM   23  H   UNL     1      -7.445   1.735 -35.308  1.00  0.00     0.189 HD
HETATM   24  N   UNL     1      -6.850  -0.207 -35.160  1.00  0.00    -0.174 NA
HETATM   25  C   UNL     1      -6.010  -0.800 -34.297  1.00  0.00     0.089 A 
HETATM   26  C   UNL     1      -5.517   0.154 -33.360  1.00  0.00     0.071 A 
BRANCH  25  27
HETATM   27  C   UNL     1      -5.710  -2.235 -34.370  1.00  0.00    -0.006 A 
HETATM   28  C   UNL     1      -6.669  -3.158 -34.814  1.00  0.00     0.014 A 
HETATM   29  C   UNL     1      -6.366  -4.521 -34.893  1.00  0.00     0.001 A 
HETATM   30  C   UNL     1      -5.101  -4.978 -34.530  1.00  0.00     0.000 A 
HETATM   31  C   UNL     1      -4.140  -4.076 -34.082  1.00  0.00     0.001 A 
HETATM   32  C   UNL     1      -4.443  -2.715 -34.001  1.00  0.00     0.014 A 
ENDBRANCH  25  27
ENDBRANCH  18  21
ENDBRANCH   1  17
TORSDOF 9
ENDMDL
MODEL 2
REMARK VINA RESULT:      -8.4      2.622      4.443
REMARK  9 active torsions:
REMARK  status: ('A' for Active; 'I' for Inactive)
REMARK       I    between atoms: C_2  and  N_3 
REMARK    1  A    between atoms: N_3  and  C_4 
REMARK    2  A    between atoms: C_6  and  O_7 
REMARK    3  A    between atoms: O_7  and  C_8 
REMARK    4  A    between atoms: C_8  and  C_9 
REMARK    5  A    between atoms: C_9  and  C_10 
REMARK    6  A    between atoms: C_10  and  C_11 
REMARK    7  A    between atoms: C_11  and  N_12 
REMARK       I    between atoms: N_12  and  C_13 
REMARK    8  A    between atoms: C_13  and  C_14 
REMARK    9  A    between atoms: C_18  and  C_19 
ROOT
HETATM    1  C   UNL     1      -6.911   5.349 -28.307  1.00  0.00     0.217 C 
ENDROOT
BRANCH   1   2
HETATM    2  C   UNL     1      -5.624   6.075 -27.950  1.00  0.00    -0.085 C 
BRANCH   2   3
HETATM    3  C   UNL     1      -4.520   6.698 -27.645  1.00  0.00    -0.078 C 
BRANCH   3   4
HETATM    4  C   UNL     1      -3.233   7.424 -27.289  1.00  0.00     0.269 C 
BRANCH   4   5
HETATM    5  O   UNL     1      -2.821   8.251 -28.372  1.00  0.00    -0.339 OA
BRANCH   5   6
HETATM    6  C   UNL     1      -1.837   7.734 -29.176  1.00  0.00     0.072 A 
HETATM    7  C   UNL     1      -2.037   7.082 -30.401  1.00  0.00     0.066 A 
HETATM    8  C   UNL     1      -0.954   6.607 -31.147  1.00  0.00     0.037 A 
HETATM    9  C   UNL     1       0.342   6.780 -30.646  1.00  0.00     0.029 A 
HETATM   10  C   UNL     1       0.550   7.423 -29.425  1.00  0.00     0.005 A 
HETATM   11  C   UNL     1      -0.538   7.900 -28.695  1.00  0.00     0.037 A 
BRANCH   8  12
HETATM   12  N   UNL     1      -1.085   5.955 -32.394  1.00  0.00    -0.327 N 
HETATM   13  C   UNL     1      -1.345   6.532 -33.624  1.00  0.00     0.218 C 
HETATM   14  C   UNL     1      -1.403   5.519 -34.741  1.00  0.00     0.117 C 
HETATM   15  O   UNL     1      -1.489   7.728 -33.862  1.00  0.00    -0.274 OA
HETATM   16  H   UNL     1      -0.953   4.952 -32.380  1.00  0.00     0.169 HD
ENDBRANCH   8  12
ENDBRANCH   5   6
ENDBRANCH   4   5
ENDBRANCH   3   4
ENDBRANCH   2   3
ENDBRANCH   1   2
BRANCH   1  17
HETATM   17  N   UNL     1      -6.570   4.118 -28.970  1.00  0.00    -0.345 N 
HETATM   18  C   UNL     1      -7.442   3.505 -29.831  1.00  0.00     0.270 C 
HETATM   19  O   UNL     1      -8.533   3.986 -30.122  1.00  0.00    -0.266 OA
HETATM   20  H   UNL     1      -5.733   3.639 -28.677  1.00  0.00     0.163 HD
BRANCH  18  21
HETATM   21  C   UNL     1      -6.991   2.249 -30.367  1.00  0.00     0.120 A 
HETATM   22  N   UNL     1      -6.412   1.299 -29.574  1.00  0.00    -0.272 N 
HETATM   23  H   UNL     1      -6.250   1.359 -28.573  1.00  0.00     0.189 HD
HETATM   24  N   UNL     1      -6.025   0.195 -30.230  1.00  0.00    -0.174 NA
HETATM   25  C   UNL     1      -6.383   0.412 -31.505  1.00  0.00     0.089 A 
HETATM   26  C   UNL     1      -6.996   1.691 -31.631  1.00  0.00     0.071 A 
BRANCH  25  27
HETATM   27  C   UNL     1      -6.128  -0.577 -32.559  1.00  0.00    -0.006 A 
HETATM   28  C   UNL     1      -7.137  -0.966 -33.453  1.00  0.00     0.014 A 
HETATM   29  C   UNL     1      -6.878  -1.898 -34.463  1.00  0.00     0.001 A 
HETATM   30  C   UNL     1      -5.607  -2.454 -34.591  1.00  0.00     0.000 A 
HETATM   31  C   UNL     1      -4.595  -2.083 -33.709  1.00  0.00     0.001 A 
HETATM   32  C   UNL     1      -4.855  -1.153 -32.699  1.00  0.00     0.014 A 
ENDBRANCH  25  27
ENDBRANCH  18  21
ENDBRANCH   1  17
TORSDOF 9
ENDMDL
MODEL 3
REMARK VINA RESULT:      -8.3      3.118     11.679
REMARK  9 active torsions:
REMARK  status: ('A' for Active; 'I' for Inactive)
REMARK       I    between atoms: C_2  and  N_3 
REMARK    1  A    between atoms: N_3  and  C_4 
REMARK    2  A    between atoms: C_6  and  O_7 
REMARK    3  A    between atoms: O_7  and  C_8 
REMARK    4  A    between atoms: C_8  and  C_9 
REMARK    5  A    between atoms: C_9  and  C_10 
REMARK    6  A    between atoms: C_10  and  C_11 
REMARK    7  A    between atoms: C_11  and  N_12 
REMARK       I    between atoms: N_12  and  C_13 
REMARK    8  A    between atoms: C_13  and  C_14 
REMARK    9  A    between atoms: C_18  and  C_19 
ROOT
HETATM    1  C   UNL     1      -2.264   4.271 -32.465  1.00  0.00     0.217 C 
ENDROOT
BRANCH   1   2
HETATM    2  C   UNL     1      -3.103   3.110 -31.957  1.00  0.00    -0.085 C 
BRANCH   2   3
HETATM    3  C   UNL     1      -3.823   2.113 -31.523  1.00  0.00    -0.078 C 
BRANCH   3   4
HETATM    4  C   UNL     1      -4.661   0.951 -31.017  1.00  0.00     0.269 C 
BRANCH   4   5
HETATM    5  O   UNL     1      -6.023   1.129 -31.393  1.00  0.00    -0.339 OA
BRANCH   5   6
HETATM    6  C   UNL     1      -6.380   0.600 -32.608  1.00  0.00     0.072 A 
HETATM    7  C   UNL     1      -6.398  -0.762 -32.936  1.00  0.00     0.066 A 
HETATM    8  C   UNL     1      -6.796  -1.190 -34.206  1.00  0.00     0.037 A 
HETATM    9  C   UNL     1      -7.166  -0.233 -35.159  1.00  0.00     0.029 A 
HETATM   10  C   UNL     1      -7.146   1.126 -34.842  1.00  0.00     0.005 A 
HETATM   11  C   UNL     1      -6.755   1.539 -33.569  1.00  0.00     0.037 A 
BRANCH   8  12
HETATM   12  N   UNL     1      -6.851  -2.547 -34.596  1.00  0.00    -0.327 N 
HETATM   13  C   UNL     1      -5.794  -3.367 -34.949  1.00  0.00     0.218 C 
HETATM   14  C   UNL     1      -6.235  -4.768 -35.295  1.00  0.00     0.117 C 
HETATM   15  O   UNL     1      -4.604  -3.068 -34.967  1.00  0.00    -0.274 OA
HETATM   16  H   UNL     1      -7.772  -2.966 -34.597  1.00  0.00     0.169 HD
ENDBRANCH   8  12
ENDBRANCH   5   6
ENDBRANCH   4   5
ENDBRANCH   3   4
ENDBRANCH   2   3
ENDBRANCH   1   2
BRANCH   1  17
HETATM   17  N   UNL     1      -1.974   5.142 -31.356  1.00  0.00    -0.345 N 
HETATM   18  C   UNL     1      -0.692   5.323 -30.906  1.00  0.00     0.270 C 
HETATM   19  O   UNL     1       0.279   4.798 -31.443  1.00  0.00    -0.266 OA
HETATM   20  H   UNL     1      -2.750   5.504 -30.824  1.00  0.00     0.163 HD
BRANCH  18  21
HETATM   21  C   UNL     1      -0.564   6.169 -29.750  1.00  0.00     0.120 A 
HETATM   22  N   UNL     1      -1.650   6.533 -29.004  1.00  0.00    -0.272 N 
HETATM   23  H   UNL     1      -2.615   6.259 -29.163  1.00  0.00     0.189 HD
HETATM   24  N   UNL     1      -1.365   7.343 -27.975  1.00  0.00    -0.174 NA
HETATM   25  C   UNL     1      -0.034   7.505 -28.025  1.00  0.00     0.089 A 
HETATM   26  C   UNL     1       0.506   6.780 -29.126  1.00  0.00     0.071 A 
BRANCH  25  27
HETATM   27  C   UNL     1       0.682   8.339 -27.053  1.00  0.00    -0.006 A 
HETATM   28  C   UNL     1       1.737   7.822 -26.286  1.00  0.00     0.014 A 
HETATM   29  C   UNL     1       2.421   8.631 -25.373  1.00  0.00     0.001 A 
HETATM   30  C   UNL     1       2.058   9.967 -25.214  1.00  0.00     0.000 A 
HETATM   31  C   UNL     1       1.010  10.494 -25.963  1.00  0.00     0.001 A 
HETATM   32  C   UNL     1       0.325   9.686 -26.874  1.00  0.00     0.014 A 
ENDBRANCH  25  27
ENDBRANCH  18  21
ENDBRANCH   1  17
TORSDOF 9
ENDMDL
MODEL 4
REMARK VINA RESULT:      -8.3      2.791     10.147
REMARK  9 active torsions:
REMARK  status: ('A' for Active; 'I' for Inactive)
REMARK       I    between atoms: C_2  and  N_3 
REMARK    1  A    between atoms: N_3  and  C_4 
REMARK    2  A    between atoms: C_6  and  O_7 
REMARK    3  A    between atoms: O_7  and  C_8 
REMARK    4  A    between atoms: C_8  and  C_9 
REMARK    5  A    between atoms: C_9  and  C_10 
REMARK    6  A    between atoms: C_10  and  C_11 
REMARK    7  A    between atoms: C_11  and  N_12 
REMARK       I    between atoms: N_12  and  C_13 
REMARK    8  A    between atoms: C_13  and  C_14 
REMARK    9  A    between atoms: C_18  and  C_19 
ROOT
HETATM    1  C   UNL     1      -3.627   5.366 -34.719  1.00  0.00     0.217 C 
ENDROOT
BRANCH   1   2
HETATM    2  C   UNL     1      -5.010   4.833 -34.379  1.00  0.00    -0.085 C 
BRANCH   2   3
HETATM    3  C   UNL     1      -6.195   4.376 -34.088  1.00  0.00    -0.078 C 
BRANCH   3   4
HETATM    4  C   UNL     1      -7.577   3.843 -33.749  1.00  0.00     0.269 C 
BRANCH   4   5
HETATM    5  O   UNL     1      -7.474   2.763 -32.827  1.00  0.00    -0.339 OA
BRANCH   5   6
HETATM    6  C   UNL     1      -7.085   1.559 -33.360  1.00  0.00     0.072 A 
HETATM    7  C   UNL     1      -6.218   0.638 -32.759  1.00  0.00     0.066 A 
HETATM    8  C   UNL     1      -5.903  -0.570 -33.390  1.00  0.00     0.037 A 
HETATM    9  C   UNL     1      -6.459  -0.844 -34.645  1.00  0.00     0.029 A 
HETATM   10  C   UNL     1      -7.320   0.071 -35.254  1.00  0.00     0.005 A 
HETATM   11  C   UNL     1      -7.632   1.267 -34.610  1.00  0.00     0.037 A 
BRANCH   8  12
HETATM   12  N   UNL     1      -5.048  -1.548 -32.833  1.00  0.00    -0.327 N 
HETATM   13  C   UNL     1      -3.692  -1.439 -32.585  1.00  0.00     0.218 C 
HETATM   14  C   UNL     1      -3.111  -2.688 -31.967  1.00  0.00     0.117 C 
HETATM   15  O   UNL     1      -2.982  -0.458 -32.785  1.00  0.00    -0.274 OA
HETATM   16  H   UNL     1      -5.491  -2.419 -32.571  1.00  0.00     0.169 HD
ENDBRANCH   8  12
ENDBRANCH   5   6
ENDBRANCH   4   5
ENDBRANCH   3   4
ENDBRANCH   2   3
ENDBRANCH   1   2
BRANCH   1  17
HETATM   17  N   UNL     1      -2.870   5.476 -33.500  1.00  0.00    -0.345 N 
HETATM   18  C   UNL     1      -1.649   6.098 -33.470  1.00  0.00     0.270 C 
HETATM   19  O   UNL     1      -1.154   6.633 -34.458  1.00  0.00    -0.266 OA
HETATM   20  H   UNL     1      -3.190   4.959 -32.696  1.00  0.00     0.163 HD
BRANCH  18  21
HETATM   21  C   UNL     1      -0.981   6.073 -32.197  1.00  0.00     0.120 A 
HETATM   22  N   UNL     1      -0.337   4.956 -31.747  1.00  0.00    -0.272 N 
HETATM   23  H   UNL     1      -0.251   4.067 -32.232  1.00  0.00     0.189 HD
HETATM   24  N   UNL     1       0.214   5.088 -30.532  1.00  0.00    -0.174 NA
HETATM   25  C   UNL     1      -0.055   6.352 -30.171  1.00  0.00     0.089 A 
HETATM   26  C   UNL     1      -0.802   7.005 -31.193  1.00  0.00     0.071 A 
BRANCH  25  27
HETATM   27  C   UNL     1       0.384   6.899 -28.882  1.00  0.00    -0.006 A 
HETATM   28  C   UNL     1       1.125   8.088 -28.808  1.00  0.00     0.014 A 
HETATM   29  C   UNL     1       1.525   8.607 -27.573  1.00  0.00     0.001 A 
HETATM   30  C   UNL     1       1.190   7.943 -26.395  1.00  0.00     0.000 A 
HETATM   31  C   UNL     1       0.461   6.758 -26.450  1.00  0.00     0.001 A 
HETATM   32  C   UNL     1       0.062   6.239 -27.684  1.00  0.00     0.014 A 
ENDBRANCH  25  27
ENDBRANCH  18  21
ENDBRANCH   1  17
TORSDOF 9
ENDMDL
MODEL 5
REMARK VINA RESULT:      -8.3      3.355     11.081
REMARK  9 active torsions:
REMARK  status: ('A' for Active; 'I' for Inactive)
REMARK       I    between atoms: C_2  and  N_3 
REMARK    1  A    between atoms: N_3  and  C_4 
REMARK    2  A    between atoms: C_6  and  O_7 
REMARK    3  A    between atoms: O_7  and  C_8 
REMARK    4  A    between atoms: C_8  and  C_9 
REMARK    5  A    between atoms: C_9  and  C_10 
REMARK    6  A    between atoms: C_10  and  C_11 
REMARK    7  A    between atoms: C_11  and  N_12 
REMARK       I    between atoms: N_12  and  C_13 
REMARK    8  A    between atoms: C_13  and  C_14 
REMARK    9  A    between atoms: C_18  and  C_19 
ROOT
HETATM    1  C   UNL     1      -3.010   3.333 -32.348  1.00  0.00     0.217 C 
ENDROOT
BRANCH   1   2
HETATM    2  C   UNL     1      -4.093   2.483 -31.702  1.00  0.00    -0.085 C 
BRANCH   2   3
HETATM    3  C   UNL     1      -5.021   1.755 -31.148  1.00  0.00    -0.078 C 
BRANCH   3   4
HETATM    4  C   UNL     1      -6.104   0.906 -30.502  1.00  0.00     0.269 C 
BRANCH   4   5
HETATM    5  O   UNL     1      -6.270  -0.310 -31.225  1.00  0.00    -0.339 OA
BRANCH   5   6
HETATM    6  C   UNL     1      -6.812  -0.188 -32.479  1.00  0.00     0.072 A 
HETATM    7  C   UNL     1      -7.915   0.605 -32.823  1.00  0.00     0.066 A 
HETATM    8  C   UNL     1      -8.374   0.665 -34.143  1.00  0.00     0.037 A 
HETATM    9  C   UNL     1      -7.721  -0.092 -35.122  1.00  0.00     0.029 A 
HETATM   10  C   UNL     1      -6.624  -0.889 -34.788  1.00  0.00     0.005 A 
HETATM   11  C   UNL     1      -6.172  -0.934 -33.470  1.00  0.00     0.037 A 
BRANCH   8  12
HETATM   12  N   UNL     1      -9.469   1.455 -34.558  1.00  0.00    -0.327 N 
HETATM   13  C   UNL     1     -10.797   1.313 -34.194  1.00  0.00     0.218 C 
HETATM   14  C   UNL     1     -11.687   2.354 -34.828  1.00  0.00     0.117 C 
HETATM   15  O   UNL     1     -11.265   0.483 -33.421  1.00  0.00    -0.274 OA
HETATM   16  H   UNL     1      -9.246   2.223 -35.178  1.00  0.00     0.169 HD
ENDBRANCH   8  12
ENDBRANCH   5   6
ENDBRANCH   4   5
ENDBRANCH   3   4
ENDBRANCH   2   3
ENDBRANCH   1   2
BRANCH   1  17
HETATM   17  N   UNL     1      -2.288   4.016 -31.308  1.00  0.00    -0.345 N 
HETATM   18  C   UNL     1      -1.351   4.974 -31.599  1.00  0.00     0.270 C 
HETATM   19  O   UNL     1      -1.108   5.335 -32.746  1.00  0.00    -0.266 OA
HETATM   20  H   UNL     1      -2.380   3.674 -30.364  1.00  0.00     0.163 HD
BRANCH  18  21
HETATM   21  C   UNL     1      -0.663   5.521 -30.461  1.00  0.00     0.120 A 
HETATM   22  N   UNL     1       0.141   4.751 -29.670  1.00  0.00    -0.272 N 
HETATM   23  H   UNL     1       0.344   3.762 -29.790  1.00  0.00     0.189 HD
HETATM   24  N   UNL     1       0.689   5.406 -28.636  1.00  0.00    -0.174 NA
HETATM   25  C   UNL     1       0.250   6.668 -28.760  1.00  0.00     0.089 A 
HETATM   26  C   UNL     1      -0.601   6.781 -29.897  1.00  0.00     0.071 A 
BRANCH  25  27
HETATM   27  C   UNL     1       0.630   7.716 -27.806  1.00  0.00    -0.006 A 
HETATM   28  C   UNL     1       0.017   8.978 -27.828  1.00  0.00     0.014 A 
HETATM   29  C   UNL     1       0.378   9.965 -26.904  1.00  0.00     0.001 A 
HETATM   30  C   UNL     1       1.356   9.702 -25.947  1.00  0.00     0.000 A 
HETATM   31  C   UNL     1       1.979   8.457 -25.916  1.00  0.00     0.001 A 
HETATM   32  C   UNL     1       1.620   7.472 -26.840  1.00  0.00     0.014 A 
ENDBRANCH  25  27
ENDBRANCH  18  21
ENDBRANCH   1  17
TORSDOF 9
ENDMDL
MODEL 6
REMARK VINA RESULT:      -8.1      1.974      2.153
REMARK  9 active torsions:
REMARK  status: ('A' for Active; 'I' for Inactive)
REMARK       I    between atoms: C_2  and  N_3 
REMARK    1  A    between atoms: N_3  and  C_4 
REMARK    2  A    between atoms: C_6  and  O_7 
REMARK    3  A    between atoms: O_7  and  C_8 
REMARK    4  A    between atoms: C_8  and  C_9 
REMARK    5  A    between atoms: C_9  and  C_10 
REMARK    6  A    between atoms: C_10  and  C_11 
REMARK    7  A    between atoms: C_11  and  N_12 
REMARK       I    between atoms: N_12  and  C_13 
REMARK    8  A    between atoms: C_13  and  C_14 
REMARK    9  A    between atoms: C_18  and  C_19 
ROOT
HETATM    1  C   UNL     1      -5.549   5.263 -33.144  1.00  0.00     0.217 C 
ENDROOT
BRANCH   1   2
HETATM    2  C   UNL     1      -4.225   6.010 -33.129  1.00  0.00    -0.085 C 
BRANCH   2   3
HETATM    3  C   UNL     1      -3.090   6.652 -33.116  1.00  0.00    -0.078 C 
BRANCH   3   4
HETATM    4  C   UNL     1      -1.767   7.399 -33.101  1.00  0.00     0.269 C 
BRANCH   4   5
HETATM    5  O   UNL     1      -0.698   6.499 -32.829  1.00  0.00    -0.339 OA
BRANCH   5   6
HETATM    6  C   UNL     1      -0.339   6.383 -31.509  1.00  0.00     0.072 A 
HETATM    7  C   UNL     1      -0.501   7.367 -30.525  1.00  0.00     0.066 A 
HETATM    8  C   UNL     1      -0.112   7.132 -29.202  1.00  0.00     0.037 A 
HETATM    9  C   UNL     1       0.459   5.897 -28.874  1.00  0.00     0.029 A 
HETATM   10  C   UNL     1       0.630   4.913 -29.849  1.00  0.00     0.005 A 
HETATM   11  C   UNL     1       0.229   5.157 -31.162  1.00  0.00     0.037 A 
BRANCH   8  12
HETATM   12  N   UNL     1      -0.261   8.075 -28.161  1.00  0.00    -0.327 N 
HETATM   13  C   UNL     1       0.731   8.819 -27.549  1.00  0.00     0.218 C 
HETATM   14  C   UNL     1       0.193   9.738 -26.480  1.00  0.00     0.117 C 
HETATM   15  O   UNL     1       1.929   8.812 -27.816  1.00  0.00    -0.274 OA
HETATM   16  H   UNL     1      -1.210   8.232 -27.844  1.00  0.00     0.169 HD
ENDBRANCH   8  12
ENDBRANCH   5   6
ENDBRANCH   4   5
ENDBRANCH   3   4
ENDBRANCH   2   3
ENDBRANCH   1   2
BRANCH   1  17
HETATM   17  N   UNL     1      -5.275   3.854 -33.247  1.00  0.00    -0.345 N 
HETATM   18  C   UNL     1      -6.281   2.942 -33.431  1.00  0.00     0.270 C 
HETATM   19  O   UNL     1      -7.457   3.270 -33.562  1.00  0.00    -0.266 OA
HETATM   20  H   UNL     1      -4.341   3.537 -33.037  1.00  0.00     0.163 HD
BRANCH  18  21
HETATM   21  C   UNL     1      -5.863   1.567 -33.449  1.00  0.00     0.120 A 
HETATM   22  N   UNL     1      -4.746   1.147 -32.783  1.00  0.00    -0.272 N 
HETATM   23  H   UNL     1      -4.122   1.721 -32.223  1.00  0.00     0.189 HD
HETATM   24  N   UNL     1      -4.480  -0.160 -32.920  1.00  0.00    -0.174 NA
HETATM   25  C   UNL     1      -5.474  -0.632 -33.688  1.00  0.00     0.089 A 
HETATM   26  C   UNL     1      -6.365   0.423 -34.039  1.00  0.00     0.071 A 
BRANCH  25  27
HETATM   27  C   UNL     1      -5.547  -2.045 -34.077  1.00  0.00    -0.006 A 
HETATM   28  C   UNL     1      -6.737  -2.606 -34.565  1.00  0.00     0.014 A 
HETATM   29  C   UNL     1      -6.790  -3.951 -34.946  1.00  0.00     0.001 A 
HETATM   30  C   UNL     1      -5.655  -4.752 -34.842  1.00  0.00     0.000 A 
HETATM   31  C   UNL     1      -4.468  -4.213 -34.353  1.00  0.00     0.001 A 
HETATM   32  C   UNL     1      -4.415  -2.870 -33.971  1.00  0.00     0.014 A 
ENDBRANCH  25  27
ENDBRANCH  18  21
ENDBRANCH   1  17
TORSDOF 9
ENDMDL
MODEL 7
REMARK VINA RESULT:      -8.0      3.197     11.267
REMARK  9 active torsions:
REMARK  status: ('A' for Active; 'I' for Inactive)
REMARK       I    between atoms: C_2  and  N_3 
REMARK    1  A    between atoms: N_3  and  C_4 
REMARK    2  A    between atoms: C_6  and  O_7 
REMARK    3  A    between atoms: O_7  and  C_8 
REMARK    4  A    between atoms: C_8  and  C_9 
REMARK    5  A    between atoms: C_9  and  C_10 
REMARK    6  A    between atoms: C_10  and  C_11 
REMARK    7  A    between atoms: C_11  and  N_12 
REMARK       I    between atoms: N_12  and  C_13 
REMARK    8  A    between atoms: C_13  and  C_14 
REMARK    9  A    between atoms: C_18  and  C_19 
ROOT
HETATM    1  C   UNL     1      -2.508   4.058 -32.299  1.00  0.00     0.217 C 
ENDROOT
BRANCH   1   2
HETATM    2  C   UNL     1      -3.075   2.749 -31.773  1.00  0.00    -0.085 C 
BRANCH   2   3
HETATM    3  C   UNL     1      -3.562   1.627 -31.321  1.00  0.00    -0.078 C 
BRANCH   3   4
HETATM    4  C   UNL     1      -4.129   0.319 -30.795  1.00  0.00     0.269 C 
BRANCH   4   5
HETATM    5  O   UNL     1      -3.917  -0.724 -31.741  1.00  0.00    -0.339 OA
BRANCH   5   6
HETATM    6  C   UNL     1      -4.967  -0.984 -32.586  1.00  0.00     0.072 A 
HETATM    7  C   UNL     1      -6.277  -0.510 -32.435  1.00  0.00     0.066 A 
HETATM    8  C   UNL     1      -7.267  -0.827 -33.371  1.00  0.00     0.037 A 
HETATM    9  C   UNL     1      -6.935  -1.641 -34.460  1.00  0.00     0.029 A 
HETATM   10  C   UNL     1      -5.634  -2.122 -34.615  1.00  0.00     0.005 A 
HETATM   11  C   UNL     1      -4.654  -1.791 -33.680  1.00  0.00     0.037 A 
BRANCH   8  12
HETATM   12  N   UNL     1      -8.602  -0.370 -33.287  1.00  0.00    -0.327 N 
HETATM   13  C   UNL     1      -9.139   0.774 -33.849  1.00  0.00     0.218 C 
HETATM   14  C   UNL     1     -10.611   0.930 -33.557  1.00  0.00     0.117 C 
HETATM   15  O   UNL     1      -8.554   1.597 -34.547  1.00  0.00    -0.274 OA
HETATM   16  H   UNL     1      -9.237  -0.964 -32.769  1.00  0.00     0.169 HD
ENDBRANCH   8  12
ENDBRANCH   5   6
ENDBRANCH   4   5
ENDBRANCH   3   4
ENDBRANCH   2   3
ENDBRANCH   1   2
BRANCH   1  17
HETATM   17  N   UNL     1      -2.244   4.922 -31.179  1.00  0.00    -0.345 N 
HETATM   18  C   UNL     1      -0.964   5.215 -30.789  1.00  0.00     0.270 C 
HETATM   19  O   UNL     1       0.023   4.801 -31.390  1.00  0.00    -0.266 OA
HETATM   20  H   UNL     1      -3.022   5.193 -30.597  1.00  0.00     0.163 HD
BRANCH  18  21
HETATM   21  C   UNL     1      -0.856   6.038 -29.614  1.00  0.00     0.120 A 
HETATM   22  N   UNL     1      -1.956   6.591 -29.023  1.00  0.00    -0.272 N 
HETATM   23  H   UNL     1      -2.922   6.487 -29.320  1.00  0.00     0.189 HD
HETATM   24  N   UNL     1      -1.684   7.351 -27.952  1.00  0.00    -0.174 NA
HETATM   25  C   UNL     1      -0.351   7.279 -27.813  1.00  0.00     0.089 A 
HETATM   26  C   UNL     1       0.205   6.461 -28.837  1.00  0.00     0.071 A 
BRANCH  25  27
HETATM   27  C   UNL     1       0.354   7.987 -26.737  1.00  0.00    -0.006 A 
HETATM   28  C   UNL     1       1.747   7.902 -26.600  1.00  0.00     0.014 A 
HETATM   29  C   UNL     1       2.409   8.593 -25.579  1.00  0.00     0.001 A 
HETATM   30  C   UNL     1       1.686   9.378 -24.684  1.00  0.00     0.000 A 
HETATM   31  C   UNL     1       0.301   9.469 -24.803  1.00  0.00     0.001 A 
HETATM   32  C   UNL     1      -0.360   8.777 -25.821  1.00  0.00     0.014 A 
ENDBRANCH  25  27
ENDBRANCH  18  21
ENDBRANCH   1  17
TORSDOF 9
ENDMDL
MODEL 8
REMARK VINA RESULT:      -7.9      2.242      2.826
REMARK  9 active torsions:
REMARK  status: ('A' for Active; 'I' for Inactive)
REMARK       I    between atoms: C_2  and  N_3 
REMARK    1  A    between atoms: N_3  and  C_4 
REMARK    2  A    between atoms: C_6  and  O_7 
REMARK    3  A    between atoms: O_7  and  C_8 
REMARK    4  A    between atoms: C_8  and  C_9 
REMARK    5  A    between atoms: C_9  and  C_10 
REMARK    6  A    between atoms: C_10  and  C_11 
REMARK    7  A    between atoms: C_11  and  N_12 
REMARK       I    between atoms: N_12  and  C_13 
REMARK    8  A    between atoms: C_13  and  C_14 
REMARK    9  A    between atoms: C_18  and  C_19 
ROOT
HETATM    1  C   UNL     1      -7.772   3.209 -30.259  1.00  0.00     0.217 C 
ENDROOT
BRANCH   1   2
HETATM    2  C   UNL     1      -6.617   4.188 -30.120  1.00  0.00    -0.085 C 
BRANCH   2   3
HETATM    3  C   UNL     1      -5.627   5.028 -30.001  1.00  0.00    -0.078 C 
BRANCH   3   4
HETATM    4  C   UNL     1      -4.473   6.007 -29.864  1.00  0.00     0.269 C 
BRANCH   4   5
HETATM    5  O   UNL     1      -3.718   6.048 -31.070  1.00  0.00    -0.339 OA
BRANCH   5   6
HETATM    6  C   UNL     1      -2.354   6.059 -30.919  1.00  0.00     0.072 A 
HETATM    7  C   UNL     1      -1.647   6.700 -29.893  1.00  0.00     0.066 A 
HETATM    8  C   UNL     1      -0.252   6.630 -29.829  1.00  0.00     0.037 A 
HETATM    9  C   UNL     1       0.437   5.918 -30.817  1.00  0.00     0.029 A 
HETATM   10  C   UNL     1      -0.258   5.281 -31.846  1.00  0.00     0.005 A 
HETATM   11  C   UNL     1      -1.649   5.351 -31.894  1.00  0.00     0.037 A 
BRANCH   8  12
HETATM   12  N   UNL     1       0.519   7.241 -28.814  1.00  0.00    -0.327 N 
HETATM   13  C   UNL     1       0.556   6.913 -27.470  1.00  0.00     0.218 C 
HETATM   14  C   UNL     1       1.511   7.779 -26.686  1.00  0.00     0.117 C 
HETATM   15  O   UNL     1      -0.063   6.010 -26.915  1.00  0.00    -0.274 OA
HETATM   16  H   UNL     1       1.126   7.993 -29.116  1.00  0.00     0.169 HD
ENDBRANCH   8  12
ENDBRANCH   5   6
ENDBRANCH   4   5
ENDBRANCH   3   4
ENDBRANCH   2   3
ENDBRANCH   1   2
BRANCH   1  17
HETATM   17  N   UNL     1      -7.361   2.142 -31.133  1.00  0.00    -0.345 N 
HETATM   18  C   UNL     1      -7.467   2.254 -32.495  1.00  0.00     0.270 C 
HETATM   19  O   UNL     1      -7.870   3.273 -33.047  1.00  0.00    -0.266 OA
HETATM   20  H   UNL     1      -7.128   1.254 -30.718  1.00  0.00     0.163 HD
BRANCH  18  21
HETATM   21  C   UNL     1      -7.080   1.084 -33.236  1.00  0.00     0.120 A 
HETATM   22  N   UNL     1      -7.151   1.043 -34.600  1.00  0.00    -0.272 N 
HETATM   23  H   UNL     1      -7.459   1.791 -35.215  1.00  0.00     0.189 HD
HETATM   24  N   UNL     1      -6.778  -0.128 -35.137  1.00  0.00    -0.174 NA
HETATM   25  C   UNL     1      -6.421  -0.886 -34.088  1.00  0.00     0.089 A 
HETATM   26  C   UNL     1      -6.595  -0.158 -32.876  1.00  0.00     0.071 A 
BRANCH  25  27
HETATM   27  C   UNL     1      -5.945  -2.264 -34.256  1.00  0.00    -0.006 A 
HETATM   28  C   UNL     1      -6.791  -3.273 -34.740  1.00  0.00     0.014 A 
HETATM   29  C   UNL     1      -6.321  -4.580 -34.910  1.00  0.00     0.001 A 
HETATM   30  C   UNL     1      -5.000  -4.894 -34.597  1.00  0.00     0.000 A 
HETATM   31  C   UNL     1      -4.149  -3.905 -34.110  1.00  0.00     0.001 A 
HETATM   32  C   UNL     1      -4.619  -2.601 -33.939  1.00  0.00     0.014 A 
ENDBRANCH  25  27
ENDBRANCH  18  21
ENDBRANCH   1  17
TORSDOF 9
ENDMDL
MODEL 9
REMARK VINA RESULT:      -7.9      3.018      4.474
REMARK  9 active torsions:
REMARK  status: ('A' for Active; 'I' for Inactive)
REMARK       I    between atoms: C_2  and  N_3 
REMARK    1  A    between atoms: N_3  and  C_4 
REMARK    2  A    between atoms: C_6  and  O_7 
REMARK    3  A    between atoms: O_7  and  C_8 
REMARK    4  A    between atoms: C_8  and  C_9 
REMARK    5  A    between atoms: C_9  and  C_10 
REMARK    6  A    between atoms: C_10  and  C_11 
REMARK    7  A    between atoms: C_11  and  N_12 
REMARK       I    between atoms: N_12  and  C_13 
REMARK    8  A    between atoms: C_13  and  C_14 
REMARK    9  A    between atoms: C_18  and  C_19 
ROOT
HETATM    1  C   UNL     1      -8.915   3.777 -31.555  1.00  0.00     0.217 C 
ENDROOT
BRANCH   1   2
HETATM    2  C   UNL     1      -7.988   4.981 -31.615  1.00  0.00    -0.085 C 
BRANCH   2   3
HETATM    3  C   UNL     1      -7.193   6.012 -31.665  1.00  0.00    -0.078 C 
BRANCH   3   4
HETATM    4  C   UNL     1      -6.266   7.215 -31.724  1.00  0.00     0.269 C 
BRANCH   4   5
HETATM    5  O   UNL     1      -5.046   6.928 -31.048  1.00  0.00    -0.339 OA
BRANCH   5   6
HETATM    6  C   UNL     1      -4.271   5.945 -31.611  1.00  0.00     0.072 A 
HETATM    7  C   UNL     1      -4.131   4.636 -31.133  1.00  0.00     0.066 A 
HETATM    8  C   UNL     1      -3.323   3.709 -31.800  1.00  0.00     0.037 A 
HETATM    9  C   UNL     1      -2.639   4.113 -32.953  1.00  0.00     0.029 A 
HETATM   10  C   UNL     1      -2.768   5.417 -33.433  1.00  0.00     0.005 A 
HETATM   11  C   UNL     1      -3.584   6.328 -32.764  1.00  0.00     0.037 A 
BRANCH   8  12
HETATM   12  N   UNL     1      -3.150   2.371 -31.379  1.00  0.00    -0.327 N 
HETATM   13  C   UNL     1      -3.790   1.245 -31.865  1.00  0.00     0.218 C 
HETATM   14  C   UNL     1      -3.339  -0.021 -31.180  1.00  0.00     0.117 C 
HETATM   15  O   UNL     1      -4.615   1.200 -32.773  1.00  0.00    -0.274 OA
HETATM   16  H   UNL     1      -2.463   2.226 -30.650  1.00  0.00     0.169 HD
ENDBRANCH   8  12
ENDBRANCH   5   6
ENDBRANCH   4   5
ENDBRANCH   3   4
ENDBRANCH   2   3
ENDBRANCH   1   2
BRANCH   1  17
HETATM   17  N   UNL     1      -8.317   2.705 -32.308  1.00  0.00    -0.345 N 
HETATM   18  C   UNL     1      -9.085   1.765 -32.943  1.00  0.00     0.270 C 
HETATM   19  O   UNL     1     -10.311   1.803 -32.949  1.00  0.00    -0.266 OA
HETATM   20  H   UNL     1      -7.320   2.578 -32.238  1.00  0.00     0.163 HD
BRANCH  18  21
HETATM   21  C   UNL     1      -8.349   0.718 -33.600  1.00  0.00     0.120 A 
HETATM   22  N   UNL     1      -8.243   0.660 -34.961  1.00  0.00    -0.272 N 
HETATM   23  H   UNL     1      -8.641   1.314 -35.629  1.00  0.00     0.189 HD
HETATM   24  N   UNL     1      -7.545  -0.390 -35.416  1.00  0.00    -0.174 NA
HETATM   25  C   UNL     1      -7.150  -1.042 -34.312  1.00  0.00     0.089 A 
HETATM   26  C   UNL     1      -7.634  -0.375 -33.150  1.00  0.00     0.071 A 
BRANCH  25  27
HETATM   27  C   UNL     1      -6.349  -2.270 -34.383  1.00  0.00    -0.006 A 
HETATM   28  C   UNL     1      -4.990  -2.274 -34.032  1.00  0.00     0.014 A 
HETATM   29  C   UNL     1      -4.240  -3.454 -34.090  1.00  0.00     0.001 A 
HETATM   30  C   UNL     1      -4.839  -4.643 -34.500  1.00  0.00     0.000 A 
HETATM   31  C   UNL     1      -6.185  -4.655 -34.857  1.00  0.00     0.001 A 
HETATM   32  C   UNL     1      -6.934  -3.476 -34.801  1.00  0.00     0.014 A 
ENDBRANCH  25  27
ENDBRANCH  18  21
ENDBRANCH   1  17
TORSDOF 9
ENDMDL
MODEL 10
REMARK VINA RESULT:      -7.6      2.594     10.653
REMARK  9 active torsions:
REMARK  status: ('A' for Active; 'I' for Inactive)
REMARK       I    between atoms: C_2  and  N_3 
REMARK    1  A    between atoms: N_3  and  C_4 
REMARK    2  A    between atoms: C_6  and  O_7 
REMARK    3  A    between atoms: O_7  and  C_8 
REMARK    4  A    between atoms: C_8  and  C_9 
REMARK    5  A    between atoms: C_9  and  C_10 
REMARK    6  A    between atoms: C_10  and  C_11 
REMARK    7  A    between atoms: C_11  and  N_12 
REMARK       I    between atoms: N_12  and  C_13 
REMARK    8  A    between atoms: C_13  and  C_14 
REMARK    9  A    between atoms: C_18  and  C_19 
ROOT
HETATM    1  C   UNL     1      -2.312   6.170 -34.222  1.00  0.00     0.217 C 
ENDROOT
BRANCH   1   2
HETATM    2  C   UNL     1      -3.622   5.401 -34.153  1.00  0.00    -0.085 C 
BRANCH   2   3
HETATM    3  C   UNL     1      -4.745   4.742 -34.093  1.00  0.00    -0.078 C 
BRANCH   3   4
HETATM    4  C   UNL     1      -6.054   3.973 -34.024  1.00  0.00     0.269 C 
BRANCH   4   5
HETATM    5  O   UNL     1      -6.388   3.696 -32.667  1.00  0.00    -0.339 OA
BRANCH   5   6
HETATM    6  C   UNL     1      -6.336   2.375 -32.299  1.00  0.00     0.072 A 
HETATM    7  C   UNL     1      -6.472   1.278 -33.159  1.00  0.00     0.066 A 
HETATM    8  C   UNL     1      -6.385  -0.031 -32.673  1.00  0.00     0.037 A 
HETATM    9  C   UNL     1      -6.173  -0.233 -31.305  1.00  0.00     0.029 A 
HETATM   10  C   UNL     1      -6.042   0.854 -30.440  1.00  0.00     0.005 A 
HETATM   11  C   UNL     1      -6.122   2.154 -30.938  1.00  0.00     0.037 A 
BRANCH   8  12
HETATM   12  N   UNL     1      -6.498  -1.180 -33.488  1.00  0.00    -0.327 N 
HETATM   13  C   UNL     1      -5.473  -1.918 -34.053  1.00  0.00     0.218 C 
HETATM   14  C   UNL     1      -5.975  -3.093 -34.855  1.00  0.00     0.117 C 
HETATM   15  O   UNL     1      -4.268  -1.719 -33.931  1.00  0.00    -0.274 OA
HETATM   16  H   UNL     1      -7.441  -1.506 -33.658  1.00  0.00     0.169 HD
ENDBRANCH   8  12
ENDBRANCH   5   6
ENDBRANCH   4   5
ENDBRANCH   3   4
ENDBRANCH   2   3
ENDBRANCH   1   2
BRANCH   1  17
HETATM   17  N   UNL     1      -1.988   6.637 -32.900  1.00  0.00    -0.345 N 
HETATM   18  C   UNL     1      -1.246   5.877 -32.035  1.00  0.00     0.270 C 
HETATM   19  O   UNL     1      -0.778   4.786 -32.346  1.00  0.00    -0.266 OA
HETATM   20  H   UNL     1      -2.442   7.475 -32.571  1.00  0.00     0.163 HD
BRANCH  18  21
HETATM   21  C   UNL     1      -1.059   6.445 -30.728  1.00  0.00     0.120 A 
HETATM   22  N   UNL     1      -2.068   6.474 -29.807  1.00  0.00    -0.272 N 
HETATM   23  H   UNL     1      -3.010   6.112 -29.927  1.00  0.00     0.189 HD
HETATM   24  N   UNL     1      -1.740   7.060 -28.647  1.00  0.00    -0.174 NA
HETATM   25  C   UNL     1      -0.453   7.412 -28.794  1.00  0.00     0.089 A 
HETATM   26  C   UNL     1       0.011   7.041 -30.088  1.00  0.00     0.071 A 
BRANCH  25  27
HETATM   27  C   UNL     1       0.289   8.094 -27.727  1.00  0.00    -0.006 A 
HETATM   28  C   UNL     1       1.306   7.440 -27.014  1.00  0.00     0.014 A 
HETATM   29  C   UNL     1       2.016   8.105 -26.009  1.00  0.00     0.001 A 
HETATM   30  C   UNL     1       1.719   9.432 -25.704  1.00  0.00     0.000 A 
HETATM   31  C   UNL     1       0.709  10.093 -26.398  1.00  0.00     0.001 A 
HETATM   32  C   UNL     1      -0.002   9.429 -27.401  1.00  0.00     0.014 A 
ENDBRANCH  25  27
ENDBRANCH  18  21
ENDBRANCH   1  17
TORSDOF 9
ENDMDL
