MODEL 1
REMARK VINA RESULT:      -8.9      0.000      0.000
REMARK  7 active torsions:
REMARK  status: ('A' for Active; 'I' for Inactive)
REMARK    1  A    between atoms: C_6  and  N_7 
REMARK       I    between atoms: N_7  and  C_8 
REMARK       I    between atoms: C_8  and  N_9 
REMARK    2  A    between atoms: N_9  and  C_10 
REMARK    3  A    between atoms: C_10  and  C_11 
REMARK    4  A    between atoms: C_11  and  C_12 
REMARK    5  A    between atoms: C_12  and  C_13 
REMARK    6  A    between atoms: C_13  and  O_14 
REMARK    7  A    between atoms: O_14  and  C_15 
ROOT
HETATM    1  C   UNL     1      -6.985   3.816 -33.792  1.00  0.00     0.219 C 
ENDROOT
BRANCH   1   2
HETATM    2  N   UNL     1      -6.766   2.998 -32.624  1.00  0.00    -0.332 N 
HETATM    3  C   UNL     1      -6.350   1.712 -32.480  1.00  0.00     0.321 C 
HETATM    4  N   UNL     1      -6.184   0.991 -33.628  1.00  0.00    -0.309 N 
HETATM    5  O   UNL     1      -6.149   1.318 -31.335  1.00  0.00    -0.247 OA
HETATM    6  H   UNL     1      -6.538   1.400 -34.474  1.00  0.00     0.170 HD
HETATM    7  H   UNL     1      -6.887   3.449 -31.727  1.00  0.00     0.165 HD
BRANCH   4   8
HETATM    8  C   UNL     1      -5.702  -0.330 -33.759  1.00  0.00     0.036 A 
HETATM    9  C   UNL     1      -6.450  -1.393 -34.268  1.00  0.00     0.037 A 
HETATM   10  C   UNL     1      -5.904  -2.687 -34.377  1.00  0.00    -0.054 A 
HETATM   11  C   UNL     1      -4.575  -2.916 -33.977  1.00  0.00    -0.056 A 
HETATM   12  C   UNL     1      -6.748  -3.783 -34.973  1.00  0.00     0.049 C 
HETATM   13  C   UNL     1      -3.941  -4.275 -34.082  1.00  0.00     0.049 C 
HETATM   14  C   UNL     1      -3.833  -1.851 -33.449  1.00  0.00     0.009 A 
HETATM   15  C   UNL     1      -4.390  -0.574 -33.345  1.00  0.00     0.030 A 
ENDBRANCH   4   8
ENDBRANCH   1   2
BRANCH   1  16
HETATM   16  C   UNL     1      -5.655   4.399 -34.241  1.00  0.00    -0.085 C 
BRANCH  16  17
HETATM   17  C   UNL     1      -4.514   4.898 -34.626  1.00  0.00    -0.078 C 
BRANCH  17  18
HETATM   18  C   UNL     1      -3.183   5.481 -35.073  1.00  0.00     0.269 C 
BRANCH  18  19
HETATM   19  O   UNL     1      -2.124   4.894 -34.326  1.00  0.00    -0.339 OA
BRANCH  19  20
HETATM   20  C   UNL     1      -1.653   5.630 -33.271  1.00  0.00     0.072 A 
HETATM   21  C   UNL     1      -1.033   4.889 -32.261  1.00  0.00     0.069 A 
HETATM   22  C   UNL     1      -0.498   5.488 -31.128  1.00  0.00     0.069 A 
HETATM   23  C   UNL     1      -0.574   6.892 -31.017  1.00  0.00    -0.007 A 
HETATM   24  N   UNL     1       0.070   4.726 -30.175  1.00  0.00    -0.260 NA
HETATM   25  C   UNL     1      -1.178   7.647 -32.033  1.00  0.00     0.016 A 
HETATM   26  C   UNL     1      -0.031   7.497 -29.877  1.00  0.00     0.015 A 
HETATM   27  C   UNL     1      -1.718   7.017 -33.156  1.00  0.00     0.038 A 
HETATM   28  C   UNL     1       0.555   6.711 -28.893  1.00  0.00     0.020 A 
HETATM   29  C   UNL     1       0.579   5.344 -29.086  1.00  0.00     0.117 A 
ENDBRANCH  19  20
ENDBRANCH  18  19
ENDBRANCH  17  18
ENDBRANCH  16  17
ENDBRANCH   1  16
TORSDOF 7
ENDMDL
MODEL 2
REMARK VINA RESULT:      -8.8      1.059      1.760
REMARK  7 active torsions:
REMARK  status: ('A' for Active; 'I' for Inactive)
REMARK    1  A    between atoms: C_6  and  N_7 
REMARK       I    between atoms: N_7  and  C_8 
REMARK       I    between atoms: C_8  and  N_9 
REMARK    2  A    between atoms: N_9  and  C_10 
REMARK    3  A    between atoms: C_10  and  C_11 
REMARK    4  A    between atoms: C_11  and  C_12 
REMARK    5  A    between atoms: C_12  and  C_13 
REMARK    6  A    between atoms: C_13  and  O_14 
REMARK    7  A    between atoms: O_14  and  C_15 
ROOT
HETATM    1  C   UNL     1      -6.273   5.183 -33.609  1.00  0.00     0.219 C 
ENDROOT
BRANCH   1   2
HETATM    2  N   UNL     1      -6.381   4.239 -32.523  1.00  0.00    -0.332 N 
HETATM    3  C   UNL     1      -6.383   2.880 -32.495  1.00  0.00     0.321 C 
HETATM    4  N   UNL     1      -6.376   2.245 -33.704  1.00  0.00    -0.309 N 
HETATM    5  O   UNL     1      -6.379   2.347 -31.390  1.00  0.00    -0.247 OA
HETATM    6  H   UNL     1      -6.539   2.814 -34.516  1.00  0.00     0.170 HD
HETATM    7  H   UNL     1      -6.412   4.627 -31.589  1.00  0.00     0.165 HD
BRANCH   4   8
HETATM    8  C   UNL     1      -6.310   0.856 -33.952  1.00  0.00     0.036 A 
HETATM    9  C   UNL     1      -5.279   0.026 -33.509  1.00  0.00     0.037 A 
HETATM   10  C   UNL     1      -5.279  -1.355 -33.787  1.00  0.00    -0.054 A 
HETATM   11  C   UNL     1      -6.342  -1.916 -34.518  1.00  0.00    -0.056 A 
HETATM   12  C   UNL     1      -4.160  -2.205 -33.245  1.00  0.00     0.049 C 
HETATM   13  C   UNL     1      -6.395  -3.385 -34.833  1.00  0.00     0.049 C 
HETATM   14  C   UNL     1      -7.366  -1.077 -34.978  1.00  0.00     0.009 A 
HETATM   15  C   UNL     1      -7.350   0.291 -34.695  1.00  0.00     0.030 A 
ENDBRANCH   4   8
ENDBRANCH   1   2
BRANCH   1  16
HETATM   16  C   UNL     1      -4.819   5.267 -34.044  1.00  0.00    -0.085 C 
BRANCH  16  17
HETATM   17  C   UNL     1      -3.572   5.341 -34.417  1.00  0.00    -0.078 C 
BRANCH  17  18
HETATM   18  C   UNL     1      -2.118   5.428 -34.852  1.00  0.00     0.269 C 
BRANCH  18  19
HETATM   19  O   UNL     1      -1.572   6.681 -34.457  1.00  0.00    -0.339 OA
BRANCH  19  20
HETATM   20  C   UNL     1      -1.287   6.819 -33.124  1.00  0.00     0.072 A 
HETATM   21  C   UNL     1      -0.526   5.783 -32.572  1.00  0.00     0.069 A 
HETATM   22  C   UNL     1      -0.149   5.777 -31.235  1.00  0.00     0.069 A 
HETATM   23  C   UNL     1      -0.537   6.866 -30.427  1.00  0.00    -0.007 A 
HETATM   24  N   UNL     1       0.565   4.746 -30.748  1.00  0.00    -0.260 NA
HETATM   25  C   UNL     1      -1.284   7.919 -30.976  1.00  0.00     0.016 A 
HETATM   26  C   UNL     1      -0.153   6.862 -29.081  1.00  0.00     0.015 A 
HETATM   27  C   UNL     1      -1.660   7.893 -32.320  1.00  0.00     0.038 A 
HETATM   28  C   UNL     1       0.584   5.798 -28.578  1.00  0.00     0.020 A 
HETATM   29  C   UNL     1       0.914   4.773 -29.443  1.00  0.00     0.117 A 
ENDBRANCH  19  20
ENDBRANCH  18  19
ENDBRANCH  17  18
ENDBRANCH  16  17
ENDBRANCH   1  16
TORSDOF 7
ENDMDL
MODEL 3
REMARK VINA RESULT:      -8.8      1.586      2.080
REMARK  7 active torsions:
REMARK  status: ('A' for Active; 'I' for Inactive)
REMARK    1  A    between atoms: C_6  and  N_7 
REMARK       I    between atoms: N_7  and  C_8 
REMARK       I    between atoms: C_8  and  N_9 
REMARK    2  A    between atoms: N_9  and  C_10 
REMARK    3  A    between atoms: C_10  and  C_11 
REMARK    4  A    between atoms: C_11  and  C_12 
REMARK    5  A    between atoms: C_12  and  C_13 
REMARK    6  A    between atoms: C_13  and  O_14 
REMARK    7  A    between atoms: O_14  and  C_15 
ROOT
HETATM    1  C   UNL     1      -4.221   2.813 -31.448  1.00  0.00     0.219 C 
ENDROOT
BRANCH   1   2
HETATM    2  N   UNL     1      -3.395   1.635 -31.345  1.00  0.00    -0.332 N 
HETATM    3  C   UNL     1      -3.512   0.391 -31.881  1.00  0.00     0.321 C 
HETATM    4  N   UNL     1      -4.657   0.133 -32.581  1.00  0.00    -0.309 N 
HETATM    5  O   UNL     1      -2.577  -0.382 -31.700  1.00  0.00    -0.247 OA
HETATM    6  H   UNL     1      -5.394   0.811 -32.508  1.00  0.00     0.170 HD
HETATM    7  H   UNL     1      -2.532   1.732 -30.824  1.00  0.00     0.165 HD
BRANCH   4   8
HETATM    8  C   UNL     1      -4.994  -1.043 -33.286  1.00  0.00     0.036 A 
HETATM    9  C   UNL     1      -4.194  -2.185 -33.339  1.00  0.00     0.037 A 
HETATM   10  C   UNL     1      -4.595  -3.329 -34.058  1.00  0.00    -0.054 A 
HETATM   11  C   UNL     1      -5.832  -3.328 -34.729  1.00  0.00    -0.056 A 
HETATM   12  C   UNL     1      -3.707  -4.544 -34.043  1.00  0.00     0.049 C 
HETATM   13  C   UNL     1      -6.312  -4.525 -35.502  1.00  0.00     0.049 C 
HETATM   14  C   UNL     1      -6.624  -2.173 -34.689  1.00  0.00     0.009 A 
HETATM   15  C   UNL     1      -6.211  -1.046 -33.974  1.00  0.00     0.030 A 
ENDBRANCH   4   8
ENDBRANCH   1   2
BRANCH   1  16
HETATM   16  C   UNL     1      -3.720   3.665 -32.602  1.00  0.00    -0.085 C 
BRANCH  16  17
HETATM   17  C   UNL     1      -3.289   4.397 -33.592  1.00  0.00    -0.078 C 
BRANCH  17  18
HETATM   18  C   UNL     1      -2.787   5.250 -34.746  1.00  0.00     0.269 C 
BRANCH  18  19
HETATM   19  O   UNL     1      -1.433   5.624 -34.515  1.00  0.00    -0.339 OA
BRANCH  19  20
HETATM   20  C   UNL     1      -1.161   6.167 -33.287  1.00  0.00     0.072 A 
HETATM   21  C   UNL     1      -0.517   5.310 -32.390  1.00  0.00     0.069 A 
HETATM   22  C   UNL     1      -0.167   5.713 -31.108  1.00  0.00     0.069 A 
HETATM   23  C   UNL     1      -0.461   7.036 -30.720  1.00  0.00    -0.007 A 
HETATM   24  N   UNL     1       0.433   4.841 -30.275  1.00  0.00    -0.260 NA
HETATM   25  C   UNL     1      -1.090   7.910 -31.619  1.00  0.00     0.016 A 
HETATM   26  C   UNL     1      -0.104   7.443 -29.429  1.00  0.00     0.015 A 
HETATM   27  C   UNL     1      -1.442   7.475 -32.898  1.00  0.00     0.038 A 
HETATM   28  C   UNL     1       0.515   6.544 -28.569  1.00  0.00     0.020 A 
HETATM   29  C   UNL     1       0.758   5.267 -29.035  1.00  0.00     0.117 A 
ENDBRANCH  19  20
ENDBRANCH  18  19
ENDBRANCH  17  18
ENDBRANCH  16  17
ENDBRANCH   1  16
TORSDOF 7
ENDMDL
MODEL 4
REMARK VINA RESULT:      -8.8      1.850      9.193
REMARK  7 active torsions:
REMARK  status: ('A' for Active; 'I' for Inactive)
REMARK    1  A    between atoms: C_6  and  N_7 
REMARK       I    between atoms: N_7  and  C_8 
REMARK       I    between atoms: C_8  and  N_9 
REMARK    2  A    between atoms: N_9  and  C_10 
REMARK    3  A    between atoms: C_10  and  C_11 
REMARK    4  A    between atoms: C_11  and  C_12 
REMARK    5  A    between atoms: C_12  and  C_13 
REMARK    6  A    between atoms: C_13  and  O_14 
REMARK    7  A    between atoms: O_14  and  C_15 
ROOT
HETATM    1  C   UNL     1      -2.729   5.149 -34.977  1.00  0.00     0.219 C 
ENDROOT
BRANCH   1   2
HETATM    2  N   UNL     1      -2.446   6.514 -34.604  1.00  0.00    -0.332 N 
HETATM    3  C   UNL     1      -1.890   7.055 -33.488  1.00  0.00     0.321 C 
HETATM    4  N   UNL     1      -1.616   6.195 -32.464  1.00  0.00    -0.309 N 
HETATM    5  O   UNL     1      -1.674   8.263 -33.506  1.00  0.00    -0.247 OA
HETATM    6  H   UNL     1      -1.993   5.267 -32.538  1.00  0.00     0.170 HD
HETATM    7  H   UNL     1      -2.639   7.222 -35.301  1.00  0.00     0.165 HD
BRANCH   4   8
HETATM    8  C   UNL     1      -0.984   6.486 -31.235  1.00  0.00     0.036 A 
HETATM    9  C   UNL     1      -1.299   7.580 -30.427  1.00  0.00     0.037 A 
HETATM   10  C   UNL     1      -0.631   7.807 -29.208  1.00  0.00    -0.054 A 
HETATM   11  C   UNL     1       0.367   6.911 -28.785  1.00  0.00    -0.056 A 
HETATM   12  C   UNL     1      -1.046   8.982 -28.361  1.00  0.00     0.049 C 
HETATM   13  C   UNL     1       1.102   7.102 -27.488  1.00  0.00     0.049 C 
HETATM   14  C   UNL     1       0.694   5.824 -29.607  1.00  0.00     0.009 A 
HETATM   15  C   UNL     1       0.025   5.614 -30.815  1.00  0.00     0.030 A 
ENDBRANCH   4   8
ENDBRANCH   1   2
BRANCH   1  16
HETATM   16  C   UNL     1      -4.167   4.827 -34.605  1.00  0.00    -0.085 C 
BRANCH  16  17
HETATM   17  C   UNL     1      -5.401   4.549 -34.286  1.00  0.00    -0.078 C 
BRANCH  17  18
HETATM   18  C   UNL     1      -6.839   4.226 -33.915  1.00  0.00     0.269 C 
BRANCH  18  19
HETATM   19  O   UNL     1      -6.867   3.128 -33.008  1.00  0.00    -0.339 OA
BRANCH  19  20
HETATM   20  C   UNL     1      -6.814   1.881 -33.573  1.00  0.00     0.072 A 
HETATM   21  C   UNL     1      -5.755   1.078 -33.138  1.00  0.00     0.069 A 
HETATM   22  C   UNL     1      -5.567  -0.214 -33.611  1.00  0.00     0.069 A 
HETATM   23  C   UNL     1      -6.492  -0.724 -34.545  1.00  0.00    -0.007 A 
HETATM   24  N   UNL     1      -4.519  -0.937 -33.176  1.00  0.00    -0.260 NA
HETATM   25  C   UNL     1      -7.568   0.067 -34.974  1.00  0.00     0.016 A 
HETATM   26  C   UNL     1      -6.305  -2.028 -35.019  1.00  0.00     0.015 A 
HETATM   27  C   UNL     1      -7.727   1.367 -34.491  1.00  0.00     0.038 A 
HETATM   28  C   UNL     1      -5.223  -2.776 -34.570  1.00  0.00     0.020 A 
HETATM   29  C   UNL     1      -4.367  -2.191 -33.659  1.00  0.00     0.117 A 
ENDBRANCH  19  20
ENDBRANCH  18  19
ENDBRANCH  17  18
ENDBRANCH  16  17
ENDBRANCH   1  16
TORSDOF 7
ENDMDL
MODEL 5
REMARK VINA RESULT:      -8.7      2.114      2.947
REMARK  7 active torsions:
REMARK  status: ('A' for Active; 'I' for Inactive)
REMARK    1  A    between atoms: C_6  and  N_7 
REMARK       I    between atoms: N_7  and  C_8 
REMARK       I    between atoms: C_8  and  N_9 
REMARK    2  A    between atoms: N_9  and  C_10 
REMARK    3  A    between atoms: C_10  and  C_11 
REMARK    4  A    between atoms: C_11  and  C_12 
REMARK    5  A    between atoms: C_12  and  C_13 
REMARK    6  A    between atoms: C_13  and  O_14 
REMARK    7  A    between atoms: O_14  and  C_15 
ROOT
HETATM    1  C   UNL     1      -4.087   2.795 -31.465  1.00  0.00     0.219 C 
ENDROOT
BRANCH   1   2
HETATM    2  N   UNL     1      -3.325   1.583 -31.288  1.00  0.00    -0.332 N 
HETATM    3  C   UNL     1      -3.470   0.334 -31.803  1.00  0.00     0.321 C 
HETATM    4  N   UNL     1      -4.582   0.112 -32.564  1.00  0.00    -0.309 N 
HETATM    5  O   UNL     1      -2.585  -0.478 -31.550  1.00  0.00    -0.247 OA
HETATM    6  H   UNL     1      -5.290   0.826 -32.550  1.00  0.00     0.170 HD
HETATM    7  H   UNL     1      -2.491   1.653 -30.719  1.00  0.00     0.165 HD
BRANCH   4   8
HETATM    8  C   UNL     1      -4.934  -1.063 -33.264  1.00  0.00     0.036 A 
HETATM    9  C   UNL     1      -4.141  -2.210 -33.322  1.00  0.00     0.037 A 
HETATM   10  C   UNL     1      -4.555  -3.353 -34.034  1.00  0.00    -0.054 A 
HETATM   11  C   UNL     1      -5.798  -3.346 -34.694  1.00  0.00    -0.056 A 
HETATM   12  C   UNL     1      -3.674  -4.574 -34.025  1.00  0.00     0.049 C 
HETATM   13  C   UNL     1      -6.293  -4.542 -35.459  1.00  0.00     0.049 C 
HETATM   14  C   UNL     1      -6.584  -2.186 -34.649  1.00  0.00     0.009 A 
HETATM   15  C   UNL     1      -6.157  -1.061 -33.940  1.00  0.00     0.030 A 
ENDBRANCH   4   8
ENDBRANCH   1   2
BRANCH   1  16
HETATM   16  C   UNL     1      -3.428   3.636 -32.546  1.00  0.00    -0.085 C 
BRANCH  16  17
HETATM   17  C   UNL     1      -2.862   4.358 -33.473  1.00  0.00    -0.078 C 
BRANCH  17  18
HETATM   18  C   UNL     1      -2.204   5.200 -34.553  1.00  0.00     0.269 C 
BRANCH  18  19
HETATM   19  O   UNL     1      -0.954   5.694 -34.084  1.00  0.00    -0.339 OA
BRANCH  19  20
HETATM   20  C   UNL     1      -0.972   6.303 -32.857  1.00  0.00     0.072 A 
HETATM   21  C   UNL     1      -1.653   7.523 -32.812  1.00  0.00     0.069 A 
HETATM   22  C   UNL     1      -1.767   8.262 -31.642  1.00  0.00     0.069 A 
HETATM   23  C   UNL     1      -1.188   7.742 -30.465  1.00  0.00    -0.007 A 
HETATM   24  N   UNL     1      -2.415   9.442 -31.658  1.00  0.00    -0.260 NA
HETATM   25  C   UNL     1      -0.518   6.510 -30.496  1.00  0.00     0.016 A 
HETATM   26  C   UNL     1      -1.306   8.485 -29.285  1.00  0.00     0.015 A 
HETATM   27  C   UNL     1      -0.408   5.794 -31.689  1.00  0.00     0.038 A 
HETATM   28  C   UNL     1      -1.975   9.702 -29.300  1.00  0.00     0.020 A 
HETATM   29  C   UNL     1      -2.505  10.134 -30.500  1.00  0.00     0.117 A 
ENDBRANCH  19  20
ENDBRANCH  18  19
ENDBRANCH  17  18
ENDBRANCH  16  17
ENDBRANCH   1  16
TORSDOF 7
ENDMDL
MODEL 6
REMARK VINA RESULT:      -8.5      1.865      9.453
REMARK  7 active torsions:
REMARK  status: ('A' for Active; 'I' for Inactive)
REMARK    1  A    between atoms: C_6  and  N_7 
REMARK       I    between atoms: N_7  and  C_8 
REMARK       I    between atoms: C_8  and  N_9 
REMARK    2  A    between atoms: N_9  and  C_10 
REMARK    3  A    between atoms: C_10  and  C_11 
REMARK    4  A    between atoms: C_11  and  C_12 
REMARK    5  A    between atoms: C_12  and  C_13 
REMARK    6  A    between atoms: C_13  and  O_14 
REMARK    7  A    between atoms: O_14  and  C_15 
ROOT
HETATM    1  C   UNL     1      -4.678   5.144 -34.676  1.00  0.00     0.219 C 
ENDROOT
BRANCH   1   2
HETATM    2  N   UNL     1      -3.260   5.286 -34.902  1.00  0.00    -0.332 N 
HETATM    3  C   UNL     1      -2.235   5.613 -34.072  1.00  0.00     0.321 C 
HETATM    4  N   UNL     1      -2.572   5.971 -32.797  1.00  0.00    -0.309 N 
HETATM    5  O   UNL     1      -1.101   5.546 -34.536  1.00  0.00    -0.247 OA
HETATM    6  H   UNL     1      -3.547   6.130 -32.614  1.00  0.00     0.170 HD
HETATM    7  H   UNL     1      -2.925   5.059 -35.830  1.00  0.00     0.165 HD
BRANCH   4   8
HETATM    8  C   UNL     1      -1.705   6.288 -31.729  1.00  0.00     0.036 A 
HETATM    9  C   UNL     1      -0.805   5.390 -31.153  1.00  0.00     0.037 A 
HETATM   10  C   UNL     1       0.038   5.775 -30.091  1.00  0.00    -0.054 A 
HETATM   11  C   UNL     1      -0.018   7.094 -29.605  1.00  0.00    -0.056 A 
HETATM   12  C   UNL     1       1.016   4.772 -29.540  1.00  0.00     0.049 C 
HETATM   13  C   UNL     1       0.866   7.559 -28.481  1.00  0.00     0.049 C 
HETATM   14  C   UNL     1      -0.935   7.988 -30.172  1.00  0.00     0.009 A 
HETATM   15  C   UNL     1      -1.765   7.590 -31.223  1.00  0.00     0.030 A 
ENDBRANCH   4   8
ENDBRANCH   1   2
BRANCH   1  16
HETATM   16  C   UNL     1      -4.915   3.934 -33.787  1.00  0.00    -0.085 C 
BRANCH  16  17
HETATM   17  C   UNL     1      -5.119   2.896 -33.024  1.00  0.00    -0.078 C 
BRANCH  17  18
HETATM   18  C   UNL     1      -5.355   1.686 -32.135  1.00  0.00     0.269 C 
BRANCH  18  19
HETATM   19  O   UNL     1      -4.529   0.607 -32.560  1.00  0.00    -0.339 OA
BRANCH  19  20
HETATM   20  C   UNL     1      -5.165  -0.410 -33.223  1.00  0.00     0.072 A 
HETATM   21  C   UNL     1      -4.450  -1.609 -33.291  1.00  0.00     0.069 A 
HETATM   22  C   UNL     1      -4.959  -2.737 -33.923  1.00  0.00     0.069 A 
HETATM   23  C   UNL     1      -6.247  -2.658 -34.493  1.00  0.00    -0.007 A 
HETATM   24  N   UNL     1      -4.220  -3.861 -33.979  1.00  0.00    -0.260 NA
HETATM   25  C   UNL     1      -6.979  -1.465 -34.414  1.00  0.00     0.016 A 
HETATM   26  C   UNL     1      -6.761  -3.796 -35.126  1.00  0.00     0.015 A 
HETATM   27  C   UNL     1      -6.438  -0.343 -33.783  1.00  0.00     0.038 A 
HETATM   28  C   UNL     1      -6.000  -4.956 -35.184  1.00  0.00     0.020 A 
HETATM   29  C   UNL     1      -4.747  -4.937 -34.603  1.00  0.00     0.117 A 
ENDBRANCH  19  20
ENDBRANCH  18  19
ENDBRANCH  17  18
ENDBRANCH  16  17
ENDBRANCH   1  16
TORSDOF 7
ENDMDL
MODEL 7
REMARK VINA RESULT:      -8.3      1.631      1.996
REMARK  7 active torsions:
REMARK  status: ('A' for Active; 'I' for Inactive)
REMARK    1  A    between atoms: C_6  and  N_7 
REMARK       I    between atoms: N_7  and  C_8 
REMARK       I    between atoms: C_8  and  N_9 
REMARK    2  A    between atoms: N_9  and  C_10 
REMARK    3  A    between atoms: C_10  and  C_11 
REMARK    4  A    between atoms: C_11  and  C_12 
REMARK    5  A    between atoms: C_12  and  C_13 
REMARK    6  A    between atoms: C_13  and  O_14 
REMARK    7  A    between atoms: O_14  and  C_15 
ROOT
HETATM    1  C   UNL     1      -6.852   3.381 -33.857  1.00  0.00     0.219 C 
ENDROOT
BRANCH   1   2
HETATM    2  N   UNL     1      -7.551   2.297 -33.210  1.00  0.00    -0.332 N 
HETATM    3  C   UNL     1      -7.304   0.961 -33.152  1.00  0.00     0.321 C 
HETATM    4  N   UNL     1      -6.264   0.499 -33.906  1.00  0.00    -0.309 N 
HETATM    5  O   UNL     1      -8.029   0.294 -32.420  1.00  0.00    -0.247 OA
HETATM    6  H   UNL     1      -5.867   1.139 -34.571  1.00  0.00     0.170 HD
HETATM    7  H   UNL     1      -8.351   2.549 -32.644  1.00  0.00     0.165 HD
BRANCH   4   8
HETATM    8  C   UNL     1      -5.761  -0.819 -33.972  1.00  0.00     0.036 A 
HETATM    9  C   UNL     1      -6.415  -1.880 -34.600  1.00  0.00     0.037 A 
HETATM   10  C   UNL     1      -5.853  -3.171 -34.635  1.00  0.00    -0.054 A 
HETATM   11  C   UNL     1      -4.601  -3.399 -34.034  1.00  0.00    -0.056 A 
HETATM   12  C   UNL     1      -6.588  -4.264 -35.364  1.00  0.00     0.049 C 
HETATM   13  C   UNL     1      -3.952  -4.755 -34.051  1.00  0.00     0.049 C 
HETATM   14  C   UNL     1      -3.956  -2.336 -33.387  1.00  0.00     0.009 A 
HETATM   15  C   UNL     1      -4.528  -1.062 -33.360  1.00  0.00     0.030 A 
ENDBRANCH   4   8
ENDBRANCH   1   2
BRANCH   1  16
HETATM   16  C   UNL     1      -5.584   3.684 -33.075  1.00  0.00    -0.085 C 
BRANCH  16  17
HETATM   17  C   UNL     1      -4.497   3.945 -32.404  1.00  0.00    -0.078 C 
BRANCH  17  18
HETATM   18  C   UNL     1      -3.230   4.250 -31.621  1.00  0.00     0.269 C 
BRANCH  18  19
HETATM   19  O   UNL     1      -2.558   5.360 -32.206  1.00  0.00    -0.339 OA
BRANCH  19  20
HETATM   20  C   UNL     1      -1.614   5.970 -31.422  1.00  0.00     0.072 A 
HETATM   21  C   UNL     1      -2.100   6.530 -30.237  1.00  0.00     0.069 A 
HETATM   22  C   UNL     1      -1.268   7.178 -29.332  1.00  0.00     0.069 A 
HETATM   23  C   UNL     1       0.110   7.249 -29.624  1.00  0.00    -0.007 A 
HETATM   24  N   UNL     1      -1.790   7.719 -28.216  1.00  0.00    -0.260 NA
HETATM   25  C   UNL     1       0.610   6.674 -30.802  1.00  0.00     0.016 A 
HETATM   26  C   UNL     1       0.948   7.899 -28.711  1.00  0.00     0.015 A 
HETATM   27  C   UNL     1      -0.250   6.039 -31.700  1.00  0.00     0.038 A 
HETATM   28  C   UNL     1       0.410   8.457 -27.558  1.00  0.00     0.020 A 
HETATM   29  C   UNL     1      -0.951   8.343 -27.359  1.00  0.00     0.117 A 
ENDBRANCH  19  20
ENDBRANCH  18  19
ENDBRANCH  17  18
ENDBRANCH  16  17
ENDBRANCH   1  16
TORSDOF 7
ENDMDL
MODEL 8
REMARK VINA RESULT:      -8.2      2.138     10.108
REMARK  7 active torsions:
REMARK  status: ('A' for Active; 'I' for Inactive)
REMARK    1  A    between atoms: C_6  and  N_7 
REMARK       I    between atoms: N_7  and  C_8 
REMARK       I    between atoms: C_8  and  N_9 
REMARK    2  A    between atoms: N_9  and  C_10 
REMARK    3  A    between atoms: C_10  and  C_11 
REMARK    4  A    between atoms: C_11  and  C_12 
REMARK    5  A    between atoms: C_12  and  C_13 
REMARK    6  A    between atoms: C_13  and  O_14 
REMARK    7  A    between atoms: O_14  and  C_15 
ROOT
HETATM    1  C   UNL     1      -2.035   5.397 -33.205  1.00  0.00     0.219 C 
ENDROOT
BRANCH   1   2
HETATM    2  N   UNL     1      -1.119   4.826 -32.248  1.00  0.00    -0.332 N 
HETATM    3  C   UNL     1      -0.700   5.248 -31.025  1.00  0.00     0.321 C 
HETATM    4  N   UNL     1      -1.130   6.480 -30.624  1.00  0.00    -0.309 N 
HETATM    5  O   UNL     1       0.014   4.480 -30.388  1.00  0.00    -0.247 OA
HETATM    6  H   UNL     1      -1.578   7.052 -31.318  1.00  0.00     0.170 HD
HETATM    7  H   UNL     1      -0.735   3.918 -32.476  1.00  0.00     0.165 HD
BRANCH   4   8
HETATM    8  C   UNL     1      -0.898   7.118 -29.386  1.00  0.00     0.036 A 
HETATM    9  C   UNL     1       0.326   7.669 -29.001  1.00  0.00     0.037 A 
HETATM   10  C   UNL     1       0.486   8.298 -27.751  1.00  0.00    -0.054 A 
HETATM   11  C   UNL     1      -0.609   8.383 -26.871  1.00  0.00    -0.056 A 
HETATM   12  C   UNL     1       1.820   8.911 -27.412  1.00  0.00     0.049 C 
HETATM   13  C   UNL     1      -0.494   9.052 -25.530  1.00  0.00     0.049 C 
HETATM   14  C   UNL     1      -1.830   7.812 -27.252  1.00  0.00     0.009 A 
HETATM   15  C   UNL     1      -1.973   7.190 -28.495  1.00  0.00     0.030 A 
ENDBRANCH   4   8
ENDBRANCH   1   2
BRANCH   1  16
HETATM   16  C   UNL     1      -3.326   4.595 -33.188  1.00  0.00    -0.085 C 
BRANCH  16  17
HETATM   17  C   UNL     1      -4.434   3.907 -33.173  1.00  0.00    -0.078 C 
BRANCH  17  18
HETATM   18  C   UNL     1      -5.725   3.105 -33.157  1.00  0.00     0.269 C 
BRANCH  18  19
HETATM   19  O   UNL     1      -5.545   1.919 -32.390  1.00  0.00    -0.339 OA
BRANCH  19  20
HETATM   20  C   UNL     1      -5.961   0.754 -32.980  1.00  0.00     0.072 A 
HETATM   21  C   UNL     1      -4.967  -0.216 -33.139  1.00  0.00     0.069 A 
HETATM   22  C   UNL     1      -5.229  -1.453 -33.713  1.00  0.00     0.069 A 
HETATM   23  C   UNL     1      -6.548  -1.731 -34.127  1.00  0.00    -0.007 A 
HETATM   24  N   UNL     1      -4.231  -2.344 -33.863  1.00  0.00    -0.260 NA
HETATM   25  C   UNL     1      -7.556  -0.771 -33.955  1.00  0.00     0.016 A 
HETATM   26  C   UNL     1      -6.813  -2.979 -34.703  1.00  0.00     0.015 A 
HETATM   27  C   UNL     1      -7.263   0.469 -33.385  1.00  0.00     0.038 A 
HETATM   28  C   UNL     1      -5.783  -3.899 -34.857  1.00  0.00     0.020 A 
HETATM   29  C   UNL     1      -4.522  -3.537 -34.427  1.00  0.00     0.117 A 
ENDBRANCH  19  20
ENDBRANCH  18  19
ENDBRANCH  17  18
ENDBRANCH  16  17
ENDBRANCH   1  16
TORSDOF 7
ENDMDL
MODEL 9
REMARK VINA RESULT:      -8.1      2.124     10.217
REMARK  7 active torsions:
REMARK  status: ('A' for Active; 'I' for Inactive)
REMARK    1  A    between atoms: C_6  and  N_7 
REMARK       I    between atoms: N_7  and  C_8 
REMARK       I    between atoms: C_8  and  N_9 
REMARK    2  A    between atoms: N_9  and  C_10 
REMARK    3  A    between atoms: C_10  and  C_11 
REMARK    4  A    between atoms: C_11  and  C_12 
REMARK    5  A    between atoms: C_12  and  C_13 
REMARK    6  A    between atoms: C_13  and  O_14 
REMARK    7  A    between atoms: O_14  and  C_15 
ROOT
HETATM    1  C   UNL     1      -2.798   5.112 -33.109  1.00  0.00     0.219 C 
ENDROOT
BRANCH   1   2
HETATM    2  N   UNL     1      -1.585   4.764 -32.411  1.00  0.00    -0.332 N 
HETATM    3  C   UNL     1      -1.008   5.262 -31.285  1.00  0.00     0.321 C 
HETATM    4  N   UNL     1      -1.603   6.356 -30.726  1.00  0.00    -0.309 N 
HETATM    5  O   UNL     1      -0.014   4.678 -30.865  1.00  0.00    -0.247 OA
HETATM    6  H   UNL     1      -2.314   6.813 -31.271  1.00  0.00     0.170 HD
HETATM    7  H   UNL     1      -1.067   3.972 -32.771  1.00  0.00     0.165 HD
BRANCH   4   8
HETATM    8  C   UNL     1      -1.249   7.020 -29.532  1.00  0.00     0.036 A 
HETATM    9  C   UNL     1       0.029   7.510 -29.253  1.00  0.00     0.037 A 
HETATM   10  C   UNL     1       0.313   8.169 -28.041  1.00  0.00    -0.054 A 
HETATM   11  C   UNL     1      -0.711   8.351 -27.093  1.00  0.00    -0.056 A 
HETATM   12  C   UNL     1       1.700   8.711 -27.817  1.00  0.00     0.049 C 
HETATM   13  C   UNL     1      -0.464   9.057 -25.789  1.00  0.00     0.049 C 
HETATM   14  C   UNL     1      -1.987   7.842 -27.368  1.00  0.00     0.009 A 
HETATM   15  C   UNL     1      -2.252   7.188 -28.574  1.00  0.00     0.030 A 
ENDBRANCH   4   8
ENDBRANCH   1   2
BRANCH   1  16
HETATM   16  C   UNL     1      -3.839   4.035 -32.851  1.00  0.00    -0.085 C 
BRANCH  16  17
HETATM   17  C   UNL     1      -4.732   3.111 -32.629  1.00  0.00    -0.078 C 
BRANCH  17  18
HETATM   18  C   UNL     1      -5.773   2.034 -32.372  1.00  0.00     0.269 C 
BRANCH  18  19
HETATM   19  O   UNL     1      -6.036   1.320 -33.575  1.00  0.00    -0.339 OA
BRANCH  19  20
HETATM   20  C   UNL     1      -5.536   0.046 -33.639  1.00  0.00     0.072 A 
HETATM   21  C   UNL     1      -6.383  -0.892 -34.238  1.00  0.00     0.069 A 
HETATM   22  C   UNL     1      -6.020  -2.225 -34.384  1.00  0.00     0.069 A 
HETATM   23  C   UNL     1      -4.748  -2.625 -33.926  1.00  0.00    -0.007 A 
HETATM   24  N   UNL     1      -6.881  -3.092 -34.948  1.00  0.00    -0.260 NA
HETATM   25  C   UNL     1      -3.884  -1.688 -33.340  1.00  0.00     0.016 A 
HETATM   26  C   UNL     1      -4.381  -3.968 -34.077  1.00  0.00     0.015 A 
HETATM   27  C   UNL     1      -4.279  -0.356 -33.195  1.00  0.00     0.038 A 
HETATM   28  C   UNL     1      -5.268  -4.863 -34.659  1.00  0.00     0.020 A 
HETATM   29  C   UNL     1      -6.495  -4.381 -35.073  1.00  0.00     0.117 A 
ENDBRANCH  19  20
ENDBRANCH  18  19
ENDBRANCH  17  18
ENDBRANCH  16  17
ENDBRANCH   1  16
TORSDOF 7
ENDMDL
MODEL 10
REMARK VINA RESULT:      -8.0      2.311      9.763
REMARK  7 active torsions:
REMARK  status: ('A' for Active; 'I' for Inactive)
REMARK    1  A    between atoms: C_6  and  N_7 
REMARK       I    between atoms: N_7  and  C_8 
REMARK       I    between atoms: C_8  and  N_9 
REMARK    2  A    between atoms: N_9  and  C_10 
REMARK    3  A    between atoms: C_10  and  C_11 
REMARK    4  A    between atoms: C_11  and  C_12 
REMARK    5  A    between atoms: C_12  and  C_13 
REMARK    6  A    between atoms: C_13  and  O_14 
REMARK    7  A    between atoms: O_14  and  C_15 
ROOT
HETATM    1  C   UNL     1      -3.703   3.432 -31.998  1.00  0.00     0.219 C 
ENDROOT
BRANCH   1   2
HETATM    2  N   UNL     1      -2.546   4.104 -32.535  1.00  0.00    -0.332 N 
HETATM    3  C   UNL     1      -1.673   4.992 -31.989  1.00  0.00     0.321 C 
HETATM    4  N   UNL     1      -1.958   5.430 -30.727  1.00  0.00    -0.309 N 
HETATM    5  O   UNL     1      -0.705   5.311 -32.672  1.00  0.00    -0.247 OA
HETATM    6  H   UNL     1      -2.865   5.200 -30.362  1.00  0.00     0.170 HD
HETATM    7  H   UNL     1      -2.274   3.853 -33.477  1.00  0.00     0.165 HD
BRANCH   4   8
HETATM    8  C   UNL     1      -1.188   6.291 -29.915  1.00  0.00     0.036 A 
HETATM    9  C   UNL     1      -1.572   7.584 -29.554  1.00  0.00     0.037 A 
HETATM   10  C   UNL     1      -0.757   8.389 -28.734  1.00  0.00    -0.054 A 
HETATM   11  C   UNL     1       0.466   7.881 -28.259  1.00  0.00    -0.056 A 
HETATM   12  C   UNL     1      -1.247   9.759 -28.346  1.00  0.00     0.049 C 
HETATM   13  C   UNL     1       1.368   8.695 -27.373  1.00  0.00     0.049 C 
HETATM   14  C   UNL     1       0.857   6.590 -28.638  1.00  0.00     0.009 A 
HETATM   15  C   UNL     1       0.039   5.805 -29.453  1.00  0.00     0.030 A 
ENDBRANCH   4   8
ENDBRANCH   1   2
BRANCH   1  16
HETATM   16  C   UNL     1      -3.455   1.933 -32.017  1.00  0.00    -0.085 C 
BRANCH  16  17
HETATM   17  C   UNL     1      -3.241   0.647 -32.034  1.00  0.00    -0.078 C 
BRANCH  17  18
HETATM   18  C   UNL     1      -2.992  -0.853 -32.054  1.00  0.00     0.269 C 
BRANCH  18  19
HETATM   19  O   UNL     1      -4.222  -1.547 -31.876  1.00  0.00    -0.339 OA
BRANCH  19  20
HETATM   20  C   UNL     1      -5.273  -1.110 -32.638  1.00  0.00     0.072 A 
HETATM   21  C   UNL     1      -6.298  -0.478 -31.926  1.00  0.00     0.069 A 
HETATM   22  C   UNL     1      -7.429   0.027 -32.554  1.00  0.00     0.069 A 
HETATM   23  C   UNL     1      -7.524  -0.093 -33.956  1.00  0.00    -0.007 A 
HETATM   24  N   UNL     1      -8.397   0.607 -31.819  1.00  0.00    -0.260 NA
HETATM   25  C   UNL     1      -6.494  -0.708 -34.681  1.00  0.00     0.016 A 
HETATM   26  C   UNL     1      -8.663   0.420 -34.589  1.00  0.00     0.015 A 
HETATM   27  C   UNL     1      -5.373  -1.218 -34.023  1.00  0.00     0.038 A 
HETATM   28  C   UNL     1      -9.662   1.019 -33.831  1.00  0.00     0.020 A 
HETATM   29  C   UNL     1      -9.484   1.086 -32.463  1.00  0.00     0.117 A 
ENDBRANCH  19  20
ENDBRANCH  18  19
ENDBRANCH  17  18
ENDBRANCH  16  17
ENDBRANCH   1  16
TORSDOF 7
ENDMDL
