MODEL 1
REMARK VINA RESULT:      -7.4      0.000      0.000
REMARK  4 active torsions:
REMARK  status: ('A' for Active; 'I' for Inactive)
REMARK    1  A    between atoms: C_2  and  C_3 
REMARK    2  A    between atoms: C_5  and  N_6 
REMARK       I    between atoms: N_6  and  C_7 
REMARK    3  A    between atoms: C_7  and  C_8 
REMARK    4  A    between atoms: C_16  and  O_17 
ROOT
HETATM    1  C   UNL     1      -5.814  -2.055 -34.238  1.00  0.00    -0.048 A 
HETATM    2  C   UNL     1      -7.063  -1.443 -34.454  1.00  0.00     0.040 A 
HETATM    3  C   UNL     1      -7.339  -0.153 -33.984  1.00  0.00     0.069 A 
HETATM    4  C   UNL     1      -6.351   0.564 -33.280  1.00  0.00     0.095 A 
HETATM    5  C   UNL     1      -5.118  -0.035 -33.036  1.00  0.00     0.039 A 
HETATM    6  C   UNL     1      -4.860  -1.329 -33.503  1.00  0.00     0.011 A 
ENDROOT
BRANCH   3   7
HETATM    7  N   UNL     1      -8.576   0.505 -34.182  1.00  0.00    -0.320 N 
HETATM    8  C   UNL     1      -9.677   0.512 -33.354  1.00  0.00     0.257 C 
HETATM    9  O   UNL     1      -9.778   0.006 -32.244  1.00  0.00    -0.267 OA
HETATM   10  H   UNL     1      -8.570   1.112 -34.997  1.00  0.00     0.169 HD
BRANCH   8  11
HETATM   11  C   UNL     1     -10.834   1.272 -33.873  1.00  0.00     0.051 A 
HETATM   12  C   UNL     1     -10.674   2.513 -34.480  1.00  0.00     0.133 A 
HETATM   13  N   UNL     1     -11.702   3.248 -34.967  1.00  0.00    -0.271 NA
HETATM   14  C   UNL     1     -12.939   2.704 -34.858  1.00  0.00     0.135 A 
HETATM   15  C   UNL     1     -13.189   1.463 -34.286  1.00  0.00     0.029 A 
HETATM   16 BR   UNL     1     -14.945   0.790 -34.176  1.00  0.00    -0.050 Br
HETATM   17  C   UNL     1     -12.117   0.729 -33.791  1.00  0.00     0.039 A 
ENDBRANCH   8  11
ENDBRANCH   3   7
BRANCH   4  18
HETATM   18  O   UNL     1      -6.712   1.828 -32.876  1.00  0.00    -0.354 OA
HETATM   19  C   UNL     1      -6.731   2.076 -31.475  1.00  0.00     0.210 C 
ENDBRANCH   4  18
BRANCH   1  20
HETATM   20  C   UNL     1      -5.494  -3.473 -34.745  1.00  0.00    -0.024 C 
HETATM   21  C   UNL     1      -4.355  -4.171 -33.966  1.00  0.00     0.019 C 
HETATM   22  C   UNL     1      -5.068  -3.384 -36.225  1.00  0.00     0.019 C 
HETATM   23  C   UNL     1      -6.733  -4.391 -34.631  1.00  0.00     0.019 C 
ENDBRANCH   1  20
TORSDOF 4
ENDMDL
MODEL 2
REMARK VINA RESULT:      -7.3      4.814      8.165
REMARK  4 active torsions:
REMARK  status: ('A' for Active; 'I' for Inactive)
REMARK    1  A    between atoms: C_2  and  C_3 
REMARK    2  A    between atoms: C_5  and  N_6 
REMARK       I    between atoms: N_6  and  C_7 
REMARK    3  A    between atoms: C_7  and  C_8 
REMARK    4  A    between atoms: C_16  and  O_17 
ROOT
HETATM    1  C   UNL     1      -3.022   4.713 -32.569  1.00  0.00    -0.048 A 
HETATM    2  C   UNL     1      -2.973   3.322 -32.782  1.00  0.00     0.040 A 
HETATM    3  C   UNL     1      -4.001   2.477 -32.345  1.00  0.00     0.069 A 
HETATM    4  C   UNL     1      -5.119   3.017 -31.680  1.00  0.00     0.095 A 
HETATM    5  C   UNL     1      -5.173   4.387 -31.440  1.00  0.00     0.039 A 
HETATM    6  C   UNL     1      -4.134   5.219 -31.872  1.00  0.00     0.011 A 
ENDROOT
BRANCH   3   7
HETATM    7  N   UNL     1      -3.998   1.075 -32.541  1.00  0.00    -0.320 N 
HETATM    8  C   UNL     1      -3.270   0.123 -31.861  1.00  0.00     0.257 C 
HETATM    9  O   UNL     1      -2.531   0.296 -30.901  1.00  0.00    -0.267 OA
HETATM   10  H   UNL     1      -4.706   0.772 -33.204  1.00  0.00     0.169 HD
BRANCH   8  11
HETATM   11  C   UNL     1      -3.469  -1.261 -32.339  1.00  0.00     0.051 A 
HETATM   12  C   UNL     1      -2.812  -2.334 -31.747  1.00  0.00     0.133 A 
HETATM   13  N   UNL     1      -2.958  -3.619 -32.151  1.00  0.00    -0.271 NA
HETATM   14  C   UNL     1      -3.815  -3.836 -33.179  1.00  0.00     0.135 A 
HETATM   15  C   UNL     1      -4.527  -2.827 -33.816  1.00  0.00     0.029 A 
HETATM   16 BR   UNL     1      -5.695  -3.225 -35.240  1.00  0.00    -0.050 Br
HETATM   17  C   UNL     1      -4.358  -1.516 -33.384  1.00  0.00     0.039 A 
ENDBRANCH   8  11
ENDBRANCH   3   7
BRANCH   4  18
HETATM   18  O   UNL     1      -6.082   2.108 -31.307  1.00  0.00    -0.354 OA
HETATM   19  C   UNL     1      -6.950   2.488 -30.246  1.00  0.00     0.210 C 
ENDBRANCH   4  18
BRANCH   1  20
HETATM   20  C   UNL     1      -1.901   5.657 -33.040  1.00  0.00    -0.024 C 
HETATM   21  C   UNL     1      -2.277   7.155 -32.968  1.00  0.00     0.019 C 
HETATM   22  C   UNL     1      -1.559   5.326 -34.507  1.00  0.00     0.019 C 
HETATM   23  C   UNL     1      -0.632   5.480 -32.173  1.00  0.00     0.019 C 
ENDBRANCH   1  20
TORSDOF 4
ENDMDL
MODEL 3
REMARK VINA RESULT:      -7.3      2.834      7.074
REMARK  4 active torsions:
REMARK  status: ('A' for Active; 'I' for Inactive)
REMARK    1  A    between atoms: C_2  and  C_3 
REMARK    2  A    between atoms: C_5  and  N_6 
REMARK       I    between atoms: N_6  and  C_7 
REMARK    3  A    between atoms: C_7  and  C_8 
REMARK    4  A    between atoms: C_16  and  O_17 
ROOT
HETATM    1  C   UNL     1     -11.370   2.370 -33.198  1.00  0.00    -0.048 A 
HETATM    2  C   UNL     1     -10.372   1.429 -33.513  1.00  0.00     0.040 A 
HETATM    3  C   UNL     1      -9.168   1.370 -32.799  1.00  0.00     0.069 A 
HETATM    4  C   UNL     1      -8.939   2.263 -31.735  1.00  0.00     0.095 A 
HETATM    5  C   UNL     1      -9.905   3.217 -31.425  1.00  0.00     0.039 A 
HETATM    6  C   UNL     1     -11.099   3.272 -32.154  1.00  0.00     0.011 A 
ENDROOT
BRANCH   3   7
HETATM    7  N   UNL     1      -8.140   0.438 -33.075  1.00  0.00    -0.320 N 
HETATM    8  C   UNL     1      -7.111   0.552 -33.983  1.00  0.00     0.257 C 
HETATM    9  O   UNL     1      -6.841   1.518 -34.685  1.00  0.00    -0.267 OA
HETATM   10  H   UNL     1      -8.144  -0.350 -32.433  1.00  0.00     0.169 HD
BRANCH   8  11
HETATM   11  C   UNL     1      -6.218  -0.624 -34.055  1.00  0.00     0.051 A 
HETATM   12  C   UNL     1      -4.911  -0.572 -33.586  1.00  0.00     0.133 A 
HETATM   13  N   UNL     1      -4.054  -1.621 -33.634  1.00  0.00    -0.271 NA
HETATM   14  C   UNL     1      -4.539  -2.774 -34.156  1.00  0.00     0.135 A 
HETATM   15  C   UNL     1      -5.837  -2.921 -34.630  1.00  0.00     0.029 A 
HETATM   16 BR   UNL     1      -6.421  -4.565 -35.343  1.00  0.00    -0.050 Br
HETATM   17  C   UNL     1      -6.696  -1.829 -34.573  1.00  0.00     0.039 A 
ENDBRANCH   8  11
ENDBRANCH   3   7
BRANCH   4  18
HETATM   18  O   UNL     1      -7.735   2.114 -31.085  1.00  0.00    -0.354 OA
HETATM   19  C   UNL     1      -7.450   3.034 -30.038  1.00  0.00     0.210 C 
ENDBRANCH   4  18
BRANCH   1  20
HETATM   20  C   UNL     1     -12.699   2.451 -33.973  1.00  0.00    -0.024 C 
HETATM   21  C   UNL     1     -12.722   3.555 -35.056  1.00  0.00     0.019 C 
HETATM   22  C   UNL     1     -13.836   2.746 -32.974  1.00  0.00     0.019 C 
HETATM   23  C   UNL     1     -12.995   1.118 -34.697  1.00  0.00     0.019 C 
ENDBRANCH   1  20
TORSDOF 4
ENDMDL
MODEL 4
REMARK VINA RESULT:      -7.2      3.216      7.179
REMARK  4 active torsions:
REMARK  status: ('A' for Active; 'I' for Inactive)
REMARK    1  A    between atoms: C_2  and  C_3 
REMARK    2  A    between atoms: C_5  and  N_6 
REMARK       I    between atoms: N_6  and  C_7 
REMARK    3  A    between atoms: C_7  and  C_8 
REMARK    4  A    between atoms: C_16  and  O_17 
ROOT
HETATM    1  C   UNL     1     -11.280   1.747 -33.391  1.00  0.00    -0.048 A 
HETATM    2  C   UNL     1     -10.252   0.808 -33.601  1.00  0.00     0.040 A 
HETATM    3  C   UNL     1      -8.977   0.980 -33.048  1.00  0.00     0.069 A 
HETATM    4  C   UNL     1      -8.703   2.112 -32.256  1.00  0.00     0.095 A 
HETATM    5  C   UNL     1      -9.701   3.063 -32.057  1.00  0.00     0.039 A 
HETATM    6  C   UNL     1     -10.967   2.884 -32.625  1.00  0.00     0.011 A 
ENDROOT
BRANCH   3   7
HETATM    7  N   UNL     1      -7.916   0.061 -33.227  1.00  0.00    -0.320 N 
HETATM    8  C   UNL     1      -7.209  -0.207 -34.378  1.00  0.00     0.257 C 
HETATM    9  O   UNL     1      -7.314   0.349 -35.463  1.00  0.00    -0.267 OA
HETATM   10  H   UNL     1      -7.607  -0.354 -32.352  1.00  0.00     0.169 HD
BRANCH   8  11
HETATM   11  C   UNL     1      -6.179  -1.258 -34.238  1.00  0.00     0.051 A 
HETATM   12  C   UNL     1      -6.163  -2.374 -35.066  1.00  0.00     0.133 A 
HETATM   13  N   UNL     1      -5.244  -3.364 -34.974  1.00  0.00    -0.271 NA
HETATM   14  C   UNL     1      -4.288  -3.216 -34.024  1.00  0.00     0.135 A 
HETATM   15  C   UNL     1      -4.216  -2.125 -33.167  1.00  0.00     0.029 A 
HETATM   16 BR   UNL     1      -2.851  -2.006 -31.873  1.00  0.00    -0.050 Br
HETATM   17  C   UNL     1      -5.173  -1.123 -33.280  1.00  0.00     0.039 A 
ENDBRANCH   8  11
ENDBRANCH   3   7
BRANCH   4  18
HETATM   18  O   UNL     1      -7.428   2.181 -31.743  1.00  0.00    -0.354 OA
HETATM   19  C   UNL     1      -7.286   2.744 -30.444  1.00  0.00     0.210 C 
ENDBRANCH   4  18
BRANCH   1  20
HETATM   20  C   UNL     1     -12.687   1.575 -33.994  1.00  0.00    -0.024 C 
HETATM   21  C   UNL     1     -12.743   1.807 -35.521  1.00  0.00     0.019 C 
HETATM   22  C   UNL     1     -13.637   2.591 -33.327  1.00  0.00     0.019 C 
HETATM   23  C   UNL     1     -13.221   0.145 -33.745  1.00  0.00     0.019 C 
ENDBRANCH   1  20
TORSDOF 4
ENDMDL
MODEL 5
REMARK VINA RESULT:      -7.2      4.780      7.849
REMARK  4 active torsions:
REMARK  status: ('A' for Active; 'I' for Inactive)
REMARK    1  A    between atoms: C_2  and  C_3 
REMARK    2  A    between atoms: C_5  and  N_6 
REMARK       I    between atoms: N_6  and  C_7 
REMARK    3  A    between atoms: C_7  and  C_8 
REMARK    4  A    between atoms: C_16  and  O_17 
ROOT
HETATM    1  C   UNL     1      -2.901   4.932 -32.181  1.00  0.00    -0.048 A 
HETATM    2  C   UNL     1      -3.194   3.669 -32.731  1.00  0.00     0.040 A 
HETATM    3  C   UNL     1      -4.250   2.886 -32.247  1.00  0.00     0.069 A 
HETATM    4  C   UNL     1      -5.050   3.363 -31.191  1.00  0.00     0.095 A 
HETATM    5  C   UNL     1      -4.760   4.599 -30.619  1.00  0.00     0.039 A 
HETATM    6  C   UNL     1      -3.695   5.366 -31.105  1.00  0.00     0.011 A 
ENDROOT
BRANCH   3   7
HETATM    7  N   UNL     1      -4.586   1.615 -32.771  1.00  0.00    -0.320 N 
HETATM    8  C   UNL     1      -3.973   0.406 -32.526  1.00  0.00     0.257 C 
HETATM    9  O   UNL     1      -3.055   0.181 -31.748  1.00  0.00    -0.267 OA
HETATM   10  H   UNL     1      -5.448   1.629 -33.308  1.00  0.00     0.169 HD
BRANCH   8  11
HETATM   11  C   UNL     1      -4.548  -0.737 -33.265  1.00  0.00     0.051 A 
HETATM   12  C   UNL     1      -5.679  -0.593 -34.060  1.00  0.00     0.133 A 
HETATM   13  N   UNL     1      -6.245  -1.610 -34.752  1.00  0.00    -0.271 NA
HETATM   14  C   UNL     1      -5.637  -2.818 -34.657  1.00  0.00     0.135 A 
HETATM   15  C   UNL     1      -4.493  -3.049 -33.903  1.00  0.00     0.029 A 
HETATM   16 BR   UNL     1      -3.719  -4.765 -33.829  1.00  0.00    -0.050 Br
HETATM   17  C   UNL     1      -3.933  -1.989 -33.199  1.00  0.00     0.039 A 
ENDBRANCH   8  11
ENDBRANCH   3   7
BRANCH   4  18
HETATM   18  O   UNL     1      -6.073   2.529 -30.800  1.00  0.00    -0.354 OA
HETATM   19  C   UNL     1      -7.195   3.137 -30.173  1.00  0.00     0.210 C 
ENDBRANCH   4  18
BRANCH   1  20
HETATM   20  C   UNL     1      -1.743   5.805 -32.698  1.00  0.00    -0.024 C 
HETATM   21  C   UNL     1      -2.052   7.320 -32.688  1.00  0.00     0.019 C 
HETATM   22  C   UNL     1      -1.427   5.398 -34.152  1.00  0.00     0.019 C 
HETATM   23  C   UNL     1      -0.476   5.608 -31.832  1.00  0.00     0.019 C 
ENDBRANCH   1  20
TORSDOF 4
ENDMDL
MODEL 6
REMARK VINA RESULT:      -7.1      5.615      7.777
REMARK  4 active torsions:
REMARK  status: ('A' for Active; 'I' for Inactive)
REMARK    1  A    between atoms: C_2  and  C_3 
REMARK    2  A    between atoms: C_5  and  N_6 
REMARK       I    between atoms: N_6  and  C_7 
REMARK    3  A    between atoms: C_7  and  C_8 
REMARK    4  A    between atoms: C_16  and  O_17 
ROOT
HETATM    1  C   UNL     1      -6.383   0.663 -32.925  1.00  0.00    -0.048 A 
HETATM    2  C   UNL     1      -5.419   1.664 -33.150  1.00  0.00     0.040 A 
HETATM    3  C   UNL     1      -5.054   2.570 -32.146  1.00  0.00     0.069 A 
HETATM    4  C   UNL     1      -5.653   2.486 -30.874  1.00  0.00     0.095 A 
HETATM    5  C   UNL     1      -6.626   1.517 -30.640  1.00  0.00     0.039 A 
HETATM    6  C   UNL     1      -6.989   0.626 -31.657  1.00  0.00     0.011 A 
ENDROOT
BRANCH   3   7
HETATM    7  N   UNL     1      -4.087   3.587 -32.324  1.00  0.00    -0.320 N 
HETATM    8  C   UNL     1      -4.115   4.640 -33.212  1.00  0.00     0.257 C 
HETATM    9  O   UNL     1      -5.019   4.944 -33.979  1.00  0.00    -0.267 OA
HETATM   10  H   UNL     1      -3.352   3.555 -31.624  1.00  0.00     0.169 HD
BRANCH   8  11
HETATM   11  C   UNL     1      -2.923   5.513 -33.171  1.00  0.00     0.051 A 
HETATM   12  C   UNL     1      -2.730   6.522 -34.107  1.00  0.00     0.133 A 
HETATM   13  N   UNL     1      -1.652   7.343 -34.114  1.00  0.00    -0.271 NA
HETATM   14  C   UNL     1      -0.742   7.155 -33.127  1.00  0.00     0.135 A 
HETATM   15  C   UNL     1      -0.864   6.186 -32.140  1.00  0.00     0.029 A 
HETATM   16 BR   UNL     1       0.455   5.997 -30.808  1.00  0.00    -0.050 Br
HETATM   17  C   UNL     1      -1.978   5.353 -32.156  1.00  0.00     0.039 A 
ENDBRANCH   8  11
ENDBRANCH   3   7
BRANCH   4  18
HETATM   18  O   UNL     1      -5.214   3.408 -29.951  1.00  0.00    -0.354 OA
HETATM   19  C   UNL     1      -6.159   4.376 -29.510  1.00  0.00     0.210 C 
ENDBRANCH   4  18
BRANCH   1  20
HETATM   20  C   UNL     1      -6.798  -0.340 -34.018  1.00  0.00    -0.024 C 
HETATM   21  C   UNL     1      -7.027   0.308 -35.403  1.00  0.00     0.019 C 
HETATM   22  C   UNL     1      -8.115  -1.018 -33.591  1.00  0.00     0.019 C 
HETATM   23  C   UNL     1      -5.712  -1.423 -34.212  1.00  0.00     0.019 C 
ENDBRANCH   1  20
TORSDOF 4
ENDMDL
MODEL 7
REMARK VINA RESULT:      -7.0      5.513      8.728
REMARK  4 active torsions:
REMARK  status: ('A' for Active; 'I' for Inactive)
REMARK    1  A    between atoms: C_2  and  C_3 
REMARK    2  A    between atoms: C_5  and  N_6 
REMARK       I    between atoms: N_6  and  C_7 
REMARK    3  A    between atoms: C_7  and  C_8 
REMARK    4  A    between atoms: C_16  and  O_17 
ROOT
HETATM    1  C   UNL     1      -1.447   5.826 -31.345  1.00  0.00    -0.048 A 
HETATM    2  C   UNL     1      -1.731   4.455 -31.490  1.00  0.00     0.040 A 
HETATM    3  C   UNL     1      -2.749   4.002 -32.338  1.00  0.00     0.069 A 
HETATM    4  C   UNL     1      -3.511   4.928 -33.076  1.00  0.00     0.095 A 
HETATM    5  C   UNL     1      -3.260   6.290 -32.928  1.00  0.00     0.039 A 
HETATM    6  C   UNL     1      -2.248   6.729 -32.067  1.00  0.00     0.011 A 
ENDROOT
BRANCH   3   7
HETATM    7  N   UNL     1      -3.065   2.635 -32.520  1.00  0.00    -0.320 N 
HETATM    8  C   UNL     1      -3.884   1.842 -31.746  1.00  0.00     0.257 C 
HETATM    9  O   UNL     1      -4.557   2.183 -30.783  1.00  0.00    -0.267 OA
HETATM   10  H   UNL     1      -2.704   2.263 -33.394  1.00  0.00     0.169 HD
BRANCH   8  11
HETATM   11  C   UNL     1      -3.976   0.435 -32.189  1.00  0.00     0.051 A 
HETATM   12  C   UNL     1      -3.067  -0.524 -31.756  1.00  0.00     0.133 A 
HETATM   13  N   UNL     1      -3.108  -1.823 -32.137  1.00  0.00    -0.271 NA
HETATM   14  C   UNL     1      -4.117  -2.178 -32.970  1.00  0.00     0.135 A 
HETATM   15  C   UNL     1      -5.080  -1.292 -33.436  1.00  0.00     0.029 A 
HETATM   16 BR   UNL     1      -6.445  -1.876 -34.596  1.00  0.00    -0.050 Br
HETATM   17  C   UNL     1      -5.015   0.038 -33.033  1.00  0.00     0.039 A 
ENDBRANCH   8  11
ENDBRANCH   3   7
BRANCH   4  18
HETATM   18  O   UNL     1      -4.473   4.384 -33.895  1.00  0.00    -0.354 OA
HETATM   19  C   UNL     1      -5.768   4.971 -33.846  1.00  0.00     0.210 C 
ENDBRANCH   4  18
BRANCH   1  20
HETATM   20  C   UNL     1      -0.334   6.343 -30.414  1.00  0.00    -0.024 C 
HETATM   21  C   UNL     1       0.381   5.226 -29.620  1.00  0.00     0.019 C 
HETATM   22  C   UNL     1      -0.956   7.321 -29.397  1.00  0.00     0.019 C 
HETATM   23  C   UNL     1       0.759   7.080 -31.221  1.00  0.00     0.019 C 
ENDBRANCH   1  20
TORSDOF 4
ENDMDL
MODEL 8
REMARK VINA RESULT:      -6.9      6.362      9.205
REMARK  4 active torsions:
REMARK  status: ('A' for Active; 'I' for Inactive)
REMARK    1  A    between atoms: C_2  and  C_3 
REMARK    2  A    between atoms: C_5  and  N_6 
REMARK       I    between atoms: N_6  and  C_7 
REMARK    3  A    between atoms: C_7  and  C_8 
REMARK    4  A    between atoms: C_16  and  O_17 
ROOT
HETATM    1  C   UNL     1      -0.664   6.191 -30.663  1.00  0.00    -0.048 A 
HETATM    2  C   UNL     1      -1.433   5.029 -30.865  1.00  0.00     0.040 A 
HETATM    3  C   UNL     1      -1.875   4.655 -32.140  1.00  0.00     0.069 A 
HETATM    4  C   UNL     1      -1.545   5.446 -33.258  1.00  0.00     0.095 A 
HETATM    5  C   UNL     1      -0.805   6.611 -33.074  1.00  0.00     0.039 A 
HETATM    6  C   UNL     1      -0.380   6.980 -31.792  1.00  0.00     0.011 A 
ENDROOT
BRANCH   3   7
HETATM    7  N   UNL     1      -2.644   3.494 -32.392  1.00  0.00    -0.320 N 
HETATM    8  C   UNL     1      -3.945   3.239 -32.018  1.00  0.00     0.257 C 
HETATM    9  O   UNL     1      -4.719   3.999 -31.451  1.00  0.00    -0.267 OA
HETATM   10  H   UNL     1      -2.173   2.840 -33.011  1.00  0.00     0.169 HD
BRANCH   8  11
HETATM   11  C   UNL     1      -4.448   1.905 -32.407  1.00  0.00     0.051 A 
HETATM   12  C   UNL     1      -5.630   1.756 -33.124  1.00  0.00     0.133 A 
HETATM   13  N   UNL     1      -6.134   0.556 -33.500  1.00  0.00    -0.271 NA
HETATM   14  C   UNL     1      -5.409  -0.538 -33.159  1.00  0.00     0.135 A 
HETATM   15  C   UNL     1      -4.209  -0.481 -32.462  1.00  0.00     0.029 A 
HETATM   16 BR   UNL     1      -3.271  -2.057 -32.029  1.00  0.00    -0.050 Br
HETATM   17  C   UNL     1      -3.714   0.763 -32.085  1.00  0.00     0.039 A 
ENDBRANCH   8  11
ENDBRANCH   3   7
BRANCH   4  18
HETATM   18  O   UNL     1      -2.009   4.984 -34.468  1.00  0.00    -0.354 OA
HETATM   19  C   UNL     1      -3.244   5.518 -34.929  1.00  0.00     0.210 C 
ENDBRANCH   4  18
BRANCH   1  20
HETATM   20  C   UNL     1      -0.172   6.621 -29.268  1.00  0.00    -0.024 C 
HETATM   21  C   UNL     1       0.750   7.861 -29.288  1.00  0.00     0.019 C 
HETATM   22  C   UNL     1       0.619   5.454 -28.643  1.00  0.00     0.019 C 
HETATM   23  C   UNL     1      -1.365   6.972 -28.349  1.00  0.00     0.019 C 
ENDBRANCH   1  20
TORSDOF 4
ENDMDL
MODEL 9
REMARK VINA RESULT:      -6.9      5.449      7.985
REMARK  4 active torsions:
REMARK  status: ('A' for Active; 'I' for Inactive)
REMARK    1  A    between atoms: C_2  and  C_3 
REMARK    2  A    between atoms: C_5  and  N_6 
REMARK       I    between atoms: N_6  and  C_7 
REMARK    3  A    between atoms: C_7  and  C_8 
REMARK    4  A    between atoms: C_16  and  O_17 
ROOT
HETATM    1  C   UNL     1      -7.464   1.221 -32.616  1.00  0.00    -0.048 A 
HETATM    2  C   UNL     1      -6.545   2.282 -32.731  1.00  0.00     0.040 A 
HETATM    3  C   UNL     1      -5.173   2.089 -32.529  1.00  0.00     0.069 A 
HETATM    4  C   UNL     1      -4.685   0.807 -32.208  1.00  0.00     0.095 A 
HETATM    5  C   UNL     1      -5.581  -0.249 -32.067  1.00  0.00     0.039 A 
HETATM    6  C   UNL     1      -6.951  -0.039 -32.260  1.00  0.00     0.011 A 
ENDROOT
BRANCH   3   7
HETATM    7  N   UNL     1      -4.213   3.122 -32.639  1.00  0.00    -0.320 N 
HETATM    8  C   UNL     1      -4.205   4.184 -33.518  1.00  0.00     0.257 C 
HETATM    9  O   UNL     1      -5.067   4.482 -34.333  1.00  0.00    -0.267 OA
HETATM   10  H   UNL     1      -3.520   3.093 -31.897  1.00  0.00     0.169 HD
BRANCH   8  11
HETATM   11  C   UNL     1      -3.031   5.073 -33.398  1.00  0.00     0.051 A 
HETATM   12  C   UNL     1      -2.857   6.163 -34.244  1.00  0.00     0.133 A 
HETATM   13  N   UNL     1      -1.797   7.004 -34.176  1.00  0.00    -0.271 NA
HETATM   14  C   UNL     1      -0.885   6.750 -33.207  1.00  0.00     0.135 A 
HETATM   15  C   UNL     1      -0.988   5.697 -32.307  1.00  0.00     0.029 A 
HETATM   16 BR   UNL     1       0.333   5.421 -30.992  1.00  0.00    -0.050 Br
HETATM   17  C   UNL     1      -2.084   4.846 -32.398  1.00  0.00     0.039 A 
ENDBRANCH   8  11
ENDBRANCH   3   7
BRANCH   4  18
HETATM   18  O   UNL     1      -3.321   0.717 -32.048  1.00  0.00    -0.354 OA
HETATM   19  C   UNL     1      -2.785  -0.581 -31.818  1.00  0.00     0.210 C 
ENDBRANCH   4  18
BRANCH   1  20
HETATM   20  C   UNL     1      -8.977   1.415 -32.832  1.00  0.00    -0.024 C 
HETATM   21  C   UNL     1      -9.621   2.424 -31.853  1.00  0.00     0.019 C 
HETATM   22  C   UNL     1      -9.681   0.057 -32.641  1.00  0.00     0.019 C 
HETATM   23  C   UNL     1      -9.266   1.938 -34.258  1.00  0.00     0.019 C 
ENDBRANCH   1  20
TORSDOF 4
ENDMDL
MODEL 10
REMARK VINA RESULT:      -6.6      4.356      7.486
REMARK  4 active torsions:
REMARK  status: ('A' for Active; 'I' for Inactive)
REMARK    1  A    between atoms: C_2  and  C_3 
REMARK    2  A    between atoms: C_5  and  N_6 
REMARK       I    between atoms: N_6  and  C_7 
REMARK    3  A    between atoms: C_7  and  C_8 
REMARK    4  A    between atoms: C_16  and  O_17 
ROOT
HETATM    1  C   UNL     1     -10.431   1.860 -33.920  1.00  0.00    -0.048 A 
HETATM    2  C   UNL     1      -9.254   2.615 -34.084  1.00  0.00     0.040 A 
HETATM    3  C   UNL     1      -8.002   2.113 -33.705  1.00  0.00     0.069 A 
HETATM    4  C   UNL     1      -7.903   0.822 -33.151  1.00  0.00     0.095 A 
HETATM    5  C   UNL     1      -9.059   0.071 -32.960  1.00  0.00     0.039 A 
HETATM    6  C   UNL     1     -10.304   0.589 -33.332  1.00  0.00     0.011 A 
ENDROOT
BRANCH   3   7
HETATM    7  N   UNL     1      -6.793   2.832 -33.856  1.00  0.00    -0.320 N 
HETATM    8  C   UNL     1      -6.159   3.632 -32.931  1.00  0.00     0.257 C 
HETATM    9  O   UNL     1      -6.482   3.824 -31.766  1.00  0.00    -0.267 OA
HETATM   10  H   UNL     1      -6.321   2.623 -34.731  1.00  0.00     0.169 HD
BRANCH   8  11
HETATM   11  C   UNL     1      -4.920   4.275 -33.418  1.00  0.00     0.051 A 
HETATM   12  C   UNL     1      -4.842   4.827 -34.692  1.00  0.00     0.133 A 
HETATM   13  N   UNL     1      -3.730   5.422 -35.185  1.00  0.00    -0.271 NA
HETATM   14  C   UNL     1      -2.659   5.484 -34.356  1.00  0.00     0.135 A 
HETATM   15  C   UNL     1      -2.655   4.978 -33.062  1.00  0.00     0.029 A 
HETATM   16 BR   UNL     1      -1.116   5.108 -31.983  1.00  0.00    -0.050 Br
HETATM   17  C   UNL     1      -3.808   4.369 -32.580  1.00  0.00     0.039 A 
ENDBRANCH   8  11
ENDBRANCH   3   7
BRANCH   4  18
HETATM   18  O   UNL     1      -6.629   0.413 -32.829  1.00  0.00    -0.354 OA
HETATM   19  C   UNL     1      -6.162  -0.783 -33.443  1.00  0.00     0.210 C 
ENDBRANCH   4  18
BRANCH   1  20
HETATM   20  C   UNL     1     -11.816   2.397 -34.328  1.00  0.00    -0.024 C 
HETATM   21  C   UNL     1     -12.756   1.316 -34.909  1.00  0.00     0.019 C 
HETATM   22  C   UNL     1     -11.627   3.486 -35.403  1.00  0.00     0.019 C 
HETATM   23  C   UNL     1     -12.548   3.010 -33.111  1.00  0.00     0.019 C 
ENDBRANCH   1  20
TORSDOF 4
ENDMDL
