MODEL 1
REMARK VINA RESULT:      -8.0      0.000      0.000
REMARK  5 active torsions:
REMARK  status: ('A' for Active; 'I' for Inactive)
REMARK    1  A    between atoms: C_6  and  N_7 
REMARK       I    between atoms: N_7  and  C_8 
REMARK    2  A    between atoms: C_8  and  C_9 
REMARK    3  A    between atoms: C_11  and  O_12 
REMARK    4  A    between atoms: C_15  and  O_16 
REMARK    5  A    between atoms: C_20  and  C_21 
ROOT
HETATM    1  C   UNL     1     -10.949   0.102 -33.115  1.00  0.00     0.073 C 
HETATM    2  C   UNL     1     -10.110   1.321 -33.004  1.00  0.00     0.065 A 
HETATM    3  N   UNL     1     -10.684   2.509 -32.772  1.00  0.00    -0.177 NA
HETATM    4  N   UNL     1      -9.653   3.373 -32.773  1.00  0.00    -0.262 N 
HETATM    5  H   UNL     1      -9.824   4.365 -32.634  1.00  0.00     0.191 HD
HETATM    6  C   UNL     1      -8.433   2.775 -32.959  1.00  0.00     0.137 A 
HETATM    7  C   UNL     1      -8.697   1.431 -33.132  1.00  0.00     0.046 A 
ENDROOT
BRANCH   6   8
HETATM    8  N   UNL     1      -7.231   3.460 -32.958  1.00  0.00    -0.307 N 
HETATM    9  C   UNL     1      -7.061   4.639 -33.659  1.00  0.00     0.257 C 
HETATM   10  O   UNL     1      -7.914   5.198 -34.339  1.00  0.00    -0.267 OA
HETATM   11  H   UNL     1      -6.444   3.029 -32.488  1.00  0.00     0.170 HD
BRANCH   9  12
HETATM   12  C   UNL     1      -5.693   5.193 -33.580  1.00  0.00     0.037 A 
HETATM   13  C   UNL     1      -5.394   6.090 -32.553  1.00  0.00     0.054 A 
HETATM   14  C   UNL     1      -4.135   6.686 -32.498  1.00  0.00     0.071 A 
HETATM   15  C   UNL     1      -3.173   6.341 -33.449  1.00  0.00     0.073 A 
HETATM   16  C   UNL     1      -3.460   5.412 -34.459  1.00  0.00     0.071 A 
HETATM   17  C   UNL     1      -4.729   4.843 -34.534  1.00  0.00     0.054 A 
BRANCH  14  18
HETATM   18  O   UNL     1      -3.972   7.582 -31.477  1.00  0.00    -0.356 OA
HETATM   19  C   UNL     1      -2.766   8.336 -31.473  1.00  0.00     0.210 C 
ENDBRANCH  14  18
BRANCH  16  20
HETATM   20  O   UNL     1      -2.420   5.162 -35.313  1.00  0.00    -0.356 OA
HETATM   21  C   UNL     1      -1.116   5.514 -34.865  1.00  0.00     0.210 C 
ENDBRANCH  16  20
ENDBRANCH   9  12
ENDBRANCH   6   8
BRANCH   7  22
HETATM   22  C   UNL     1      -7.694   0.421 -33.399  1.00  0.00    -0.020 A 
HETATM   23  C   UNL     1      -7.580  -0.140 -34.677  1.00  0.00     0.014 A 
HETATM   24  C   UNL     1      -6.614  -1.117 -34.932  1.00  0.00     0.020 A 
HETATM   25  C   UNL     1      -5.761  -1.532 -33.911  1.00  0.00     0.011 A 
HETATM   26 BR   UNL     1      -4.458  -2.857 -34.255  1.00  0.00    -0.051 Br
HETATM   27  C   UNL     1      -5.861  -0.977 -32.636  1.00  0.00     0.020 A 
HETATM   28  C   UNL     1      -6.825   0.001 -32.382  1.00  0.00     0.014 A 
ENDBRANCH   7  22
TORSDOF 5
ENDMDL
MODEL 2
REMARK VINA RESULT:      -7.9      3.608      4.778
REMARK  5 active torsions:
REMARK  status: ('A' for Active; 'I' for Inactive)
REMARK    1  A    between atoms: C_6  and  N_7 
REMARK       I    between atoms: N_7  and  C_8 
REMARK    2  A    between atoms: C_8  and  C_9 
REMARK    3  A    between atoms: C_11  and  O_12 
REMARK    4  A    between atoms: C_15  and  O_16 
REMARK    5  A    between atoms: C_20  and  C_21 
ROOT
HETATM    1  C   UNL     1      -6.719  -3.480 -34.729  1.00  0.00     0.073 C 
HETATM    2  C   UNL     1      -5.826  -2.400 -34.240  1.00  0.00     0.065 A 
HETATM    3  N   UNL     1      -4.512  -2.626 -34.109  1.00  0.00    -0.177 NA
HETATM    4  N   UNL     1      -4.031  -1.470 -33.619  1.00  0.00    -0.262 N 
HETATM    5  H   UNL     1      -3.040  -1.383 -33.408  1.00  0.00     0.191 HD
HETATM    6  C   UNL     1      -4.985  -0.496 -33.467  1.00  0.00     0.137 A 
HETATM    7  C   UNL     1      -6.177  -1.078 -33.849  1.00  0.00     0.046 A 
ENDROOT
BRANCH   6   8
HETATM    8  N   UNL     1      -4.715   0.783 -33.016  1.00  0.00    -0.307 N 
HETATM    9  C   UNL     1      -4.317   1.031 -31.717  1.00  0.00     0.257 C 
HETATM   10  O   UNL     1      -4.163   0.188 -30.840  1.00  0.00    -0.267 OA
HETATM   11  H   UNL     1      -4.895   1.554 -33.650  1.00  0.00     0.170 HD
BRANCH   9  12
HETATM   12  C   UNL     1      -4.128   2.465 -31.408  1.00  0.00     0.037 A 
HETATM   13  C   UNL     1      -5.103   3.120 -30.654  1.00  0.00     0.054 A 
HETATM   14  C   UNL     1      -4.989   4.487 -30.411  1.00  0.00     0.071 A 
HETATM   15  C   UNL     1      -3.872   5.176 -30.890  1.00  0.00     0.073 A 
HETATM   16  C   UNL     1      -2.874   4.512 -31.616  1.00  0.00     0.071 A 
HETATM   17  C   UNL     1      -3.006   3.152 -31.888  1.00  0.00     0.054 A 
BRANCH  14  18
HETATM   18  O   UNL     1      -6.025   5.030 -29.702  1.00  0.00    -0.356 OA
HETATM   19  C   UNL     1      -7.209   4.249 -29.597  1.00  0.00     0.210 C 
ENDBRANCH  14  18
BRANCH  16  20
HETATM   20  O   UNL     1      -1.834   5.309 -32.012  1.00  0.00    -0.356 OA
HETATM   21  C   UNL     1      -1.506   5.304 -33.397  1.00  0.00     0.210 C 
ENDBRANCH  16  20
ENDBRANCH   9  12
ENDBRANCH   6   8
BRANCH   7  22
HETATM   22  C   UNL     1      -7.466  -0.417 -33.812  1.00  0.00    -0.020 A 
HETATM   23  C   UNL     1      -8.268  -0.501 -32.667  1.00  0.00     0.014 A 
HETATM   24  C   UNL     1      -9.514   0.134 -32.635  1.00  0.00     0.020 A 
HETATM   25  C   UNL     1      -9.955   0.852 -33.744  1.00  0.00     0.011 A 
HETATM   26 BR   UNL     1     -11.641   1.706 -33.700  1.00  0.00    -0.051 Br
HETATM   27  C   UNL     1      -9.163   0.946 -34.887  1.00  0.00     0.020 A 
HETATM   28  C   UNL     1      -7.918   0.314 -34.919  1.00  0.00     0.014 A 
ENDBRANCH   7  22
TORSDOF 5
ENDMDL
MODEL 3
REMARK VINA RESULT:      -7.9      3.586      5.065
REMARK  5 active torsions:
REMARK  status: ('A' for Active; 'I' for Inactive)
REMARK    1  A    between atoms: C_6  and  N_7 
REMARK       I    between atoms: N_7  and  C_8 
REMARK    2  A    between atoms: C_8  and  C_9 
REMARK    3  A    between atoms: C_11  and  O_12 
REMARK    4  A    between atoms: C_15  and  O_16 
REMARK    5  A    between atoms: C_20  and  C_21 
ROOT
HETATM    1  C   UNL     1      -6.779  -3.597 -34.743  1.00  0.00     0.073 C 
HETATM    2  C   UNL     1      -5.831  -2.549 -34.291  1.00  0.00     0.065 A 
HETATM    3  N   UNL     1      -4.524  -2.828 -34.190  1.00  0.00    -0.177 NA
HETATM    4  N   UNL     1      -3.984  -1.686 -33.727  1.00  0.00    -0.262 N 
HETATM    5  H   UNL     1      -2.986  -1.638 -33.542  1.00  0.00     0.191 HD
HETATM    6  C   UNL     1      -4.893  -0.673 -33.564  1.00  0.00     0.137 A 
HETATM    7  C   UNL     1      -6.117  -1.209 -33.909  1.00  0.00     0.046 A 
ENDROOT
BRANCH   6   8
HETATM    8  N   UNL     1      -4.559   0.600 -33.137  1.00  0.00    -0.307 N 
HETATM    9  C   UNL     1      -4.700   0.988 -31.819  1.00  0.00     0.257 C 
HETATM   10  O   UNL     1      -5.120   0.287 -30.904  1.00  0.00    -0.267 OA
HETATM   11  H   UNL     1      -4.280   1.275 -33.840  1.00  0.00     0.170 HD
BRANCH   9  12
HETATM   12  C   UNL     1      -4.343   2.401 -31.566  1.00  0.00     0.037 A 
HETATM   13  C   UNL     1      -3.067   2.841 -31.922  1.00  0.00     0.054 A 
HETATM   14  C   UNL     1      -2.678   4.147 -31.629  1.00  0.00     0.071 A 
HETATM   15  C   UNL     1      -3.590   5.012 -31.021  1.00  0.00     0.073 A 
HETATM   16  C   UNL     1      -4.884   4.582 -30.697  1.00  0.00     0.071 A 
HETATM   17  C   UNL     1      -5.261   3.267 -30.959  1.00  0.00     0.054 A 
BRANCH  14  18
HETATM   18  O   UNL     1      -1.392   4.452 -31.980  1.00  0.00    -0.356 OA
HETATM   19  C   UNL     1      -1.221   5.373 -33.051  1.00  0.00     0.210 C 
ENDBRANCH  14  18
BRANCH  16  20
HETATM   20  O   UNL     1      -5.673   5.539 -30.117  1.00  0.00    -0.356 OA
HETATM   21  C   UNL     1      -6.676   5.090 -29.213  1.00  0.00     0.210 C 
ENDBRANCH  16  20
ENDBRANCH   9  12
ENDBRANCH   6   8
BRANCH   7  22
HETATM   22  C   UNL     1      -7.377  -0.496 -33.848  1.00  0.00    -0.020 A 
HETATM   23  C   UNL     1      -8.115  -0.467 -32.658  1.00  0.00     0.014 A 
HETATM   24  C   UNL     1      -9.332   0.218 -32.603  1.00  0.00     0.020 A 
HETATM   25  C   UNL     1      -9.809   0.876 -33.735  1.00  0.00     0.011 A 
HETATM   26 BR   UNL     1     -11.457   1.799 -33.660  1.00  0.00    -0.051 Br
HETATM   27  C   UNL     1      -9.081   0.860 -34.923  1.00  0.00     0.020 A 
HETATM   28  C   UNL     1      -7.864   0.177 -34.978  1.00  0.00     0.014 A 
ENDBRANCH   7  22
TORSDOF 5
ENDMDL
MODEL 4
REMARK VINA RESULT:      -7.8      4.118      6.617
REMARK  5 active torsions:
REMARK  status: ('A' for Active; 'I' for Inactive)
REMARK    1  A    between atoms: C_6  and  N_7 
REMARK       I    between atoms: N_7  and  C_8 
REMARK    2  A    between atoms: C_8  and  C_9 
REMARK    3  A    between atoms: C_11  and  O_12 
REMARK    4  A    between atoms: C_15  and  O_16 
REMARK    5  A    between atoms: C_20  and  C_21 
ROOT
HETATM    1  C   UNL     1      -3.231   0.281 -31.215  1.00  0.00     0.073 C 
HETATM    2  C   UNL     1      -4.470   1.006 -31.591  1.00  0.00     0.065 A 
HETATM    3  N   UNL     1      -4.712   2.223 -31.087  1.00  0.00    -0.177 NA
HETATM    4  N   UNL     1      -5.910   2.554 -31.600  1.00  0.00    -0.262 N 
HETATM    5  H   UNL     1      -6.338   3.443 -31.352  1.00  0.00     0.191 HD
HETATM    6  C   UNL     1      -6.429   1.608 -32.446  1.00  0.00     0.137 A 
HETATM    7  C   UNL     1      -5.518   0.571 -32.450  1.00  0.00     0.046 A 
ENDROOT
BRANCH   6   8
HETATM    8  N   UNL     1      -7.629   1.750 -33.117  1.00  0.00    -0.307 N 
HETATM    9  C   UNL     1      -8.832   1.868 -32.447  1.00  0.00     0.257 C 
HETATM   10  O   UNL     1      -8.979   1.860 -31.230  1.00  0.00    -0.267 OA
HETATM   11  H   UNL     1      -7.614   1.685 -34.128  1.00  0.00     0.170 HD
BRANCH   9  12
HETATM   12  C   UNL     1     -10.010   1.956 -33.336  1.00  0.00     0.037 A 
HETATM   13  C   UNL     1     -10.137   3.069 -34.168  1.00  0.00     0.054 A 
HETATM   14  C   UNL     1     -11.273   3.216 -34.962  1.00  0.00     0.071 A 
HETATM   15  C   UNL     1     -12.251   2.219 -34.946  1.00  0.00     0.073 A 
HETATM   16  C   UNL     1     -12.107   1.081 -34.139  1.00  0.00     0.071 A 
HETATM   17  C   UNL     1     -10.988   0.953 -33.320  1.00  0.00     0.054 A 
BRANCH  14  18
HETATM   18  O   UNL     1     -11.311   4.367 -35.699  1.00  0.00    -0.356 OA
HETATM   19  C   UNL     1     -10.379   5.383 -35.350  1.00  0.00     0.210 C 
ENDBRANCH  14  18
BRANCH  16  20
HETATM   20  O   UNL     1     -13.136   0.183 -34.234  1.00  0.00    -0.356 OA
HETATM   21  C   UNL     1     -14.458   0.707 -34.188  1.00  0.00     0.210 C 
ENDBRANCH  16  20
ENDBRANCH   9  12
ENDBRANCH   6   8
BRANCH   7  22
HETATM   22  C   UNL     1      -5.680  -0.667 -33.185  1.00  0.00    -0.020 A 
HETATM   23  C   UNL     1      -4.559  -1.409 -33.573  1.00  0.00     0.014 A 
HETATM   24  C   UNL     1      -4.717  -2.602 -34.286  1.00  0.00     0.020 A 
HETATM   25  C   UNL     1      -5.996  -3.052 -34.608  1.00  0.00     0.011 A 
HETATM   26 BR   UNL     1      -6.209  -4.661 -35.575  1.00  0.00    -0.051 Br
HETATM   27  C   UNL     1      -7.121  -2.324 -34.222  1.00  0.00     0.020 A 
HETATM   28  C   UNL     1      -6.962  -1.135 -33.508  1.00  0.00     0.014 A 
ENDBRANCH   7  22
TORSDOF 5
ENDMDL
MODEL 5
REMARK VINA RESULT:      -7.8      3.727      7.102
REMARK  5 active torsions:
REMARK  status: ('A' for Active; 'I' for Inactive)
REMARK    1  A    between atoms: C_6  and  N_7 
REMARK       I    between atoms: N_7  and  C_8 
REMARK    2  A    between atoms: C_8  and  C_9 
REMARK    3  A    between atoms: C_11  and  O_12 
REMARK    4  A    between atoms: C_15  and  O_16 
REMARK    5  A    between atoms: C_20  and  C_21 
ROOT
HETATM    1  C   UNL     1      -8.554   5.651 -30.754  1.00  0.00     0.073 C 
HETATM    2  C   UNL     1      -8.215   4.215 -30.921  1.00  0.00     0.065 A 
HETATM    3  N   UNL     1      -9.032   3.274 -30.430  1.00  0.00    -0.177 NA
HETATM    4  N   UNL     1      -8.408   2.119 -30.724  1.00  0.00    -0.262 N 
HETATM    5  H   UNL     1      -8.819   1.235 -30.437  1.00  0.00     0.191 HD
HETATM    6  C   UNL     1      -7.238   2.285 -31.418  1.00  0.00     0.137 A 
HETATM    7  C   UNL     1      -7.071   3.649 -31.550  1.00  0.00     0.046 A 
ENDROOT
BRANCH   6   8
HETATM    8  N   UNL     1      -6.448   1.239 -31.859  1.00  0.00    -0.307 N 
HETATM    9  C   UNL     1      -6.892   0.338 -32.808  1.00  0.00     0.257 C 
HETATM   10  O   UNL     1      -7.991   0.351 -33.351  1.00  0.00    -0.267 OA
HETATM   11  H   UNL     1      -5.553   1.100 -31.404  1.00  0.00     0.170 HD
BRANCH   9  12
HETATM   12  C   UNL     1      -5.927  -0.742 -33.110  1.00  0.00     0.037 A 
HETATM   13  C   UNL     1      -6.179  -1.576 -34.200  1.00  0.00     0.054 A 
HETATM   14  C   UNL     1      -5.328  -2.647 -34.465  1.00  0.00     0.071 A 
HETATM   15  C   UNL     1      -4.205  -2.843 -33.658  1.00  0.00     0.073 A 
HETATM   16  C   UNL     1      -3.930  -1.983 -32.585  1.00  0.00     0.071 A 
HETATM   17  C   UNL     1      -4.800  -0.934 -32.301  1.00  0.00     0.054 A 
BRANCH  14  18
HETATM   18  O   UNL     1      -5.699  -3.423 -35.528  1.00  0.00    -0.356 OA
HETATM   19  C   UNL     1      -6.636  -4.461 -35.269  1.00  0.00     0.210 C 
ENDBRANCH  14  18
BRANCH  16  20
HETATM   20  O   UNL     1      -2.791  -2.289 -31.890  1.00  0.00    -0.356 OA
HETATM   21  C   UNL     1      -2.616  -3.646 -31.500  1.00  0.00     0.210 C 
ENDBRANCH  16  20
ENDBRANCH   9  12
ENDBRANCH   6   8
BRANCH   7  22
HETATM   22  C   UNL     1      -5.937   4.284 -32.191  1.00  0.00    -0.020 A 
HETATM   23  C   UNL     1      -5.903   4.427 -33.583  1.00  0.00     0.014 A 
HETATM   24  C   UNL     1      -4.807   5.037 -34.200  1.00  0.00     0.020 A 
HETATM   25  C   UNL     1      -3.747   5.504 -33.425  1.00  0.00     0.011 A 
HETATM   26 BR   UNL     1      -2.263   6.324 -34.261  1.00  0.00    -0.051 Br
HETATM   27  C   UNL     1      -3.772   5.372 -32.038  1.00  0.00     0.020 A 
HETATM   28  C   UNL     1      -4.869   4.765 -31.422  1.00  0.00     0.014 A 
ENDBRANCH   7  22
TORSDOF 5
ENDMDL
MODEL 6
REMARK VINA RESULT:      -7.7      3.638      6.721
REMARK  5 active torsions:
REMARK  status: ('A' for Active; 'I' for Inactive)
REMARK    1  A    between atoms: C_6  and  N_7 
REMARK       I    between atoms: N_7  and  C_8 
REMARK    2  A    between atoms: C_8  and  C_9 
REMARK    3  A    between atoms: C_11  and  O_12 
REMARK    4  A    between atoms: C_15  and  O_16 
REMARK    5  A    between atoms: C_20  and  C_21 
ROOT
HETATM    1  C   UNL     1      -8.524   5.676 -30.965  1.00  0.00     0.073 C 
HETATM    2  C   UNL     1      -8.254   4.224 -31.108  1.00  0.00     0.065 A 
HETATM    3  N   UNL     1      -9.118   3.331 -30.609  1.00  0.00    -0.177 NA
HETATM    4  N   UNL     1      -8.548   2.143 -30.881  1.00  0.00    -0.262 N 
HETATM    5  H   UNL     1      -9.003   1.284 -30.583  1.00  0.00     0.191 HD
HETATM    6  C   UNL     1      -7.367   2.242 -31.570  1.00  0.00     0.137 A 
HETATM    7  C   UNL     1      -7.135   3.594 -31.721  1.00  0.00     0.046 A 
ENDROOT
BRANCH   6   8
HETATM    8  N   UNL     1      -6.626   1.152 -31.989  1.00  0.00    -0.307 N 
HETATM    9  C   UNL     1      -7.014   0.374 -33.063  1.00  0.00     0.257 C 
HETATM   10  O   UNL     1      -8.018   0.543 -33.747  1.00  0.00    -0.267 OA
HETATM   11  H   UNL     1      -5.822   0.887 -31.432  1.00  0.00     0.170 HD
BRANCH   9  12
HETATM   12  C   UNL     1      -6.123  -0.777 -33.326  1.00  0.00     0.037 A 
HETATM   13  C   UNL     1      -5.009  -0.960 -32.505  1.00  0.00     0.054 A 
HETATM   14  C   UNL     1      -4.112  -1.992 -32.774  1.00  0.00     0.071 A 
HETATM   15  C   UNL     1      -4.367  -2.858 -33.839  1.00  0.00     0.073 A 
HETATM   16  C   UNL     1      -5.505  -2.698 -34.641  1.00  0.00     0.071 A 
HETATM   17  C   UNL     1      -6.383  -1.646 -34.393  1.00  0.00     0.054 A 
BRANCH  14  18
HETATM   18  O   UNL     1      -3.035  -2.046 -31.933  1.00  0.00    -0.356 OA
HETATM   19  C   UNL     1      -2.407  -0.810 -31.614  1.00  0.00     0.210 C 
ENDBRANCH  14  18
BRANCH  16  20
HETATM   20  O   UNL     1      -5.631  -3.626 -35.639  1.00  0.00    -0.356 OA
HETATM   21  C   UNL     1      -6.383  -4.797 -35.342  1.00  0.00     0.210 C 
ENDBRANCH  16  20
ENDBRANCH   9  12
ENDBRANCH   6   8
BRANCH   7  22
HETATM   22  C   UNL     1      -5.967   4.164 -32.364  1.00  0.00    -0.020 A 
HETATM   23  C   UNL     1      -5.933   4.317 -33.755  1.00  0.00     0.014 A 
HETATM   24  C   UNL     1      -4.804   4.864 -34.373  1.00  0.00     0.020 A 
HETATM   25  C   UNL     1      -3.713   5.258 -33.601  1.00  0.00     0.011 A 
HETATM   26 BR   UNL     1      -2.187   5.993 -34.440  1.00  0.00    -0.051 Br
HETATM   27  C   UNL     1      -3.739   5.116 -32.215  1.00  0.00     0.020 A 
HETATM   28  C   UNL     1      -4.867   4.572 -31.597  1.00  0.00     0.014 A 
ENDBRANCH   7  22
TORSDOF 5
ENDMDL
MODEL 7
REMARK VINA RESULT:      -7.6      3.999      6.718
REMARK  5 active torsions:
REMARK  status: ('A' for Active; 'I' for Inactive)
REMARK    1  A    between atoms: C_6  and  N_7 
REMARK       I    between atoms: N_7  and  C_8 
REMARK    2  A    between atoms: C_8  and  C_9 
REMARK    3  A    between atoms: C_11  and  O_12 
REMARK    4  A    between atoms: C_15  and  O_16 
REMARK    5  A    between atoms: C_20  and  C_21 
ROOT
HETATM    1  C   UNL     1     -11.747   3.817 -32.492  1.00  0.00     0.073 C 
HETATM    2  C   UNL     1     -10.930   2.625 -32.833  1.00  0.00     0.065 A 
HETATM    3  N   UNL     1     -11.480   1.610 -33.512  1.00  0.00    -0.177 NA
HETATM    4  N   UNL     1     -10.485   0.709 -33.608  1.00  0.00    -0.262 N 
HETATM    5  H   UNL     1     -10.652  -0.180 -34.072  1.00  0.00     0.191 HD
HETATM    6  C   UNL     1      -9.306   1.127 -33.048  1.00  0.00     0.137 A 
HETATM    7  C   UNL     1      -9.566   2.373 -32.515  1.00  0.00     0.046 A 
ENDROOT
BRANCH   6   8
HETATM    8  N   UNL     1      -8.140   0.384 -33.063  1.00  0.00    -0.307 N 
HETATM    9  C   UNL     1      -7.519   0.020 -34.243  1.00  0.00     0.257 C 
HETATM   10  O   UNL     1      -7.907   0.297 -35.372  1.00  0.00    -0.267 OA
HETATM   11  H   UNL     1      -7.790   0.039 -32.176  1.00  0.00     0.170 HD
BRANCH   9  12
HETATM   12  C   UNL     1      -6.316  -0.818 -34.056  1.00  0.00     0.037 A 
HETATM   13  C   UNL     1      -6.301  -2.098 -34.611  1.00  0.00     0.054 A 
HETATM   14  C   UNL     1      -5.212  -2.938 -34.389  1.00  0.00     0.071 A 
HETATM   15  C   UNL     1      -4.126  -2.467 -33.649  1.00  0.00     0.073 A 
HETATM   16  C   UNL     1      -4.122  -1.168 -33.122  1.00  0.00     0.071 A 
HETATM   17  C   UNL     1      -5.227  -0.342 -33.315  1.00  0.00     0.054 A 
BRANCH  14  18
HETATM   18  O   UNL     1      -5.328  -4.184 -34.942  1.00  0.00    -0.356 OA
HETATM   19  C   UNL     1      -6.624  -4.570 -35.385  1.00  0.00     0.210 C 
ENDBRANCH  14  18
BRANCH  16  20
HETATM   20  O   UNL     1      -2.989  -0.839 -32.429  1.00  0.00    -0.356 OA
HETATM   21  C   UNL     1      -3.158  -0.084 -31.235  1.00  0.00     0.210 C 
ENDBRANCH  16  20
ENDBRANCH   9  12
ENDBRANCH   6   8
BRANCH   7  22
HETATM   22  C   UNL     1      -8.604   3.177 -31.787  1.00  0.00    -0.020 A 
HETATM   23  C   UNL     1      -7.672   3.960 -32.479  1.00  0.00     0.014 A 
HETATM   24  C   UNL     1      -6.743   4.731 -31.776  1.00  0.00     0.020 A 
HETATM   25  C   UNL     1      -6.747   4.722 -30.382  1.00  0.00     0.011 A 
HETATM   26 BR   UNL     1      -5.487   5.762 -29.433  1.00  0.00    -0.051 Br
HETATM   27  C   UNL     1      -7.674   3.951 -29.683  1.00  0.00     0.020 A 
HETATM   28  C   UNL     1      -8.604   3.182 -30.385  1.00  0.00     0.014 A 
ENDBRANCH   7  22
TORSDOF 5
ENDMDL
MODEL 8
REMARK VINA RESULT:      -7.6      4.101      7.214
REMARK  5 active torsions:
REMARK  status: ('A' for Active; 'I' for Inactive)
REMARK    1  A    between atoms: C_6  and  N_7 
REMARK       I    between atoms: N_7  and  C_8 
REMARK    2  A    between atoms: C_8  and  C_9 
REMARK    3  A    between atoms: C_11  and  O_12 
REMARK    4  A    between atoms: C_15  and  O_16 
REMARK    5  A    between atoms: C_20  and  C_21 
ROOT
HETATM    1  C   UNL     1      -4.341  -1.476 -32.915  1.00  0.00     0.073 C 
HETATM    2  C   UNL     1      -5.576  -1.078 -33.636  1.00  0.00     0.065 A 
HETATM    3  N   UNL     1      -6.041  -1.838 -34.636  1.00  0.00    -0.177 NA
HETATM    4  N   UNL     1      -7.124  -1.171 -35.073  1.00  0.00    -0.262 N 
HETATM    5  H   UNL     1      -7.660  -1.535 -35.857  1.00  0.00     0.191 HD
HETATM    6  C   UNL     1      -7.391  -0.028 -34.364  1.00  0.00     0.137 A 
HETATM    7  C   UNL     1      -6.385   0.073 -33.425  1.00  0.00     0.046 A 
ENDROOT
BRANCH   6   8
HETATM    8  N   UNL     1      -8.474   0.796 -34.611  1.00  0.00    -0.307 N 
HETATM    9  C   UNL     1      -9.610   0.765 -33.825  1.00  0.00     0.257 C 
HETATM   10  O   UNL     1      -9.793   0.035 -32.856  1.00  0.00    -0.267 OA
HETATM   11  H   UNL     1      -8.446   1.375 -35.442  1.00  0.00     0.170 HD
BRANCH   9  12
HETATM   12  C   UNL     1     -10.680   1.679 -34.277  1.00  0.00     0.037 A 
HETATM   13  C   UNL     1     -11.980   1.183 -34.386  1.00  0.00     0.054 A 
HETATM   14  C   UNL     1     -12.995   2.001 -34.880  1.00  0.00     0.071 A 
HETATM   15  C   UNL     1     -12.703   3.324 -35.218  1.00  0.00     0.073 A 
HETATM   16  C   UNL     1     -11.406   3.834 -35.074  1.00  0.00     0.071 A 
HETATM   17  C   UNL     1     -10.385   3.006 -34.613  1.00  0.00     0.054 A 
BRANCH  14  18
HETATM   18  O   UNL     1     -14.216   1.394 -34.986  1.00  0.00    -0.356 OA
HETATM   19  C   UNL     1     -14.553   0.447 -33.979  1.00  0.00     0.210 C 
ENDBRANCH  14  18
BRANCH  16  20
HETATM   20  O   UNL     1     -11.269   5.148 -35.433  1.00  0.00    -0.356 OA
HETATM   21  C   UNL     1     -10.021   5.770 -35.149  1.00  0.00     0.210 C 
ENDBRANCH  16  20
ENDBRANCH   9  12
ENDBRANCH   6   8
BRANCH   7  22
HETATM   22  C   UNL     1      -6.248   1.160 -32.476  1.00  0.00    -0.020 A 
HETATM   23  C   UNL     1      -5.721   2.391 -32.886  1.00  0.00     0.014 A 
HETATM   24  C   UNL     1      -5.586   3.437 -31.968  1.00  0.00     0.020 A 
HETATM   25  C   UNL     1      -5.979   3.253 -30.644  1.00  0.00     0.011 A 
HETATM   26 BR   UNL     1      -5.791   4.667 -29.404  1.00  0.00    -0.051 Br
HETATM   27  C   UNL     1      -6.509   2.034 -30.226  1.00  0.00     0.020 A 
HETATM   28  C   UNL     1      -6.646   0.989 -31.143  1.00  0.00     0.014 A 
ENDBRANCH   7  22
TORSDOF 5
ENDMDL
MODEL 9
REMARK VINA RESULT:      -7.6      3.626      6.461
REMARK  5 active torsions:
REMARK  status: ('A' for Active; 'I' for Inactive)
REMARK    1  A    between atoms: C_6  and  N_7 
REMARK       I    between atoms: N_7  and  C_8 
REMARK    2  A    between atoms: C_8  and  C_9 
REMARK    3  A    between atoms: C_11  and  O_12 
REMARK    4  A    between atoms: C_15  and  O_16 
REMARK    5  A    between atoms: C_20  and  C_21 
ROOT
HETATM    1  C   UNL     1     -10.769   5.079 -33.693  1.00  0.00     0.073 C 
HETATM    2  C   UNL     1     -10.220   3.737 -34.007  1.00  0.00     0.065 A 
HETATM    3  N   UNL     1     -10.995   2.818 -34.597  1.00  0.00    -0.177 NA
HETATM    4  N   UNL     1     -10.200   1.737 -34.693  1.00  0.00    -0.262 N 
HETATM    5  H   UNL     1     -10.563   0.877 -35.096  1.00  0.00     0.191 HD
HETATM    6  C   UNL     1      -8.930   1.942 -34.219  1.00  0.00     0.137 A 
HETATM    7  C   UNL     1      -8.913   3.239 -33.745  1.00  0.00     0.046 A 
ENDROOT
BRANCH   6   8
HETATM    8  N   UNL     1      -7.932   0.985 -34.251  1.00  0.00    -0.307 N 
HETATM    9  C   UNL     1      -7.630   0.208 -33.149  1.00  0.00     0.257 C 
HETATM   10  O   UNL     1      -8.181   0.267 -32.056  1.00  0.00    -0.267 OA
HETATM   11  H   UNL     1      -7.367   0.922 -35.089  1.00  0.00     0.170 HD
BRANCH   9  12
HETATM   12  C   UNL     1      -6.498  -0.720 -33.360  1.00  0.00     0.037 A 
HETATM   13  C   UNL     1      -5.311  -0.495 -32.662  1.00  0.00     0.054 A 
HETATM   14  C   UNL     1      -4.204  -1.308 -32.895  1.00  0.00     0.071 A 
HETATM   15  C   UNL     1      -4.313  -2.369 -33.797  1.00  0.00     0.073 A 
HETATM   16  C   UNL     1      -5.517  -2.620 -34.471  1.00  0.00     0.071 A 
HETATM   17  C   UNL     1      -6.612  -1.785 -34.263  1.00  0.00     0.054 A 
BRANCH  14  18
HETATM   18  O   UNL     1      -3.084  -0.965 -32.190  1.00  0.00    -0.356 OA
HETATM   19  C   UNL     1      -3.252  -0.023 -31.137  1.00  0.00     0.210 C 
ENDBRANCH  14  18
BRANCH  16  20
HETATM   20  O   UNL     1      -5.482  -3.698 -35.314  1.00  0.00    -0.356 OA
HETATM   21  C   UNL     1      -6.636  -4.530 -35.347  1.00  0.00     0.210 C 
ENDBRANCH  16  20
ENDBRANCH   9  12
ENDBRANCH   6   8
BRANCH   7  22
HETATM   22  C   UNL     1      -7.771   3.872 -33.116  1.00  0.00    -0.020 A 
HETATM   23  C   UNL     1      -7.525   3.683 -31.751  1.00  0.00     0.014 A 
HETATM   24  C   UNL     1      -6.425   4.297 -31.144  1.00  0.00     0.020 A 
HETATM   25  C   UNL     1      -5.573   5.098 -31.902  1.00  0.00     0.011 A 
HETATM   26 BR   UNL     1      -4.090   5.932 -31.080  1.00  0.00    -0.051 Br
HETATM   27  C   UNL     1      -5.806   5.289 -33.263  1.00  0.00     0.020 A 
HETATM   28  C   UNL     1      -6.903   4.673 -33.870  1.00  0.00     0.014 A 
ENDBRANCH   7  22
TORSDOF 5
ENDMDL
MODEL 10
REMARK VINA RESULT:      -7.5      1.599      2.255
REMARK  5 active torsions:
REMARK  status: ('A' for Active; 'I' for Inactive)
REMARK    1  A    between atoms: C_6  and  N_7 
REMARK       I    between atoms: N_7  and  C_8 
REMARK    2  A    between atoms: C_8  and  C_9 
REMARK    3  A    between atoms: C_11  and  O_12 
REMARK    4  A    between atoms: C_15  and  O_16 
REMARK    5  A    between atoms: C_20  and  C_21 
ROOT
HETATM    1  C   UNL     1     -11.462   0.993 -33.719  1.00  0.00     0.073 C 
HETATM    2  C   UNL     1     -10.489   2.012 -33.253  1.00  0.00     0.065 A 
HETATM    3  N   UNL     1     -10.921   3.216 -32.853  1.00  0.00    -0.177 NA
HETATM    4  N   UNL     1      -9.792   3.878 -32.544  1.00  0.00    -0.262 N 
HETATM    5  H   UNL     1      -9.843   4.842 -32.225  1.00  0.00     0.191 HD
HETATM    6  C   UNL     1      -8.653   3.130 -32.696  1.00  0.00     0.137 A 
HETATM    7  C   UNL     1      -9.073   1.905 -33.176  1.00  0.00     0.046 A 
ENDROOT
BRANCH   6   8
HETATM    8  N   UNL     1      -7.383   3.590 -32.401  1.00  0.00    -0.307 N 
HETATM    9  C   UNL     1      -6.752   4.542 -33.180  1.00  0.00     0.257 C 
HETATM   10  O   UNL     1      -7.216   5.070 -34.184  1.00  0.00    -0.267 OA
HETATM   11  H   UNL     1      -6.888   3.149 -31.635  1.00  0.00     0.170 HD
BRANCH   9  12
HETATM   12  C   UNL     1      -5.379   4.867 -32.738  1.00  0.00     0.037 A 
HETATM   13  C   UNL     1      -4.546   3.826 -32.325  1.00  0.00     0.054 A 
HETATM   14  C   UNL     1      -3.274   4.109 -31.833  1.00  0.00     0.071 A 
HETATM   15  C   UNL     1      -2.832   5.434 -31.802  1.00  0.00     0.073 A 
HETATM   16  C   UNL     1      -3.654   6.477 -32.252  1.00  0.00     0.071 A 
HETATM   17  C   UNL     1      -4.938   6.196 -32.711  1.00  0.00     0.054 A 
BRANCH  14  18
HETATM   18  O   UNL     1      -2.566   3.016 -31.415  1.00  0.00    -0.356 OA
HETATM   19  C   UNL     1      -3.292   1.803 -31.260  1.00  0.00     0.210 C 
ENDBRANCH  14  18
BRANCH  16  20
HETATM   20  O   UNL     1      -3.087   7.721 -32.174  1.00  0.00    -0.356 OA
HETATM   21  C   UNL     1      -1.737   7.844 -32.606  1.00  0.00     0.210 C 
ENDBRANCH  16  20
ENDBRANCH   9  12
ENDBRANCH   6   8
BRANCH   7  22
HETATM   22  C   UNL     1      -8.191   0.808 -33.520  1.00  0.00    -0.020 A 
HETATM   23  C   UNL     1      -8.061   0.398 -34.852  1.00  0.00     0.014 A 
HETATM   24  C   UNL     1      -7.213  -0.664 -35.181  1.00  0.00     0.020 A 
HETATM   25  C   UNL     1      -6.494  -1.312 -34.179  1.00  0.00     0.011 A 
HETATM   26 BR   UNL     1      -5.351  -2.750 -34.624  1.00  0.00    -0.051 Br
HETATM   27  C   UNL     1      -6.610  -0.909 -32.850  1.00  0.00     0.020 A 
HETATM   28  C   UNL     1      -7.456   0.153 -32.521  1.00  0.00     0.014 A 
ENDBRANCH   7  22
TORSDOF 5
ENDMDL
