MODEL 1
REMARK VINA RESULT:      -7.7      0.000      0.000
REMARK  5 active torsions:
REMARK  status: ('A' for Active; 'I' for Inactive)
REMARK    1  A    between atoms: C_2  and  O_3 
REMARK    2  A    between atoms: O_3  and  C_4 
REMARK    3  A    between atoms: C_6  and  C_7 
REMARK    4  A    between atoms: C_7  and  N_8 
REMARK       I    between atoms: N_8  and  C_9 
REMARK       I    between atoms: C_9  and  N_10 
REMARK    5  A    between atoms: N_10  and  C_11 
ROOT
HETATM    1  N   UNL     1      -4.565   2.146 -32.156  1.00  0.00    -0.335 N 
HETATM    2  C   UNL     1      -3.541   3.025 -31.971  1.00  0.00     0.321 C 
HETATM    3  N   UNL     1      -3.654   4.227 -32.611  1.00  0.00    -0.307 N 
HETATM    4  O   UNL     1      -2.605   2.663 -31.265  1.00  0.00    -0.247 OA
HETATM    5  H   UNL     1      -4.360   1.253 -31.726  1.00  0.00     0.165 HD
HETATM    6  H   UNL     1      -4.190   4.183 -33.461  1.00  0.00     0.170 HD
ENDROOT
BRANCH   1   7
HETATM    7  C   UNL     1      -5.749   2.203 -33.005  1.00  0.00     0.115 C 
HETATM    8  C   UNL     1      -6.926   2.730 -32.180  1.00  0.00     0.037 C 
BRANCH   7   9
HETATM    9  C   UNL     1      -5.966   0.844 -33.655  1.00  0.00    -0.033 A 
HETATM   10  C   UNL     1      -5.064  -0.198 -33.370  1.00  0.00     0.046 A 
HETATM   11  C   UNL     1      -5.235  -1.485 -33.890  1.00  0.00     0.069 A 
HETATM   12  C   UNL     1      -6.302  -1.742 -34.744  1.00  0.00     0.037 A 
HETATM   13  C   UNL     1      -7.205  -0.723 -35.046  1.00  0.00     0.003 A 
HETATM   14  C   UNL     1      -7.047   0.555 -34.500  1.00  0.00     0.009 A 
BRANCH  11  15
HETATM   15  O   UNL     1      -4.287  -2.389 -33.500  1.00  0.00    -0.352 OA
BRANCH  15  16
HETATM   16  C   UNL     1      -4.235  -3.606 -34.242  1.00  0.00     0.171 C 
HETATM   17  C   UNL     1      -3.504  -4.633 -33.395  1.00  0.00     0.034 C 
ENDBRANCH  15  16
ENDBRANCH  11  15
ENDBRANCH   7   9
ENDBRANCH   1   7
BRANCH   3  18
HETATM   18  C   UNL     1      -2.728   5.298 -32.556  1.00  0.00     0.059 A 
HETATM   19  C   UNL     1      -1.880   5.719 -33.589  1.00  0.00    -0.032 A 
HETATM   20  C   UNL     1      -1.744   5.034 -34.920  1.00  0.00     0.050 C 
HETATM   21  C   UNL     1      -1.070   6.847 -33.366  1.00  0.00     0.028 A 
HETATM   22  C   UNL     1      -1.077   7.463 -32.125  1.00  0.00     0.117 A 
HETATM   23  N   UNL     1      -1.823   7.039 -31.090  1.00  0.00    -0.271 NA
HETATM   24  C   UNL     1      -2.621   5.973 -31.332  1.00  0.00     0.146 A 
ENDBRANCH   3  18
TORSDOF 5
ENDMDL
MODEL 2
REMARK VINA RESULT:      -7.3      3.909      7.578
REMARK  5 active torsions:
REMARK  status: ('A' for Active; 'I' for Inactive)
REMARK    1  A    between atoms: C_2  and  O_3 
REMARK    2  A    between atoms: O_3  and  C_4 
REMARK    3  A    between atoms: C_6  and  C_7 
REMARK    4  A    between atoms: C_7  and  N_8 
REMARK       I    between atoms: N_8  and  C_9 
REMARK       I    between atoms: C_9  and  N_10 
REMARK    5  A    between atoms: N_10  and  C_11 
ROOT
HETATM    1  N   UNL     1      -8.457   0.433 -34.109  1.00  0.00    -0.335 N 
HETATM    2  C   UNL     1      -7.496  -0.412 -34.576  1.00  0.00     0.321 C 
HETATM    3  N   UNL     1      -7.308  -1.564 -33.866  1.00  0.00    -0.307 N 
HETATM    4  O   UNL     1      -6.875  -0.065 -35.576  1.00  0.00    -0.247 OA
HETATM    5  H   UNL     1      -8.467   1.298 -34.634  1.00  0.00     0.165 HD
HETATM    6  H   UNL     1      -7.532  -1.477 -32.890  1.00  0.00     0.170 HD
ENDROOT
BRANCH   1   7
HETATM    7  C   UNL     1      -9.284   0.390 -32.909  1.00  0.00     0.115 C 
HETATM    8  C   UNL     1     -10.741   0.652 -33.302  1.00  0.00     0.037 C 
BRANCH   7   9
HETATM    9  C   UNL     1      -8.709   1.341 -31.869  1.00  0.00    -0.033 A 
HETATM   10  C   UNL     1      -7.443   1.064 -31.320  1.00  0.00     0.046 A 
HETATM   11  C   UNL     1      -6.832   1.923 -30.402  1.00  0.00     0.069 A 
HETATM   12  C   UNL     1      -7.504   3.067 -29.983  1.00  0.00     0.037 A 
HETATM   13  C   UNL     1      -8.762   3.360 -30.509  1.00  0.00     0.003 A 
HETATM   14  C   UNL     1      -9.356   2.512 -31.450  1.00  0.00     0.009 A 
BRANCH  11  15
HETATM   15  O   UNL     1      -5.594   1.524 -29.982  1.00  0.00    -0.352 OA
BRANCH  15  16
HETATM   16  C   UNL     1      -4.604   1.371 -30.997  1.00  0.00     0.171 C 
HETATM   17  C   UNL     1      -4.027   2.745 -31.290  1.00  0.00     0.034 C 
ENDBRANCH  15  16
ENDBRANCH  11  15
ENDBRANCH   7   9
ENDBRANCH   1   7
BRANCH   3  18
HETATM   18  C   UNL     1      -6.382  -2.593 -34.167  1.00  0.00     0.059 A 
HETATM   19  C   UNL     1      -4.993  -2.541 -33.992  1.00  0.00    -0.032 A 
HETATM   20  C   UNL     1      -4.231  -1.329 -33.535  1.00  0.00     0.050 C 
HETATM   21  C   UNL     1      -4.241  -3.692 -34.291  1.00  0.00     0.028 A 
HETATM   22  C   UNL     1      -4.874  -4.810 -34.810  1.00  0.00     0.117 A 
HETATM   23  N   UNL     1      -6.194  -4.867 -35.060  1.00  0.00    -0.271 NA
HETATM   24  C   UNL     1      -6.906  -3.763 -34.735  1.00  0.00     0.146 A 
ENDBRANCH   3  18
TORSDOF 5
ENDMDL
MODEL 3
REMARK VINA RESULT:      -7.1      4.780      7.050
REMARK  5 active torsions:
REMARK  status: ('A' for Active; 'I' for Inactive)
REMARK    1  A    between atoms: C_2  and  O_3 
REMARK    2  A    between atoms: O_3  and  C_4 
REMARK    3  A    between atoms: C_6  and  C_7 
REMARK    4  A    between atoms: C_7  and  N_8 
REMARK       I    between atoms: N_8  and  C_9 
REMARK       I    between atoms: C_9  and  N_10 
REMARK    5  A    between atoms: N_10  and  C_11 
ROOT
HETATM    1  N   UNL     1      -8.406  -0.150 -33.449  1.00  0.00    -0.335 N 
HETATM    2  C   UNL     1      -9.634   0.359 -33.151  1.00  0.00     0.321 C 
HETATM    3  N   UNL     1      -9.820   1.684 -33.424  1.00  0.00    -0.307 N 
HETATM    4  O   UNL     1     -10.457  -0.404 -32.654  1.00  0.00    -0.247 OA
HETATM    5  H   UNL     1      -8.322  -1.108 -33.132  1.00  0.00     0.165 HD
HETATM    6  H   UNL     1      -8.976   2.229 -33.375  1.00  0.00     0.170 HD
ENDROOT
BRANCH   1   7
HETATM    7  C   UNL     1      -7.184   0.486 -33.929  1.00  0.00     0.115 C 
HETATM    8  C   UNL     1      -7.102   0.318 -35.449  1.00  0.00     0.037 C 
BRANCH   7   9
HETATM    9  C   UNL     1      -5.996  -0.058 -33.149  1.00  0.00    -0.033 A 
HETATM   10  C   UNL     1      -5.421  -1.279 -33.547  1.00  0.00     0.046 A 
HETATM   11  C   UNL     1      -4.295  -1.808 -32.910  1.00  0.00     0.069 A 
HETATM   12  C   UNL     1      -3.744  -1.135 -31.824  1.00  0.00     0.037 A 
HETATM   13  C   UNL     1      -4.300   0.074 -31.407  1.00  0.00     0.003 A 
HETATM   14  C   UNL     1      -5.408   0.614 -32.068  1.00  0.00     0.009 A 
BRANCH  11  15
HETATM   15  O   UNL     1      -3.846  -2.989 -33.430  1.00  0.00    -0.352 OA
BRANCH  15  16
HETATM   16  C   UNL     1      -4.612  -3.537 -34.501  1.00  0.00     0.171 C 
HETATM   17  C   UNL     1      -4.729  -5.033 -34.268  1.00  0.00     0.034 C 
ENDBRANCH  15  16
ENDBRANCH  11  15
ENDBRANCH   7   9
ENDBRANCH   1   7
BRANCH   3  18
HETATM   18  C   UNL     1     -11.010   2.425 -33.215  1.00  0.00     0.059 A 
HETATM   19  C   UNL     1     -12.173   2.369 -33.994  1.00  0.00    -0.032 A 
HETATM   20  C   UNL     1     -12.320   1.571 -35.259  1.00  0.00     0.050 C 
HETATM   21  C   UNL     1     -13.281   3.137 -33.591  1.00  0.00     0.028 A 
HETATM   22  C   UNL     1     -13.175   3.970 -32.489  1.00  0.00     0.117 A 
HETATM   23  N   UNL     1     -12.050   4.103 -31.765  1.00  0.00    -0.271 NA
HETATM   24  C   UNL     1     -11.005   3.332 -32.146  1.00  0.00     0.146 A 
ENDBRANCH   3  18
TORSDOF 5
ENDMDL
MODEL 4
REMARK VINA RESULT:      -6.9      4.754      7.574
REMARK  5 active torsions:
REMARK  status: ('A' for Active; 'I' for Inactive)
REMARK    1  A    between atoms: C_2  and  O_3 
REMARK    2  A    between atoms: O_3  and  C_4 
REMARK    3  A    between atoms: C_6  and  C_7 
REMARK    4  A    between atoms: C_7  and  N_8 
REMARK       I    between atoms: N_8  and  C_9 
REMARK       I    between atoms: C_9  and  N_10 
REMARK    5  A    between atoms: N_10  and  C_11 
ROOT
HETATM    1  N   UNL     1      -7.980   1.937 -32.872  1.00  0.00    -0.335 N 
HETATM    2  C   UNL     1      -9.202   2.127 -33.442  1.00  0.00     0.321 C 
HETATM    3  N   UNL     1     -10.264   1.563 -32.794  1.00  0.00    -0.307 N 
HETATM    4  O   UNL     1      -9.245   2.769 -34.487  1.00  0.00    -0.247 OA
HETATM    5  H   UNL     1      -7.242   2.304 -33.461  1.00  0.00     0.165 HD
HETATM    6  H   UNL     1     -10.027   0.737 -32.273  1.00  0.00     0.170 HD
ENDROOT
BRANCH   1   7
HETATM    7  C   UNL     1      -7.559   1.145 -31.722  1.00  0.00     0.115 C 
HETATM    8  C   UNL     1      -7.210   2.091 -30.570  1.00  0.00     0.037 C 
BRANCH   7   9
HETATM    9  C   UNL     1      -6.448   0.195 -32.145  1.00  0.00    -0.033 A 
HETATM   10  C   UNL     1      -6.660  -0.653 -33.248  1.00  0.00     0.046 A 
HETATM   11  C   UNL     1      -5.664  -1.510 -33.724  1.00  0.00     0.069 A 
HETATM   12  C   UNL     1      -4.437  -1.561 -33.071  1.00  0.00     0.037 A 
HETATM   13  C   UNL     1      -4.204  -0.733 -31.972  1.00  0.00     0.003 A 
HETATM   14  C   UNL     1      -5.195   0.143 -31.519  1.00  0.00     0.009 A 
BRANCH  11  15
HETATM   15  O   UNL     1      -6.020  -2.251 -34.815  1.00  0.00    -0.352 OA
BRANCH  15  16
HETATM   16  C   UNL     1      -5.475  -3.567 -34.888  1.00  0.00     0.171 C 
HETATM   17  C   UNL     1      -6.591  -4.506 -35.311  1.00  0.00     0.034 C 
ENDBRANCH  15  16
ENDBRANCH  11  15
ENDBRANCH   7   9
ENDBRANCH   1   7
BRANCH   3  18
HETATM   18  C   UNL     1     -11.623   1.640 -33.187  1.00  0.00     0.059 A 
HETATM   19  C   UNL     1     -12.467   2.751 -33.056  1.00  0.00    -0.032 A 
HETATM   20  C   UNL     1     -12.089   4.039 -32.380  1.00  0.00     0.050 C 
HETATM   21  C   UNL     1     -13.775   2.656 -33.564  1.00  0.00     0.028 A 
HETATM   22  C   UNL     1     -14.215   1.462 -34.111  1.00  0.00     0.117 A 
HETATM   23  N   UNL     1     -13.455   0.355 -34.184  1.00  0.00    -0.271 NA
HETATM   24  C   UNL     1     -12.189   0.473 -33.721  1.00  0.00     0.146 A 
ENDBRANCH   3  18
TORSDOF 5
ENDMDL
MODEL 5
REMARK VINA RESULT:      -6.9      5.470      8.335
REMARK  5 active torsions:
REMARK  status: ('A' for Active; 'I' for Inactive)
REMARK    1  A    between atoms: C_2  and  O_3 
REMARK    2  A    between atoms: O_3  and  C_4 
REMARK    3  A    between atoms: C_6  and  C_7 
REMARK    4  A    between atoms: C_7  and  N_8 
REMARK       I    between atoms: N_8  and  C_9 
REMARK       I    between atoms: C_9  and  N_10 
REMARK    5  A    between atoms: N_10  and  C_11 
ROOT
HETATM    1  N   UNL     1      -9.670   1.798 -33.648  1.00  0.00    -0.335 N 
HETATM    2  C   UNL     1     -10.968   2.183 -33.799  1.00  0.00     0.321 C 
HETATM    3  N   UNL     1     -11.792   1.957 -32.734  1.00  0.00    -0.307 N 
HETATM    4  O   UNL     1     -11.289   2.682 -34.874  1.00  0.00    -0.247 OA
HETATM    5  H   UNL     1      -9.153   1.915 -34.511  1.00  0.00     0.165 HD
HETATM    6  H   UNL     1     -11.517   1.170 -32.171  1.00  0.00     0.170 HD
ENDROOT
BRANCH   1   7
HETATM    7  C   UNL     1      -8.990   1.084 -32.574  1.00  0.00     0.115 C 
HETATM    8  C   UNL     1      -8.596   2.086 -31.485  1.00  0.00     0.037 C 
BRANCH   7   9
HETATM    9  C   UNL     1      -7.842   0.273 -33.159  1.00  0.00    -0.033 A 
HETATM   10  C   UNL     1      -6.767  -0.085 -32.325  1.00  0.00     0.046 A 
HETATM   11  C   UNL     1      -5.708  -0.874 -32.782  1.00  0.00     0.069 A 
HETATM   12  C   UNL     1      -5.689  -1.290 -34.109  1.00  0.00     0.037 A 
HETATM   13  C   UNL     1      -6.741  -0.944 -34.957  1.00  0.00     0.003 A 
HETATM   14  C   UNL     1      -7.813  -0.179 -34.486  1.00  0.00     0.009 A 
BRANCH  11  15
HETATM   15  O   UNL     1      -4.754  -1.152 -31.843  1.00  0.00    -0.352 OA
BRANCH  15  16
HETATM   16  C   UNL     1      -3.457  -1.474 -32.340  1.00  0.00     0.171 C 
HETATM   17  C   UNL     1      -3.163  -2.916 -31.965  1.00  0.00     0.034 C 
ENDBRANCH  15  16
ENDBRANCH  11  15
ENDBRANCH   7   9
ENDBRANCH   1   7
BRANCH   3  18
HETATM   18  C   UNL     1     -13.168   2.284 -32.653  1.00  0.00     0.059 A 
HETATM   19  C   UNL     1     -14.240   1.485 -33.074  1.00  0.00    -0.032 A 
HETATM   20  C   UNL     1     -14.101   0.165 -33.779  1.00  0.00     0.050 C 
HETATM   21  C   UNL     1     -15.547   1.956 -32.853  1.00  0.00     0.028 A 
HETATM   22  C   UNL     1     -15.740   3.210 -32.297  1.00  0.00     0.117 A 
HETATM   23  N   UNL     1     -14.734   4.032 -31.952  1.00  0.00    -0.271 NA
HETATM   24  C   UNL     1     -13.484   3.550 -32.140  1.00  0.00     0.146 A 
ENDBRANCH   3  18
TORSDOF 5
ENDMDL
MODEL 6
REMARK VINA RESULT:      -6.9      2.726      7.134
REMARK  5 active torsions:
REMARK  status: ('A' for Active; 'I' for Inactive)
REMARK    1  A    between atoms: C_2  and  O_3 
REMARK    2  A    between atoms: O_3  and  C_4 
REMARK    3  A    between atoms: C_6  and  C_7 
REMARK    4  A    between atoms: C_7  and  N_8 
REMARK       I    between atoms: N_8  and  C_9 
REMARK       I    between atoms: C_9  and  N_10 
REMARK    5  A    between atoms: N_10  and  C_11 
ROOT
HETATM    1  N   UNL     1      -3.611   1.042 -31.804  1.00  0.00    -0.335 N 
HETATM    2  C   UNL     1      -3.807  -0.268 -32.121  1.00  0.00     0.321 C 
HETATM    3  N   UNL     1      -4.572  -0.514 -33.226  1.00  0.00    -0.307 N 
HETATM    4  O   UNL     1      -3.298  -1.110 -31.387  1.00  0.00    -0.247 OA
HETATM    5  H   UNL     1      -3.115   1.134 -30.926  1.00  0.00     0.165 HD
HETATM    6  H   UNL     1      -5.254   0.202 -33.412  1.00  0.00     0.170 HD
ENDROOT
BRANCH   1   7
HETATM    7  C   UNL     1      -4.153   2.269 -32.376  1.00  0.00     0.115 C 
HETATM    8  C   UNL     1      -3.044   3.324 -32.426  1.00  0.00     0.037 C 
BRANCH   7   9
HETATM    9  C   UNL     1      -5.402   2.672 -31.606  1.00  0.00    -0.033 A 
HETATM   10  C   UNL     1      -6.653   2.197 -32.041  1.00  0.00     0.046 A 
HETATM   11  C   UNL     1      -7.833   2.484 -31.350  1.00  0.00     0.069 A 
HETATM   12  C   UNL     1      -7.785   3.293 -30.220  1.00  0.00     0.037 A 
HETATM   13  C   UNL     1      -6.557   3.781 -29.772  1.00  0.00     0.003 A 
HETATM   14  C   UNL     1      -5.376   3.467 -30.451  1.00  0.00     0.009 A 
BRANCH  11  15
HETATM   15  O   UNL     1      -8.961   1.929 -31.888  1.00  0.00    -0.352 OA
BRANCH  15  16
HETATM   16  C   UNL     1      -9.031   0.504 -31.872  1.00  0.00     0.171 C 
HETATM   17  C   UNL     1     -10.131   0.085 -32.830  1.00  0.00     0.034 C 
ENDBRANCH  15  16
ENDBRANCH  11  15
ENDBRANCH   7   9
ENDBRANCH   1   7
BRANCH   3  18
HETATM   18  C   UNL     1      -4.897  -1.787 -33.755  1.00  0.00     0.059 A 
HETATM   19  C   UNL     1      -6.057  -2.121 -34.467  1.00  0.00    -0.032 A 
HETATM   20  C   UNL     1      -7.211  -1.189 -34.711  1.00  0.00     0.050 C 
HETATM   21  C   UNL     1      -6.175  -3.429 -34.970  1.00  0.00     0.028 A 
HETATM   22  C   UNL     1      -5.189  -4.363 -34.694  1.00  0.00     0.117 A 
HETATM   23  N   UNL     1      -4.101  -4.095 -33.951  1.00  0.00    -0.271 NA
HETATM   24  C   UNL     1      -3.987  -2.823 -33.504  1.00  0.00     0.146 A 
ENDBRANCH   3  18
TORSDOF 5
ENDMDL
MODEL 7
REMARK VINA RESULT:      -6.9      1.823      2.655
REMARK  5 active torsions:
REMARK  status: ('A' for Active; 'I' for Inactive)
REMARK    1  A    between atoms: C_2  and  O_3 
REMARK    2  A    between atoms: O_3  and  C_4 
REMARK    3  A    between atoms: C_6  and  C_7 
REMARK    4  A    between atoms: C_7  and  N_8 
REMARK       I    between atoms: N_8  and  C_9 
REMARK       I    between atoms: C_9  and  N_10 
REMARK    5  A    between atoms: N_10  and  C_11 
ROOT
HETATM    1  N   UNL     1      -6.326   1.707 -31.694  1.00  0.00    -0.335 N 
HETATM    2  C   UNL     1      -5.504   2.786 -31.574  1.00  0.00     0.321 C 
HETATM    3  N   UNL     1      -4.850   3.176 -32.709  1.00  0.00    -0.307 N 
HETATM    4  O   UNL     1      -5.408   3.304 -30.466  1.00  0.00    -0.247 OA
HETATM    5  H   UNL     1      -6.697   1.430 -30.794  1.00  0.00     0.165 HD
HETATM    6  H   UNL     1      -4.673   2.422 -33.351  1.00  0.00     0.170 HD
ENDROOT
BRANCH   1   7
HETATM    7  C   UNL     1      -6.579   0.801 -32.809  1.00  0.00     0.115 C 
HETATM    8  C   UNL     1      -8.050   0.376 -32.777  1.00  0.00     0.037 C 
BRANCH   7   9
HETATM    9  C   UNL     1      -5.571  -0.338 -32.769  1.00  0.00    -0.033 A 
HETATM   10  C   UNL     1      -5.571  -1.285 -33.810  1.00  0.00     0.046 A 
HETATM   11  C   UNL     1      -4.637  -2.324 -33.863  1.00  0.00     0.069 A 
HETATM   12  C   UNL     1      -3.702  -2.456 -32.843  1.00  0.00     0.037 A 
HETATM   13  C   UNL     1      -3.685  -1.533 -31.797  1.00  0.00     0.003 A 
HETATM   14  C   UNL     1      -4.603  -0.478 -31.764  1.00  0.00     0.009 A 
BRANCH  11  15
HETATM   15  O   UNL     1      -4.757  -3.144 -34.950  1.00  0.00    -0.352 OA
BRANCH  15  16
HETATM   16  C   UNL     1      -5.286  -4.446 -34.700  1.00  0.00     0.171 C 
HETATM   17  C   UNL     1      -6.677  -4.503 -35.305  1.00  0.00     0.034 C 
ENDBRANCH  15  16
ENDBRANCH  11  15
ENDBRANCH   7   9
ENDBRANCH   1   7
BRANCH   3  18
HETATM   18  C   UNL     1      -3.960   4.272 -32.830  1.00  0.00     0.059 A 
HETATM   19  C   UNL     1      -4.313   5.627 -32.895  1.00  0.00    -0.032 A 
HETATM   20  C   UNL     1      -5.723   6.144 -32.941  1.00  0.00     0.050 C 
HETATM   21  C   UNL     1      -3.280   6.580 -32.951  1.00  0.00     0.028 A 
HETATM   22  C   UNL     1      -1.961   6.161 -33.011  1.00  0.00     0.117 A 
HETATM   23  N   UNL     1      -1.593   4.868 -33.027  1.00  0.00    -0.271 NA
HETATM   24  C   UNL     1      -2.597   3.965 -32.938  1.00  0.00     0.146 A 
ENDBRANCH   3  18
TORSDOF 5
ENDMDL
MODEL 8
REMARK VINA RESULT:      -6.9      2.135      7.187
REMARK  5 active torsions:
REMARK  status: ('A' for Active; 'I' for Inactive)
REMARK    1  A    between atoms: C_2  and  O_3 
REMARK    2  A    between atoms: O_3  and  C_4 
REMARK    3  A    between atoms: C_6  and  C_7 
REMARK    4  A    between atoms: C_7  and  N_8 
REMARK       I    between atoms: N_8  and  C_9 
REMARK       I    between atoms: C_9  and  N_10 
REMARK    5  A    between atoms: N_10  and  C_11 
ROOT
HETATM    1  N   UNL     1      -5.801   3.286 -31.788  1.00  0.00    -0.335 N 
HETATM    2  C   UNL     1      -5.803   1.936 -31.972  1.00  0.00     0.321 C 
HETATM    3  N   UNL     1      -5.657   1.502 -33.259  1.00  0.00    -0.307 N 
HETATM    4  O   UNL     1      -5.949   1.230 -30.979  1.00  0.00    -0.247 OA
HETATM    5  H   UNL     1      -6.006   3.523 -30.826  1.00  0.00     0.165 HD
HETATM    6  H   UNL     1      -6.009   2.148 -33.945  1.00  0.00     0.170 HD
ENDROOT
BRANCH   1   7
HETATM    7  C   UNL     1      -5.768   4.393 -32.737  1.00  0.00     0.115 C 
HETATM    8  C   UNL     1      -6.724   4.083 -33.893  1.00  0.00     0.037 C 
BRANCH   7   9
HETATM    9  C   UNL     1      -4.326   4.667 -33.139  1.00  0.00    -0.033 A 
HETATM   10  C   UNL     1      -3.311   4.516 -32.176  1.00  0.00     0.046 A 
HETATM   11  C   UNL     1      -1.961   4.698 -32.492  1.00  0.00     0.069 A 
HETATM   12  C   UNL     1      -1.605   5.077 -33.782  1.00  0.00     0.037 A 
HETATM   13  C   UNL     1      -2.594   5.237 -34.752  1.00  0.00     0.003 A 
HETATM   14  C   UNL     1      -3.940   5.025 -34.439  1.00  0.00     0.009 A 
BRANCH  11  15
HETATM   15  O   UNL     1      -1.099   4.493 -31.452  1.00  0.00    -0.352 OA
BRANCH  15  16
HETATM   16  C   UNL     1       0.050   5.339 -31.410  1.00  0.00     0.171 C 
HETATM   17  C   UNL     1      -0.328   6.594 -30.644  1.00  0.00     0.034 C 
ENDBRANCH  15  16
ENDBRANCH  11  15
ENDBRANCH   7   9
ENDBRANCH   1   7
BRANCH   3  18
HETATM   18  C   UNL     1      -5.613   0.153 -33.690  1.00  0.00     0.059 A 
HETATM   19  C   UNL     1      -6.590  -0.512 -34.444  1.00  0.00    -0.032 A 
HETATM   20  C   UNL     1      -7.911   0.079 -34.847  1.00  0.00     0.050 C 
HETATM   21  C   UNL     1      -6.339  -1.841 -34.831  1.00  0.00     0.028 A 
HETATM   22  C   UNL     1      -5.183  -2.474 -34.406  1.00  0.00     0.117 A 
HETATM   23  N   UNL     1      -4.262  -1.889 -33.620  1.00  0.00    -0.271 NA
HETATM   24  C   UNL     1      -4.502  -0.600 -33.285  1.00  0.00     0.146 A 
ENDBRANCH   3  18
TORSDOF 5
ENDMDL
MODEL 9
REMARK VINA RESULT:      -6.9     15.996     17.741
REMARK  5 active torsions:
REMARK  status: ('A' for Active; 'I' for Inactive)
REMARK    1  A    between atoms: C_2  and  O_3 
REMARK    2  A    between atoms: O_3  and  C_4 
REMARK    3  A    between atoms: C_6  and  C_7 
REMARK    4  A    between atoms: C_7  and  N_8 
REMARK       I    between atoms: N_8  and  C_9 
REMARK       I    between atoms: C_9  and  N_10 
REMARK    5  A    between atoms: N_10  and  C_11 
ROOT
HETATM    1  N   UNL     1      -6.332 -13.047 -35.949  1.00  0.00    -0.335 N 
HETATM    2  C   UNL     1      -6.595 -13.591 -34.729  1.00  0.00     0.321 C 
HETATM    3  N   UNL     1      -5.781 -14.616 -34.337  1.00  0.00    -0.307 N 
HETATM    4  O   UNL     1      -7.541 -13.132 -34.097  1.00  0.00    -0.247 OA
HETATM    5  H   UNL     1      -7.034 -12.362 -36.202  1.00  0.00     0.165 HD
HETATM    6  H   UNL     1      -5.403 -15.147 -35.103  1.00  0.00     0.170 HD
ENDROOT
BRANCH   1   7
HETATM    7  C   UNL     1      -5.381 -13.417 -36.992  1.00  0.00     0.115 C 
HETATM    8  C   UNL     1      -4.011 -12.829 -36.644  1.00  0.00     0.037 C 
BRANCH   7   9
HETATM    9  C   UNL     1      -5.940 -13.011 -38.348  1.00  0.00    -0.033 A 
HETATM   10  C   UNL     1      -7.320 -12.764 -38.470  1.00  0.00     0.046 A 
HETATM   11  C   UNL     1      -7.890 -12.335 -39.671  1.00  0.00     0.069 A 
HETATM   12  C   UNL     1      -7.085 -12.182 -40.795  1.00  0.00     0.037 A 
HETATM   13  C   UNL     1      -5.714 -12.425 -40.700  1.00  0.00     0.003 A 
HETATM   14  C   UNL     1      -5.144 -12.826 -39.487  1.00  0.00     0.009 A 
BRANCH  11  15
HETATM   15  O   UNL     1      -9.239 -12.119 -39.619  1.00  0.00    -0.352 OA
BRANCH  15  16
HETATM   16  C   UNL     1     -10.041 -13.234 -39.237  1.00  0.00     0.171 C 
HETATM   17  C   UNL     1     -10.826 -13.679 -40.458  1.00  0.00     0.034 C 
ENDBRANCH  15  16
ENDBRANCH  11  15
ENDBRANCH   7   9
ENDBRANCH   1   7
BRANCH   3  18
HETATM   18  C   UNL     1      -5.852 -15.322 -33.111  1.00  0.00     0.059 A 
HETATM   19  C   UNL     1      -6.477 -16.558 -32.898  1.00  0.00    -0.032 A 
HETATM   20  C   UNL     1      -7.271 -17.307 -33.931  1.00  0.00     0.050 C 
HETATM   21  C   UNL     1      -6.388 -17.135 -31.618  1.00  0.00     0.028 A 
HETATM   22  C   UNL     1      -5.754 -16.447 -30.596  1.00  0.00     0.117 A 
HETATM   23  N   UNL     1      -5.210 -15.228 -30.749  1.00  0.00    -0.271 NA
HETATM   24  C   UNL     1      -5.275 -14.702 -31.995  1.00  0.00     0.146 A 
ENDBRANCH   3  18
TORSDOF 5
ENDMDL
MODEL 10
REMARK VINA RESULT:      -6.9      2.388      2.990
REMARK  5 active torsions:
REMARK  status: ('A' for Active; 'I' for Inactive)
REMARK    1  A    between atoms: C_2  and  O_3 
REMARK    2  A    between atoms: O_3  and  C_4 
REMARK    3  A    between atoms: C_6  and  C_7 
REMARK    4  A    between atoms: C_7  and  N_8 
REMARK       I    between atoms: N_8  and  C_9 
REMARK       I    between atoms: C_9  and  N_10 
REMARK    5  A    between atoms: N_10  and  C_11 
ROOT
HETATM    1  N   UNL     1      -7.388   0.838 -31.466  1.00  0.00    -0.335 N 
HETATM    2  C   UNL     1      -6.645   1.847 -30.932  1.00  0.00     0.321 C 
HETATM    3  N   UNL     1      -6.278   2.845 -31.790  1.00  0.00    -0.307 N 
HETATM    4  O   UNL     1      -6.357   1.769 -29.742  1.00  0.00    -0.247 OA
HETATM    5  H   UNL     1      -7.537   0.098 -30.790  1.00  0.00     0.165 HD
HETATM    6  H   UNL     1      -6.184   2.543 -32.744  1.00  0.00     0.170 HD
ENDROOT
BRANCH   1   7
HETATM    7  C   UNL     1      -7.801   0.559 -32.837  1.00  0.00     0.115 C 
HETATM    8  C   UNL     1      -9.299   0.245 -32.848  1.00  0.00     0.037 C 
BRANCH   7   9
HETATM    9  C   UNL     1      -6.904  -0.523 -33.420  1.00  0.00    -0.033 A 
HETATM   10  C   UNL     1      -5.529  -0.503 -33.121  1.00  0.00     0.046 A 
HETATM   11  C   UNL     1      -4.658  -1.496 -33.579  1.00  0.00     0.069 A 
HETATM   12  C   UNL     1      -5.149  -2.517 -34.386  1.00  0.00     0.037 A 
HETATM   13  C   UNL     1      -6.507  -2.556 -34.701  1.00  0.00     0.003 A 
HETATM   14  C   UNL     1      -7.379  -1.576 -34.216  1.00  0.00     0.009 A 
BRANCH  11  15
HETATM   15  O   UNL     1      -3.359  -1.344 -33.183  1.00  0.00    -0.352 OA
BRANCH  15  16
HETATM   16  C   UNL     1      -3.056  -1.751 -31.850  1.00  0.00     0.171 C 
HETATM   17  C   UNL     1      -2.959  -3.266 -31.839  1.00  0.00     0.034 C 
ENDBRANCH  15  16
ENDBRANCH  11  15
ENDBRANCH   7   9
ENDBRANCH   1   7
BRANCH   3  18
HETATM   18  C   UNL     1      -5.523   3.998 -31.462  1.00  0.00     0.059 A 
HETATM   19  C   UNL     1      -4.125   4.092 -31.417  1.00  0.00    -0.032 A 
HETATM   20  C   UNL     1      -3.181   2.941 -31.622  1.00  0.00     0.050 C 
HETATM   21  C   UNL     1      -3.553   5.345 -31.130  1.00  0.00     0.028 A 
HETATM   22  C   UNL     1      -4.371   6.423 -30.835  1.00  0.00     0.117 A 
HETATM   23  N   UNL     1      -5.713   6.347 -30.796  1.00  0.00    -0.271 NA
HETATM   24  C   UNL     1      -6.248   5.144 -31.108  1.00  0.00     0.146 A 
ENDBRANCH   3  18
TORSDOF 5
ENDMDL
