MODEL 1
REMARK VINA RESULT:      -9.3      0.000      0.000
REMARK  6 active torsions:
REMARK  status: ('A' for Active; 'I' for Inactive)
REMARK    1  A    between atoms: O_2  and  C_3 
REMARK    2  A    between atoms: C_7  and  O_8 
REMARK    3  A    between atoms: O_8  and  C_9 
REMARK    4  A    between atoms: C_9  and  C_10 
REMARK    5  A    between atoms: C_13  and  O_14 
REMARK    6  A    between atoms: C_17  and  C_23 
ROOT
HETATM    1  C   UNL     1      -4.351   2.592 -31.875  1.00  0.00     0.132 A 
HETATM    2  N   UNL     1      -5.244   2.180 -32.715  1.00  0.00    -0.229 NA
HETATM    3  C   UNL     1      -5.237   0.820 -33.096  1.00  0.00     0.108 A 
HETATM    4  C   UNL     1      -6.218   0.329 -33.978  1.00  0.00     0.098 A 
HETATM    5  C   UNL     1      -6.193  -1.018 -34.375  1.00  0.00     0.051 A 
HETATM    6  C   UNL     1      -5.211  -1.902 -33.893  1.00  0.00    -0.019 A 
HETATM    7  C   UNL     1      -4.252  -1.416 -33.001  1.00  0.00     0.032 A 
HETATM    8  C   UNL     1      -4.276  -0.072 -32.612  1.00  0.00     0.064 A 
HETATM    9  C   UNL     1      -3.279   0.444 -31.658  1.00  0.00     0.259 A 
HETATM   10  O   UNL     1      -2.416  -0.272 -31.166  1.00  0.00    -0.267 OA
HETATM   11  N   UNL     1      -3.384   1.774 -31.353  1.00  0.00    -0.309 N 
HETATM   12  H   UNL     1      -2.744   2.131 -30.655  1.00  0.00     0.170 HD
ENDROOT
BRANCH   1  13
HETATM   13  C   UNL     1      -4.289   4.044 -31.443  1.00  0.00     0.254 C 
BRANCH  13  14
HETATM   14  O   UNL     1      -2.919   4.360 -31.198  1.00  0.00    -0.344 OA
BRANCH  14  15
HETATM   15  C   UNL     1      -2.430   5.386 -31.962  1.00  0.00     0.071 A 
HETATM   16  C   UNL     1      -1.975   5.030 -33.231  1.00  0.00     0.037 A 
HETATM   17  C   UNL     1      -1.478   6.004 -34.093  1.00  0.00     0.005 A 
HETATM   18  C   UNL     1      -1.461   7.340 -33.691  1.00  0.00     0.037 A 
HETATM   19  C   UNL     1      -1.945   7.710 -32.434  1.00  0.00     0.070 A 
HETATM   20  C   UNL     1      -2.429   6.727 -31.565  1.00  0.00     0.073 A 
BRANCH  19  21
HETATM   21  O   UNL     1      -1.894   9.053 -32.178  1.00  0.00    -0.356 OA
HETATM   22  C   UNL     1      -2.481   9.502 -30.963  1.00  0.00     0.210 C 
ENDBRANCH  19  21
ENDBRANCH  14  15
ENDBRANCH  13  14
ENDBRANCH   1  13
BRANCH   4  23
HETATM   23  O   UNL     1      -7.146   1.241 -34.419  1.00  0.00    -0.354 OA
HETATM   24  C   UNL     1      -8.492   0.800 -34.524  1.00  0.00     0.210 C 
ENDBRANCH   4  23
BRANCH   6  25
HETATM   25  C   UNL     1      -5.200  -3.289 -34.331  1.00  0.00     0.010 A 
HETATM   26  C   UNL     1      -6.149  -4.037 -35.071  1.00  0.00     0.152 A 
HETATM   27  N   UNL     1      -5.774  -5.303 -35.266  1.00  0.00    -0.187 NA
HETATM   28  N   UNL     1      -4.581  -5.375 -34.657  1.00  0.00    -0.289 N 
HETATM   29  H   UNL     1      -4.085  -6.261 -34.672  1.00  0.00     0.188 HD
HETATM   30  C   UNL     1      -4.194  -4.199 -34.080  1.00  0.00     0.123 A 
ENDBRANCH   6  25
TORSDOF 6
ENDMDL
MODEL 2
REMARK VINA RESULT:      -9.2      1.286      1.823
REMARK  6 active torsions:
REMARK  status: ('A' for Active; 'I' for Inactive)
REMARK    1  A    between atoms: O_2  and  C_3 
REMARK    2  A    between atoms: C_7  and  O_8 
REMARK    3  A    between atoms: O_8  and  C_9 
REMARK    4  A    between atoms: C_9  and  C_10 
REMARK    5  A    between atoms: C_13  and  O_14 
REMARK    6  A    between atoms: C_17  and  C_23 
ROOT
HETATM    1  C   UNL     1      -4.479   2.750 -32.053  1.00  0.00     0.132 A 
HETATM    2  N   UNL     1      -5.296   2.255 -32.924  1.00  0.00    -0.229 NA
HETATM    3  C   UNL     1      -5.220   0.874 -33.214  1.00  0.00     0.108 A 
HETATM    4  C   UNL     1      -6.119   0.294 -34.128  1.00  0.00     0.098 A 
HETATM    5  C   UNL     1      -6.024  -1.074 -34.433  1.00  0.00     0.051 A 
HETATM    6  C   UNL     1      -5.052  -1.890 -33.827  1.00  0.00    -0.019 A 
HETATM    7  C   UNL     1      -4.175  -1.315 -32.904  1.00  0.00     0.032 A 
HETATM    8  C   UNL     1      -4.268   0.050 -32.606  1.00  0.00     0.064 A 
HETATM    9  C   UNL     1      -3.359   0.660 -31.621  1.00  0.00     0.259 A 
HETATM   10  O   UNL     1      -2.512   0.007 -31.025  1.00  0.00    -0.267 OA
HETATM   11  N   UNL     1      -3.528   2.002 -31.412  1.00  0.00    -0.309 N 
HETATM   12  H   UNL     1      -2.951   2.425 -30.696  1.00  0.00     0.170 HD
ENDROOT
BRANCH   1  13
HETATM   13  C   UNL     1      -4.494   4.228 -31.713  1.00  0.00     0.254 C 
BRANCH  13  14
HETATM   14  O   UNL     1      -3.878   4.922 -32.797  1.00  0.00    -0.344 OA
BRANCH  14  15
HETATM   15  C   UNL     1      -2.657   5.466 -32.500  1.00  0.00     0.071 A 
HETATM   16  C   UNL     1      -2.541   6.840 -32.707  1.00  0.00     0.037 A 
HETATM   17  C   UNL     1      -1.346   7.492 -32.414  1.00  0.00     0.005 A 
HETATM   18  C   UNL     1      -0.274   6.769 -31.891  1.00  0.00     0.037 A 
HETATM   19  C   UNL     1      -0.392   5.398 -31.649  1.00  0.00     0.070 A 
HETATM   20  C   UNL     1      -1.589   4.744 -31.959  1.00  0.00     0.073 A 
BRANCH  19  21
HETATM   21  O   UNL     1       0.725   4.817 -31.111  1.00  0.00    -0.356 OA
HETATM   22  C   UNL     1       0.845   4.841 -29.694  1.00  0.00     0.210 C 
ENDBRANCH  19  21
ENDBRANCH  14  15
ENDBRANCH  13  14
ENDBRANCH   1  13
BRANCH   4  23
HETATM   23  O   UNL     1      -7.041   1.143 -34.691  1.00  0.00    -0.354 OA
HETATM   24  C   UNL     1      -8.406   0.752 -34.633  1.00  0.00     0.210 C 
ENDBRANCH   4  23
BRANCH   6  25
HETATM   25  C   UNL     1      -4.967  -3.300 -34.171  1.00  0.00     0.010 A 
HETATM   26  C   UNL     1      -5.858  -4.138 -34.886  1.00  0.00     0.152 A 
HETATM   27  N   UNL     1      -5.422  -5.396 -34.986  1.00  0.00    -0.187 NA
HETATM   28  N   UNL     1      -4.247  -5.373 -34.340  1.00  0.00    -0.289 N 
HETATM   29  H   UNL     1      -3.712  -6.234 -34.282  1.00  0.00     0.188 HD
HETATM   30  C   UNL     1      -3.930  -4.146 -33.832  1.00  0.00     0.123 A 
ENDBRANCH   6  25
TORSDOF 6
ENDMDL
MODEL 3
REMARK VINA RESULT:      -8.6      1.605      3.144
REMARK  6 active torsions:
REMARK  status: ('A' for Active; 'I' for Inactive)
REMARK    1  A    between atoms: O_2  and  C_3 
REMARK    2  A    between atoms: C_7  and  O_8 
REMARK    3  A    between atoms: O_8  and  C_9 
REMARK    4  A    between atoms: C_9  and  C_10 
REMARK    5  A    between atoms: C_13  and  O_14 
REMARK    6  A    between atoms: C_17  and  C_23 
ROOT
HETATM    1  C   UNL     1      -6.407   3.182 -33.062  1.00  0.00     0.132 A 
HETATM    2  N   UNL     1      -5.430   2.378 -32.797  1.00  0.00    -0.229 NA
HETATM    3  C   UNL     1      -5.524   1.036 -33.228  1.00  0.00     0.108 A 
HETATM    4  C   UNL     1      -4.463   0.142 -32.992  1.00  0.00     0.098 A 
HETATM    5  C   UNL     1      -4.570  -1.198 -33.398  1.00  0.00     0.051 A 
HETATM    6  C   UNL     1      -5.719  -1.670 -34.058  1.00  0.00    -0.019 A 
HETATM    7  C   UNL     1      -6.762  -0.775 -34.309  1.00  0.00     0.032 A 
HETATM    8  C   UNL     1      -6.654   0.559 -33.898  1.00  0.00     0.064 A 
HETATM    9  C   UNL     1      -7.742   1.513 -34.175  1.00  0.00     0.259 A 
HETATM   10  O   UNL     1      -8.757   1.186 -34.778  1.00  0.00    -0.267 OA
HETATM   11  N   UNL     1      -7.541   2.788 -33.722  1.00  0.00    -0.309 N 
HETATM   12  H   UNL     1      -8.251   3.470 -33.955  1.00  0.00     0.170 HD
ENDROOT
BRANCH   1  13
HETATM   13  C   UNL     1      -6.378   4.629 -32.608  1.00  0.00     0.254 C 
BRANCH  13  14
HETATM   14  O   UNL     1      -5.815   5.399 -33.670  1.00  0.00    -0.344 OA
BRANCH  14  15
HETATM   15  C   UNL     1      -4.446   5.446 -33.669  1.00  0.00     0.071 A 
HETATM   16  C   UNL     1      -3.832   5.182 -34.893  1.00  0.00     0.037 A 
HETATM   17  C   UNL     1      -2.445   5.225 -35.002  1.00  0.00     0.005 A 
HETATM   18  C   UNL     1      -1.674   5.559 -33.889  1.00  0.00     0.037 A 
HETATM   19  C   UNL     1      -2.282   5.858 -32.667  1.00  0.00     0.070 A 
HETATM   20  C   UNL     1      -3.674   5.797 -32.557  1.00  0.00     0.073 A 
BRANCH  19  21
HETATM   21  O   UNL     1      -1.411   6.193 -31.666  1.00  0.00    -0.356 OA
HETATM   22  C   UNL     1      -1.107   7.573 -31.511  1.00  0.00     0.210 C 
ENDBRANCH  19  21
ENDBRANCH  14  15
ENDBRANCH  13  14
ENDBRANCH   1  13
BRANCH   4  23
HETATM   23  O   UNL     1      -3.370   0.659 -32.338  1.00  0.00    -0.354 OA
HETATM   24  C   UNL     1      -2.946  -0.004 -31.156  1.00  0.00     0.210 C 
ENDBRANCH   4  23
BRANCH   6  25
HETATM   25  C   UNL     1      -5.810  -3.066 -34.456  1.00  0.00     0.010 A 
HETATM   26  C   UNL     1      -4.846  -4.103 -34.433  1.00  0.00     0.152 A 
HETATM   27  N   UNL     1      -5.319  -5.262 -34.897  1.00  0.00    -0.187 NA
HETATM   28  N   UNL     1      -6.590  -4.978 -35.216  1.00  0.00    -0.289 N 
HETATM   29  H   UNL     1      -7.168  -5.720 -35.598  1.00  0.00     0.188 HD
HETATM   30  C   UNL     1      -6.932  -3.678 -34.975  1.00  0.00     0.123 A 
ENDBRANCH   6  25
TORSDOF 6
ENDMDL
MODEL 4
REMARK VINA RESULT:      -8.2      1.465      2.062
REMARK  6 active torsions:
REMARK  status: ('A' for Active; 'I' for Inactive)
REMARK    1  A    between atoms: O_2  and  C_3 
REMARK    2  A    between atoms: C_7  and  O_8 
REMARK    3  A    between atoms: O_8  and  C_9 
REMARK    4  A    between atoms: C_9  and  C_10 
REMARK    5  A    between atoms: C_13  and  O_14 
REMARK    6  A    between atoms: C_17  and  C_23 
ROOT
HETATM    1  C   UNL     1      -5.783   2.818 -31.675  1.00  0.00     0.132 A 
HETATM    2  N   UNL     1      -6.543   2.361 -32.615  1.00  0.00    -0.229 NA
HETATM    3  C   UNL     1      -6.370   1.023 -33.034  1.00  0.00     0.108 A 
HETATM    4  C   UNL     1      -7.206   0.480 -34.028  1.00  0.00     0.098 A 
HETATM    5  C   UNL     1      -7.014  -0.842 -34.460  1.00  0.00     0.051 A 
HETATM    6  C   UNL     1      -6.008  -1.652 -33.904  1.00  0.00    -0.019 A 
HETATM    7  C   UNL     1      -5.195  -1.117 -32.903  1.00  0.00     0.032 A 
HETATM    8  C   UNL     1      -5.384   0.203 -32.478  1.00  0.00     0.064 A 
HETATM    9  C   UNL     1      -4.542   0.769 -31.410  1.00  0.00     0.259 A 
HETATM   10  O   UNL     1      -3.671   0.114 -30.852  1.00  0.00    -0.267 OA
HETATM   11  N   UNL     1      -4.802   2.071 -31.078  1.00  0.00    -0.309 N 
HETATM   12  H   UNL     1      -4.273   2.456 -30.307  1.00  0.00     0.170 HD
ENDROOT
BRANCH   1  13
HETATM   13  C   UNL     1      -5.902   4.252 -31.195  1.00  0.00     0.254 C 
BRANCH  13  14
HETATM   14  O   UNL     1      -5.842   5.094 -32.346  1.00  0.00    -0.344 OA
BRANCH  14  15
HETATM   15  C   UNL     1      -4.713   5.866 -32.422  1.00  0.00     0.071 A 
HETATM   16  C   UNL     1      -4.427   6.631 -31.293  1.00  0.00     0.037 A 
HETATM   17  C   UNL     1      -3.290   7.435 -31.262  1.00  0.00     0.005 A 
HETATM   18  C   UNL     1      -2.426   7.451 -32.357  1.00  0.00     0.037 A 
HETATM   19  C   UNL     1      -2.687   6.662 -33.480  1.00  0.00     0.070 A 
HETATM   20  C   UNL     1      -3.838   5.869 -33.513  1.00  0.00     0.073 A 
BRANCH  19  21
HETATM   21  O   UNL     1      -1.746   6.754 -34.470  1.00  0.00    -0.356 OA
HETATM   22  C   UNL     1      -1.055   5.560 -34.815  1.00  0.00     0.210 C 
ENDBRANCH  19  21
ENDBRANCH  14  15
ENDBRANCH  13  14
ENDBRANCH   1  13
BRANCH   4  23
HETATM   23  O   UNL     1      -8.166   1.322 -34.537  1.00  0.00    -0.354 OA
HETATM   24  C   UNL     1      -9.523   0.991 -34.279  1.00  0.00     0.210 C 
ENDBRANCH   4  23
BRANCH   6  25
HETATM   25  C   UNL     1      -5.823  -3.014 -34.379  1.00  0.00     0.010 A 
HETATM   26  C   UNL     1      -6.724  -3.910 -35.006  1.00  0.00     0.152 A 
HETATM   27  N   UNL     1      -6.170  -5.092 -35.286  1.00  0.00    -0.187 NA
HETATM   28  N   UNL     1      -4.911  -4.962 -34.845  1.00  0.00    -0.289 N 
HETATM   29  H   UNL     1      -4.279  -5.749 -34.953  1.00  0.00     0.188 HD
HETATM   30  C   UNL     1      -4.653  -3.740 -34.292  1.00  0.00     0.123 A 
ENDBRANCH   6  25
TORSDOF 6
ENDMDL
MODEL 5
REMARK VINA RESULT:      -7.9      2.483      4.193
REMARK  6 active torsions:
REMARK  status: ('A' for Active; 'I' for Inactive)
REMARK    1  A    between atoms: O_2  and  C_3 
REMARK    2  A    between atoms: C_7  and  O_8 
REMARK    3  A    between atoms: O_8  and  C_9 
REMARK    4  A    between atoms: C_9  and  C_10 
REMARK    5  A    between atoms: C_13  and  O_14 
REMARK    6  A    between atoms: C_17  and  C_23 
ROOT
HETATM    1  C   UNL     1      -4.651   2.698 -31.895  1.00  0.00     0.132 A 
HETATM    2  N   UNL     1      -5.483   2.192 -32.746  1.00  0.00    -0.229 NA
HETATM    3  C   UNL     1      -5.363   0.824 -33.077  1.00  0.00     0.108 A 
HETATM    4  C   UNL     1      -6.275   0.230 -33.969  1.00  0.00     0.098 A 
HETATM    5  C   UNL     1      -6.137  -1.123 -34.316  1.00  0.00     0.051 A 
HETATM    6  C   UNL     1      -5.108  -1.913 -33.774  1.00  0.00    -0.019 A 
HETATM    7  C   UNL     1      -4.217  -1.326 -32.873  1.00  0.00     0.032 A 
HETATM    8  C   UNL     1      -4.353   0.025 -32.533  1.00  0.00     0.064 A 
HETATM    9  C   UNL     1      -3.429   0.647 -31.570  1.00  0.00     0.259 A 
HETATM   10  O   UNL     1      -2.532   0.015 -31.027  1.00  0.00    -0.267 OA
HETATM   11  N   UNL     1      -3.643   1.974 -31.315  1.00  0.00    -0.309 N 
HETATM   12  H   UNL     1      -3.055   2.402 -30.612  1.00  0.00     0.170 HD
ENDROOT
BRANCH   1  13
HETATM   13  C   UNL     1      -4.712   4.165 -31.514  1.00  0.00     0.254 C 
BRANCH  13  14
HETATM   14  O   UNL     1      -5.170   4.237 -30.164  1.00  0.00    -0.344 OA
BRANCH  14  15
HETATM   15  C   UNL     1      -6.445   4.714 -30.024  1.00  0.00     0.071 A 
HETATM   16  C   UNL     1      -6.552   6.063 -29.687  1.00  0.00     0.037 A 
HETATM   17  C   UNL     1      -7.807   6.650 -29.543  1.00  0.00     0.005 A 
HETATM   18  C   UNL     1      -8.955   5.889 -29.760  1.00  0.00     0.037 A 
HETATM   19  C   UNL     1      -8.858   4.545 -30.129  1.00  0.00     0.070 A 
HETATM   20  C   UNL     1      -7.597   3.955 -30.258  1.00  0.00     0.073 A 
BRANCH  19  21
HETATM   21  O   UNL     1     -10.060   3.923 -30.335  1.00  0.00    -0.356 OA
HETATM   22  C   UNL     1     -10.290   3.377 -31.628  1.00  0.00     0.210 C 
ENDBRANCH  19  21
ENDBRANCH  14  15
ENDBRANCH  13  14
ENDBRANCH   1  13
BRANCH   4  23
HETATM   23  O   UNL     1      -7.255   1.054 -34.470  1.00  0.00    -0.354 OA
HETATM   24  C   UNL     1      -8.602   0.629 -34.320  1.00  0.00     0.210 C 
ENDBRANCH   4  23
BRANCH   6  25
HETATM   25  C   UNL     1      -4.979  -3.309 -34.161  1.00  0.00     0.010 A 
HETATM   26  C   UNL     1      -5.846  -4.152 -34.899  1.00  0.00     0.152 A 
HETATM   27  N   UNL     1      -5.371  -5.392 -35.038  1.00  0.00    -0.187 NA
HETATM   28  N   UNL     1      -4.196  -5.352 -34.393  1.00  0.00    -0.289 N 
HETATM   29  H   UNL     1      -3.634  -6.198 -34.363  1.00  0.00     0.188 HD
HETATM   30  C   UNL     1      -3.916  -4.131 -33.849  1.00  0.00     0.123 A 
ENDBRANCH   6  25
TORSDOF 6
ENDMDL
MODEL 6
REMARK VINA RESULT:      -7.8      3.725      5.573
REMARK  6 active torsions:
REMARK  status: ('A' for Active; 'I' for Inactive)
REMARK    1  A    between atoms: O_2  and  C_3 
REMARK    2  A    between atoms: C_7  and  O_8 
REMARK    3  A    between atoms: O_8  and  C_9 
REMARK    4  A    between atoms: C_9  and  C_10 
REMARK    5  A    between atoms: C_13  and  O_14 
REMARK    6  A    between atoms: C_17  and  C_23 
ROOT
HETATM    1  C   UNL     1      -6.271   2.907 -33.472  1.00  0.00     0.132 A 
HETATM    2  N   UNL     1      -7.309   3.431 -32.908  1.00  0.00    -0.229 NA
HETATM    3  C   UNL     1      -8.575   2.854 -33.152  1.00  0.00     0.108 A 
HETATM    4  C   UNL     1      -9.722   3.373 -32.524  1.00  0.00     0.098 A 
HETATM    5  C   UNL     1     -10.982   2.813 -32.790  1.00  0.00     0.051 A 
HETATM    6  C   UNL     1     -11.125   1.722 -33.665  1.00  0.00    -0.019 A 
HETATM    7  C   UNL     1      -9.982   1.195 -34.270  1.00  0.00     0.032 A 
HETATM    8  C   UNL     1      -8.727   1.759 -34.008  1.00  0.00     0.064 A 
HETATM    9  C   UNL     1      -7.515   1.198 -34.629  1.00  0.00     0.259 A 
HETATM   10  O   UNL     1      -7.554   0.225 -35.372  1.00  0.00    -0.267 OA
HETATM   11  N   UNL     1      -6.342   1.830 -34.315  1.00  0.00    -0.309 N 
HETATM   12  H   UNL     1      -5.494   1.422 -34.685  1.00  0.00     0.170 HD
ENDROOT
BRANCH   1  13
HETATM   13  C   UNL     1      -4.886   3.493 -33.268  1.00  0.00     0.254 C 
BRANCH  13  14
HETATM   14  O   UNL     1      -4.942   4.866 -33.652  1.00  0.00    -0.344 OA
BRANCH  14  15
HETATM   15  C   UNL     1      -3.723   5.486 -33.713  1.00  0.00     0.071 A 
HETATM   16  C   UNL     1      -2.769   4.865 -34.519  1.00  0.00     0.037 A 
HETATM   17  C   UNL     1      -1.504   5.428 -34.665  1.00  0.00     0.005 A 
HETATM   18  C   UNL     1      -1.202   6.627 -34.020  1.00  0.00     0.037 A 
HETATM   19  C   UNL     1      -2.162   7.273 -33.236  1.00  0.00     0.070 A 
HETATM   20  C   UNL     1      -3.426   6.697 -33.080  1.00  0.00     0.073 A 
BRANCH  19  21
HETATM   21  O   UNL     1      -1.742   8.453 -32.682  1.00  0.00    -0.356 OA
HETATM   22  C   UNL     1      -2.161   8.725 -31.350  1.00  0.00     0.210 C 
ENDBRANCH  19  21
ENDBRANCH  14  15
ENDBRANCH  13  14
ENDBRANCH   1  13
BRANCH   4  23
HETATM   23  O   UNL     1      -9.520   4.443 -31.685  1.00  0.00    -0.354 OA
HETATM   24  C   UNL     1     -10.377   5.565 -31.845  1.00  0.00     0.210 C 
ENDBRANCH   4  23
BRANCH   6  25
HETATM   25  C   UNL     1     -12.443   1.169 -33.933  1.00  0.00     0.010 A 
HETATM   26  C   UNL     1     -13.577   1.737 -34.564  1.00  0.00     0.152 A 
HETATM   27  N   UNL     1     -14.618   0.902 -34.612  1.00  0.00    -0.187 NA
HETATM   28  N   UNL     1     -14.157  -0.207 -34.016  1.00  0.00    -0.289 N 
HETATM   29  H   UNL     1     -14.782  -1.004 -33.932  1.00  0.00     0.188 HD
HETATM   30  C   UNL     1     -12.865  -0.099 -33.589  1.00  0.00     0.123 A 
ENDBRANCH   6  25
TORSDOF 6
ENDMDL
MODEL 7
REMARK VINA RESULT:      -7.7      2.556      3.479
REMARK  6 active torsions:
REMARK  status: ('A' for Active; 'I' for Inactive)
REMARK    1  A    between atoms: O_2  and  C_3 
REMARK    2  A    between atoms: C_7  and  O_8 
REMARK    3  A    between atoms: O_8  and  C_9 
REMARK    4  A    between atoms: C_9  and  C_10 
REMARK    5  A    between atoms: C_13  and  O_14 
REMARK    6  A    between atoms: C_17  and  C_23 
ROOT
HETATM    1  C   UNL     1      -4.598   2.743 -32.017  1.00  0.00     0.132 A 
HETATM    2  N   UNL     1      -5.416   2.228 -32.875  1.00  0.00    -0.229 NA
HETATM    3  C   UNL     1      -5.306   0.852 -33.172  1.00  0.00     0.108 A 
HETATM    4  C   UNL     1      -6.205   0.249 -34.072  1.00  0.00     0.098 A 
HETATM    5  C   UNL     1      -6.076  -1.114 -34.385  1.00  0.00     0.051 A 
HETATM    6  C   UNL     1      -5.071  -1.904 -33.800  1.00  0.00    -0.019 A 
HETATM    7  C   UNL     1      -4.194  -1.308 -32.891  1.00  0.00     0.032 A 
HETATM    8  C   UNL     1      -4.320   0.052 -32.585  1.00  0.00     0.064 A 
HETATM    9  C   UNL     1      -3.411   0.685 -31.615  1.00  0.00     0.259 A 
HETATM   10  O   UNL     1      -2.535   0.054 -31.036  1.00  0.00    -0.267 OA
HETATM   11  N   UNL     1      -3.614   2.020 -31.396  1.00  0.00    -0.309 N 
HETATM   12  H   UNL     1      -3.037   2.457 -30.689  1.00  0.00     0.170 HD
ENDROOT
BRANCH   1  13
HETATM   13  C   UNL     1      -4.649   4.219 -31.670  1.00  0.00     0.254 C 
BRANCH  13  14
HETATM   14  O   UNL     1      -5.004   4.323 -30.292  1.00  0.00    -0.344 OA
BRANCH  14  15
HETATM   15  C   UNL     1      -6.174   4.996 -30.059  1.00  0.00     0.071 A 
HETATM   16  C   UNL     1      -7.337   4.230 -30.135  1.00  0.00     0.037 A 
HETATM   17  C   UNL     1      -8.577   4.816 -29.894  1.00  0.00     0.005 A 
HETATM   18  C   UNL     1      -8.649   6.166 -29.553  1.00  0.00     0.037 A 
HETATM   19  C   UNL     1      -7.486   6.934 -29.443  1.00  0.00     0.070 A 
HETATM   20  C   UNL     1      -6.245   6.346 -29.701  1.00  0.00     0.073 A 
BRANCH  19  21
HETATM   21  O   UNL     1      -7.698   8.236 -29.076  1.00  0.00    -0.356 OA
HETATM   22  C   UNL     1      -7.201   8.637 -27.806  1.00  0.00     0.210 C 
ENDBRANCH  19  21
ENDBRANCH  14  15
ENDBRANCH  13  14
ENDBRANCH   1  13
BRANCH   4  23
HETATM   23  O   UNL     1      -7.161   1.073 -34.615  1.00  0.00    -0.354 OA
HETATM   24  C   UNL     1      -8.514   0.655 -34.513  1.00  0.00     0.210 C 
ENDBRANCH   4  23
BRANCH   6  25
HETATM   25  C   UNL     1      -4.951  -3.311 -34.152  1.00  0.00     0.010 A 
HETATM   26  C   UNL     1      -5.825  -4.167 -34.866  1.00  0.00     0.152 A 
HETATM   27  N   UNL     1      -5.357  -5.413 -34.974  1.00  0.00    -0.187 NA
HETATM   28  N   UNL     1      -4.180  -5.363 -34.334  1.00  0.00    -0.289 N 
HETATM   29  H   UNL     1      -3.623  -6.211 -34.284  1.00  0.00     0.188 HD
HETATM   30  C   UNL     1      -3.891  -4.131 -33.822  1.00  0.00     0.123 A 
ENDBRANCH   6  25
TORSDOF 6
ENDMDL
MODEL 8
REMARK VINA RESULT:      -7.5      3.673      5.686
REMARK  6 active torsions:
REMARK  status: ('A' for Active; 'I' for Inactive)
REMARK    1  A    between atoms: O_2  and  C_3 
REMARK    2  A    between atoms: C_7  and  O_8 
REMARK    3  A    between atoms: O_8  and  C_9 
REMARK    4  A    between atoms: C_9  and  C_10 
REMARK    5  A    between atoms: C_13  and  O_14 
REMARK    6  A    between atoms: C_17  and  C_23 
ROOT
HETATM    1  C   UNL     1      -6.680   3.490 -32.120  1.00  0.00     0.132 A 
HETATM    2  N   UNL     1      -6.985   2.249 -32.312  1.00  0.00    -0.229 NA
HETATM    3  C   UNL     1      -8.305   1.930 -32.703  1.00  0.00     0.108 A 
HETATM    4  C   UNL     1      -8.663   0.593 -32.958  1.00  0.00     0.098 A 
HETATM    5  C   UNL     1      -9.982   0.277 -33.322  1.00  0.00     0.051 A 
HETATM    6  C   UNL     1     -10.961   1.277 -33.455  1.00  0.00    -0.019 A 
HETATM    7  C   UNL     1     -10.597   2.606 -33.222  1.00  0.00     0.032 A 
HETATM    8  C   UNL     1      -9.283   2.917 -32.854  1.00  0.00     0.064 A 
HETATM    9  C   UNL     1      -8.887   4.317 -32.624  1.00  0.00     0.259 A 
HETATM   10  O   UNL     1      -9.673   5.247 -32.757  1.00  0.00    -0.267 OA
HETATM   11  N   UNL     1      -7.583   4.511 -32.258  1.00  0.00    -0.309 N 
HETATM   12  H   UNL     1      -7.279   5.471 -32.153  1.00  0.00     0.170 HD
ENDROOT
BRANCH   1  13
HETATM   13  C   UNL     1      -5.287   3.898 -31.678  1.00  0.00     0.254 C 
BRANCH  13  14
HETATM   14  O   UNL     1      -4.864   4.963 -32.528  1.00  0.00    -0.344 OA
BRANCH  14  15
HETATM   15  C   UNL     1      -3.512   5.184 -32.525  1.00  0.00     0.071 A 
HETATM   16  C   UNL     1      -3.038   6.039 -33.520  1.00  0.00     0.037 A 
HETATM   17  C   UNL     1      -1.681   6.345 -33.590  1.00  0.00     0.005 A 
HETATM   18  C   UNL     1      -0.803   5.812 -32.648  1.00  0.00     0.037 A 
HETATM   19  C   UNL     1      -1.274   4.981 -31.628  1.00  0.00     0.070 A 
HETATM   20  C   UNL     1      -2.634   4.664 -31.570  1.00  0.00     0.073 A 
BRANCH  19  21
HETATM   21  O   UNL     1      -0.310   4.549 -30.757  1.00  0.00    -0.356 OA
HETATM   22  C   UNL     1       0.155   5.485 -29.793  1.00  0.00     0.210 C 
ENDBRANCH  19  21
ENDBRANCH  14  15
ENDBRANCH  13  14
ENDBRANCH   1  13
BRANCH   4  23
HETATM   23  O   UNL     1      -7.665  -0.340 -32.805  1.00  0.00    -0.354 OA
HETATM   24  C   UNL     1      -7.233  -1.027 -33.971  1.00  0.00     0.210 C 
ENDBRANCH   4  23
BRANCH   6  25
HETATM   25  C   UNL     1     -12.323   0.921 -33.819  1.00  0.00     0.010 A 
HETATM   26  C   UNL     1     -13.314   1.644 -34.528  1.00  0.00     0.152 A 
HETATM   27  N   UNL     1     -14.459   0.970 -34.654  1.00  0.00    -0.187 NA
HETATM   28  N   UNL     1     -14.210  -0.191 -34.030  1.00  0.00    -0.289 N 
HETATM   29  H   UNL     1     -14.949  -0.887 -33.994  1.00  0.00     0.188 HD
HETATM   30  C   UNL     1     -12.949  -0.269 -33.511  1.00  0.00     0.123 A 
ENDBRANCH   6  25
TORSDOF 6
ENDMDL
MODEL 9
REMARK VINA RESULT:      -7.4      4.290     10.182
REMARK  6 active torsions:
REMARK  status: ('A' for Active; 'I' for Inactive)
REMARK    1  A    between atoms: O_2  and  C_3 
REMARK    2  A    between atoms: C_7  and  O_8 
REMARK    3  A    between atoms: O_8  and  C_9 
REMARK    4  A    between atoms: C_9  and  C_10 
REMARK    5  A    between atoms: C_13  and  O_14 
REMARK    6  A    between atoms: C_17  and  C_23 
ROOT
HETATM    1  C   UNL     1      -2.260   5.241 -31.698  1.00  0.00     0.132 A 
HETATM    2  N   UNL     1      -2.666   6.215 -30.951  1.00  0.00    -0.229 NA
HETATM    3  C   UNL     1      -1.759   6.783 -30.029  1.00  0.00     0.108 A 
HETATM    4  C   UNL     1      -2.153   7.870 -29.227  1.00  0.00     0.098 A 
HETATM    5  C   UNL     1      -1.257   8.415 -28.293  1.00  0.00     0.051 A 
HETATM    6  C   UNL     1       0.046   7.907 -28.151  1.00  0.00    -0.019 A 
HETATM    7  C   UNL     1       0.442   6.841 -28.963  1.00  0.00     0.032 A 
HETATM    8  C   UNL     1      -0.455   6.296 -29.889  1.00  0.00     0.064 A 
HETATM    9  C   UNL     1      -0.040   5.184 -30.762  1.00  0.00     0.259 A 
HETATM   10  O   UNL     1       1.089   4.713 -30.723  1.00  0.00    -0.267 OA
HETATM   11  N   UNL     1      -0.996   4.719 -31.623  1.00  0.00    -0.309 N 
HETATM   12  H   UNL     1      -0.710   3.995 -32.270  1.00  0.00     0.170 HD
ENDROOT
BRANCH   1  13
HETATM   13  C   UNL     1      -3.191   4.574 -32.692  1.00  0.00     0.254 C 
BRANCH  13  14
HETATM   14  O   UNL     1      -2.843   3.190 -32.742  1.00  0.00    -0.344 OA
BRANCH  14  15
HETATM   15  C   UNL     1      -3.825   2.344 -32.301  1.00  0.00     0.071 A 
HETATM   16  C   UNL     1      -3.397   1.292 -31.493  1.00  0.00     0.037 A 
HETATM   17  C   UNL     1      -4.322   0.387 -30.976  1.00  0.00     0.005 A 
HETATM   18  C   UNL     1      -5.679   0.553 -31.251  1.00  0.00     0.037 A 
HETATM   19  C   UNL     1      -6.120   1.623 -32.034  1.00  0.00     0.070 A 
HETATM   20  C   UNL     1      -5.187   2.520 -32.563  1.00  0.00     0.073 A 
BRANCH  19  21
HETATM   21  O   UNL     1      -7.477   1.682 -32.204  1.00  0.00    -0.356 OA
HETATM   22  C   UNL     1      -8.243   0.622 -31.646  1.00  0.00     0.210 C 
ENDBRANCH  19  21
ENDBRANCH  14  15
ENDBRANCH  13  14
ENDBRANCH   1  13
BRANCH   4  23
HETATM   23  O   UNL     1      -3.440   8.318 -29.407  1.00  0.00    -0.354 OA
HETATM   24  C   UNL     1      -4.097   8.879 -28.279  1.00  0.00     0.210 C 
ENDBRANCH   4  23
BRANCH   6  25
HETATM   25  C   UNL     1       0.950   8.481 -27.166  1.00  0.00     0.010 A 
HETATM   26  C   UNL     1       1.852   7.865 -26.264  1.00  0.00     0.152 A 
HETATM   27  N   UNL     1       2.508   8.746 -25.504  1.00  0.00    -0.187 NA
HETATM   28  N   UNL     1       2.034   9.931 -25.916  1.00  0.00    -0.289 N 
HETATM   29  H   UNL     1       2.393  10.772 -25.476  1.00  0.00     0.188 HD
HETATM   30  C   UNL     1       1.098   9.827 -26.905  1.00  0.00     0.123 A 
ENDBRANCH   6  25
TORSDOF 6
ENDMDL
MODEL 10
REMARK VINA RESULT:      -7.3      3.911      7.014
REMARK  6 active torsions:
REMARK  status: ('A' for Active; 'I' for Inactive)
REMARK    1  A    between atoms: O_2  and  C_3 
REMARK    2  A    between atoms: C_7  and  O_8 
REMARK    3  A    between atoms: O_8  and  C_9 
REMARK    4  A    between atoms: C_9  and  C_10 
REMARK    5  A    between atoms: C_13  and  O_14 
REMARK    6  A    between atoms: C_17  and  C_23 
ROOT
HETATM    1  C   UNL     1      -6.630   3.093 -33.756  1.00  0.00     0.132 A 
HETATM    2  N   UNL     1      -7.692   3.655 -33.281  1.00  0.00    -0.229 NA
HETATM    3  C   UNL     1      -8.933   3.000 -33.439  1.00  0.00     0.108 A 
HETATM    4  C   UNL     1     -10.104   3.563 -32.900  1.00  0.00     0.098 A 
HETATM    5  C   UNL     1     -11.340   2.922 -33.082  1.00  0.00     0.051 A 
HETATM    6  C   UNL     1     -11.434   1.706 -33.782  1.00  0.00    -0.019 A 
HETATM    7  C   UNL     1     -10.267   1.138 -34.297  1.00  0.00     0.032 A 
HETATM    8  C   UNL     1      -9.037   1.783 -34.120  1.00  0.00     0.064 A 
HETATM    9  C   UNL     1      -7.799   1.182 -34.645  1.00  0.00     0.259 A 
HETATM   10  O   UNL     1      -7.795   0.107 -35.232  1.00  0.00    -0.267 OA
HETATM   11  N   UNL     1      -6.654   1.898 -34.427  1.00  0.00    -0.309 N 
HETATM   12  H   UNL     1      -5.787   1.472 -34.729  1.00  0.00     0.170 HD
ENDROOT
BRANCH   1  13
HETATM   13  C   UNL     1      -5.270   3.755 -33.640  1.00  0.00     0.254 C 
BRANCH  13  14
HETATM   14  O   UNL     1      -4.932   3.795 -32.254  1.00  0.00    -0.344 OA
BRANCH  14  15
HETATM   15  C   UNL     1      -4.717   2.567 -31.689  1.00  0.00     0.071 A 
HETATM   16  C   UNL     1      -5.628   2.188 -30.703  1.00  0.00     0.037 A 
HETATM   17  C   UNL     1      -5.509   0.947 -30.081  1.00  0.00     0.005 A 
HETATM   18  C   UNL     1      -4.490   0.076 -30.466  1.00  0.00     0.037 A 
HETATM   19  C   UNL     1      -3.593   0.434 -31.476  1.00  0.00     0.070 A 
HETATM   20  C   UNL     1      -3.706   1.686 -32.087  1.00  0.00     0.073 A 
BRANCH  19  21
HETATM   21  O   UNL     1      -2.660  -0.523 -31.772  1.00  0.00    -0.356 OA
HETATM   22  C   UNL     1      -3.139  -1.843 -31.998  1.00  0.00     0.210 C 
ENDBRANCH  19  21
ENDBRANCH  14  15
ENDBRANCH  13  14
ENDBRANCH   1  13
BRANCH   4  23
HETATM   23  O   UNL     1      -9.950   4.755 -32.232  1.00  0.00    -0.354 OA
HETATM   24  C   UNL     1     -10.681   5.872 -32.718  1.00  0.00     0.210 C 
ENDBRANCH   4  23
BRANCH   6  25
HETATM   25  C   UNL     1     -12.728   1.069 -33.968  1.00  0.00     0.010 A 
HETATM   26  C   UNL     1     -13.946   1.574 -34.486  1.00  0.00     0.152 A 
HETATM   27  N   UNL     1     -14.927   0.668 -34.484  1.00  0.00    -0.187 NA
HETATM   28  N   UNL     1     -14.344  -0.424 -33.968  1.00  0.00    -0.289 N 
HETATM   29  H   UNL     1     -14.903  -1.266 -33.866  1.00  0.00     0.188 HD
HETATM   30  C   UNL     1     -13.032  -0.237 -33.640  1.00  0.00     0.123 A 
ENDBRANCH   6  25
TORSDOF 6
ENDMDL
