MODEL 1
REMARK VINA RESULT:      -9.6      0.000      0.000
REMARK  7 active torsions:
REMARK  status: ('A' for Active; 'I' for Inactive)
REMARK    1  A    between atoms: S_2  and  C_3 
REMARK    2  A    between atoms: C_3  and  C_4 
REMARK    3  A    between atoms: C_4  and  C_5 
REMARK    4  A    between atoms: C_5  and  N_6 
REMARK    5  A    between atoms: C_5  and  C_26 
REMARK       I    between atoms: N_6  and  C_7 
REMARK    6  A    between atoms: C_7  and  C_8 
REMARK    7  A    between atoms: C_8  and  N_9 
ROOT
HETATM    1  N   UNL     1      -8.453   3.208 -33.350  1.00  0.00    -0.348 N 
HETATM    2  C   UNL     1      -9.470   2.882 -34.223  1.00  0.00     0.236 C 
HETATM    3  O   UNL     1     -10.048   3.694 -34.933  1.00  0.00    -0.272 OA
HETATM    4  H   UNL     1      -8.318   2.549 -32.588  1.00  0.00     0.163 HD
ENDROOT
BRANCH   2   5
HETATM    5  C   UNL     1      -9.849   1.401 -34.158  1.00  0.00     0.239 C 
BRANCH   5   6
HETATM    6  N   UNL     1      -8.723   0.617 -33.691  1.00  0.00    -0.259 N 
HETATM    7  C   UNL     1      -8.491   0.301 -32.388  1.00  0.00     0.326 C 
HETATM    8  O   UNL     1      -9.186   0.597 -31.426  1.00  0.00    -0.247 OA
HETATM    9  N   UNL     1      -7.323  -0.411 -32.308  1.00  0.00    -0.320 N 
HETATM   10  C   UNL     1      -6.569  -0.360 -33.547  1.00  0.00     0.144 C 
HETATM   11  H   UNL     1      -6.954  -0.740 -31.426  1.00  0.00     0.165 HD
HETATM   12  C   UNL     1      -6.118  -1.743 -33.974  1.00  0.00    -0.014 A 
HETATM   13  C   UNL     1      -5.402   0.636 -33.402  1.00  0.00     0.047 C 
HETATM   14  C   UNL     1      -7.635   0.294 -34.459  1.00  0.00     0.261 C 
HETATM   15  C   UNL     1      -4.772  -2.142 -33.819  1.00  0.00    -0.049 A 
HETATM   16  C   UNL     1      -7.036  -2.668 -34.508  1.00  0.00     0.011 A 
HETATM   17  C   UNL     1      -4.372  -3.423 -34.233  1.00  0.00     0.007 A 
HETATM   18  C   UNL     1      -3.710  -1.205 -33.291  1.00  0.00     0.039 C 
HETATM   19  C   UNL     1      -5.293  -4.315 -34.778  1.00  0.00     0.001 A 
HETATM   20  C   UNL     1      -6.624  -3.939 -34.913  1.00  0.00     0.001 A 
HETATM   21  C   UNL     1      -4.272   0.022 -32.583  1.00  0.00     0.008 C 
HETATM   22  O   UNL     1      -7.493   0.563 -35.645  1.00  0.00    -0.270 OA
ENDBRANCH   5   6
ENDBRANCH   2   5
BRANCH   1  23
HETATM   23  C   UNL     1      -7.999   4.573 -33.131  1.00  0.00     0.155 C 
BRANCH  23  24
HETATM   24  C   UNL     1      -8.320   5.060 -31.707  1.00  0.00     0.043 C 
BRANCH  24  25
HETATM   25  C   UNL     1      -8.845   3.928 -30.820  1.00  0.00     0.076 C 
BRANCH  25  26
HETATM   26  S   UNL     1      -7.525   3.342 -29.708  1.00  0.00    -0.173 SA
HETATM   27  C   UNL     1      -6.990   4.947 -29.066  1.00  0.00     0.089 C 
ENDBRANCH  25  26
ENDBRANCH  24  25
ENDBRANCH  23  24
BRANCH  23  28
HETATM   28  C   UNL     1      -6.517   4.609 -33.400  1.00  0.00     0.128 A 
HETATM   29  N   UNL     1      -5.928   5.098 -34.474  1.00  0.00    -0.231 NA
HETATM   30  C   UNL     1      -4.579   4.958 -34.258  1.00  0.00     0.085 A 
HETATM   31  C   UNL     1      -4.333   4.374 -33.022  1.00  0.00     0.062 A 
HETATM   32  C   UNL     1      -3.496   5.314 -35.075  1.00  0.00     0.034 A 
HETATM   33  N   UNL     1      -5.579   4.175 -32.489  1.00  0.00    -0.341 N 
HETATM   34  C   UNL     1      -3.050   4.105 -32.542  1.00  0.00     0.032 A 
HETATM   35  H   UNL     1      -5.778   3.780 -31.579  1.00  0.00     0.167 HD
HETATM   36  C   UNL     1      -1.981   4.464 -33.372  1.00  0.00     0.002 A 
HETATM   37  C   UNL     1      -2.197   5.061 -34.617  1.00  0.00     0.002 A 
ENDBRANCH  23  28
ENDBRANCH   1  23
TORSDOF 7
ENDMDL
MODEL 2
REMARK VINA RESULT:      -9.0      2.548      7.430
REMARK  7 active torsions:
REMARK  status: ('A' for Active; 'I' for Inactive)
REMARK    1  A    between atoms: S_2  and  C_3 
REMARK    2  A    between atoms: C_3  and  C_4 
REMARK    3  A    between atoms: C_4  and  C_5 
REMARK    4  A    between atoms: C_5  and  N_6 
REMARK    5  A    between atoms: C_5  and  C_26 
REMARK       I    between atoms: N_6  and  C_7 
REMARK    6  A    between atoms: C_7  and  C_8 
REMARK    7  A    between atoms: C_8  and  N_9 
ROOT
HETATM    1  N   UNL     1      -6.208   1.286 -31.935  1.00  0.00    -0.348 N 
HETATM    2  C   UNL     1      -6.631   2.046 -30.865  1.00  0.00     0.236 C 
HETATM    3  O   UNL     1      -7.803   2.315 -30.639  1.00  0.00    -0.272 OA
HETATM    4  H   UNL     1      -5.241   1.438 -32.210  1.00  0.00     0.163 HD
ENDROOT
BRANCH   2   5
HETATM    5  C   UNL     1      -5.468   2.579 -30.025  1.00  0.00     0.239 C 
BRANCH   5   6
HETATM    6  N   UNL     1      -4.792   3.649 -30.731  1.00  0.00    -0.259 N 
HETATM    7  C   UNL     1      -5.365   4.838 -31.061  1.00  0.00     0.326 C 
HETATM    8  O   UNL     1      -6.505   5.201 -30.803  1.00  0.00    -0.247 OA
HETATM    9  N   UNL     1      -4.453   5.590 -31.753  1.00  0.00    -0.320 N 
HETATM   10  C   UNL     1      -3.303   4.808 -32.164  1.00  0.00     0.144 C 
HETATM   11  H   UNL     1      -4.675   6.512 -32.106  1.00  0.00     0.165 HD
HETATM   12  C   UNL     1      -2.005   5.515 -31.822  1.00  0.00    -0.014 A 
HETATM   13  C   UNL     1      -3.421   4.458 -33.661  1.00  0.00     0.047 C 
HETATM   14  C   UNL     1      -3.579   3.517 -31.356  1.00  0.00     0.261 C 
HETATM   15  C   UNL     1      -1.240   6.144 -32.830  1.00  0.00    -0.049 A 
HETATM   16  C   UNL     1      -1.551   5.584 -30.491  1.00  0.00     0.011 A 
HETATM   17  C   UNL     1      -0.036   6.782 -32.494  1.00  0.00     0.007 A 
HETATM   18  C   UNL     1      -1.629   6.089 -34.289  1.00  0.00     0.039 C 
HETATM   19  C   UNL     1       0.406   6.821 -31.173  1.00  0.00     0.001 A 
HETATM   20  C   UNL     1      -0.353   6.225 -30.173  1.00  0.00     0.001 A 
HETATM   21  C   UNL     1      -3.075   5.667 -34.523  1.00  0.00     0.008 C 
HETATM   22  O   UNL     1      -2.880   2.513 -31.351  1.00  0.00    -0.270 OA
ENDBRANCH   5   6
ENDBRANCH   2   5
BRANCH   1  23
HETATM   23  C   UNL     1      -7.112   0.772 -32.953  1.00  0.00     0.155 C 
BRANCH  23  24
HETATM   24  C   UNL     1      -7.274   1.759 -34.122  1.00  0.00     0.043 C 
BRANCH  24  25
HETATM   25  C   UNL     1      -8.640   2.449 -34.105  1.00  0.00     0.076 C 
BRANCH  25  26
HETATM   26  S   UNL     1      -9.919   1.288 -33.523  1.00  0.00    -0.173 SA
HETATM   27  C   UNL     1     -11.346   2.397 -33.626  1.00  0.00     0.089 C 
ENDBRANCH  25  26
ENDBRANCH  24  25
ENDBRANCH  23  24
BRANCH  23  28
HETATM   28  C   UNL     1      -6.562  -0.549 -33.426  1.00  0.00     0.128 A 
HETATM   29  N   UNL     1      -5.322  -0.975 -33.287  1.00  0.00    -0.231 NA
HETATM   30  C   UNL     1      -5.298  -2.239 -33.822  1.00  0.00     0.085 A 
HETATM   31  C   UNL     1      -6.553  -2.601 -34.297  1.00  0.00     0.062 A 
HETATM   32  C   UNL     1      -4.235  -3.148 -33.935  1.00  0.00     0.034 A 
HETATM   33  N   UNL     1      -7.343  -1.517 -34.020  1.00  0.00    -0.341 N 
HETATM   34  C   UNL     1      -6.820  -3.831 -34.899  1.00  0.00     0.032 A 
HETATM   35  H   UNL     1      -8.333  -1.440 -34.215  1.00  0.00     0.167 HD
HETATM   36  C   UNL     1      -5.747  -4.724 -35.006  1.00  0.00     0.002 A 
HETATM   37  C   UNL     1      -4.476  -4.393 -34.531  1.00  0.00     0.002 A 
ENDBRANCH  23  28
ENDBRANCH   1  23
TORSDOF 7
ENDMDL
MODEL 3
REMARK VINA RESULT:      -8.6      2.743      6.663
REMARK  7 active torsions:
REMARK  status: ('A' for Active; 'I' for Inactive)
REMARK    1  A    between atoms: S_2  and  C_3 
REMARK    2  A    between atoms: C_3  and  C_4 
REMARK    3  A    between atoms: C_4  and  C_5 
REMARK    4  A    between atoms: C_5  and  N_6 
REMARK    5  A    between atoms: C_5  and  C_26 
REMARK       I    between atoms: N_6  and  C_7 
REMARK    6  A    between atoms: C_7  and  C_8 
REMARK    7  A    between atoms: C_8  and  N_9 
ROOT
HETATM    1  N   UNL     1      -5.987   3.485 -32.240  1.00  0.00    -0.348 N 
HETATM    2  C   UNL     1      -6.640   4.427 -33.009  1.00  0.00     0.236 C 
HETATM    3  O   UNL     1      -6.286   4.756 -34.133  1.00  0.00    -0.272 OA
HETATM    4  H   UNL     1      -6.147   3.567 -31.240  1.00  0.00     0.163 HD
ENDROOT
BRANCH   2   5
HETATM    5  C   UNL     1      -7.819   5.070 -32.275  1.00  0.00     0.239 C 
BRANCH   5   6
HETATM    6  N   UNL     1      -8.917   4.130 -32.173  1.00  0.00    -0.259 N 
HETATM    7  C   UNL     1      -8.995   3.133 -31.250  1.00  0.00     0.326 C 
HETATM    8  O   UNL     1      -8.188   2.887 -30.365  1.00  0.00    -0.247 OA
HETATM    9  N   UNL     1     -10.143   2.417 -31.471  1.00  0.00    -0.320 N 
HETATM   10  C   UNL     1     -10.749   2.742 -32.748  1.00  0.00     0.144 C 
HETATM   11  H   UNL     1     -10.395   1.619 -30.903  1.00  0.00     0.165 HD
HETATM   12  C   UNL     1     -12.234   3.011 -32.600  1.00  0.00    -0.014 A 
HETATM   13  C   UNL     1     -10.439   1.628 -33.767  1.00  0.00     0.047 C 
HETATM   14  C   UNL     1      -9.893   3.975 -33.123  1.00  0.00     0.261 C 
HETATM   15  C   UNL     1     -13.186   2.055 -33.019  1.00  0.00    -0.049 A 
HETATM   16  C   UNL     1     -12.695   4.207 -32.016  1.00  0.00     0.011 A 
HETATM   17  C   UNL     1     -14.556   2.330 -32.884  1.00  0.00     0.007 A 
HETATM   18  C   UNL     1     -12.786   0.761 -33.690  1.00  0.00     0.039 C 
HETATM   19  C   UNL     1     -14.991   3.528 -32.323  1.00  0.00     0.001 A 
HETATM   20  C   UNL     1     -14.061   4.464 -31.886  1.00  0.00     0.001 A 
HETATM   21  C   UNL     1     -11.314   0.406 -33.511  1.00  0.00     0.008 C 
HETATM   22  O   UNL     1     -10.008   4.642 -34.143  1.00  0.00    -0.270 OA
ENDBRANCH   5   6
ENDBRANCH   2   5
BRANCH   1  23
HETATM   23  C   UNL     1      -4.761   2.825 -32.663  1.00  0.00     0.155 C 
BRANCH  23  24
HETATM   24  C   UNL     1      -3.715   2.790 -31.535  1.00  0.00     0.043 C 
BRANCH  24  25
HETATM   25  C   UNL     1      -2.723   3.951 -31.636  1.00  0.00     0.076 C 
BRANCH  25  26
HETATM   26  S   UNL     1      -2.451   4.389 -33.384  1.00  0.00    -0.173 SA
HETATM   27  C   UNL     1      -3.009   6.109 -33.313  1.00  0.00     0.089 C 
ENDBRANCH  25  26
ENDBRANCH  24  25
ENDBRANCH  23  24
BRANCH  23  28
HETATM   28  C   UNL     1      -5.125   1.434 -33.114  1.00  0.00     0.128 A 
HETATM   29  N   UNL     1      -6.270   1.060 -33.652  1.00  0.00    -0.231 NA
HETATM   30  C   UNL     1      -6.129  -0.274 -33.943  1.00  0.00     0.085 A 
HETATM   31  C   UNL     1      -4.868  -0.731 -33.580  1.00  0.00     0.062 A 
HETATM   32  C   UNL     1      -7.039  -1.168 -34.526  1.00  0.00     0.034 A 
HETATM   33  N   UNL     1      -4.243   0.376 -33.070  1.00  0.00    -0.341 N 
HETATM   34  C   UNL     1      -4.449  -2.051 -33.755  1.00  0.00     0.032 A 
HETATM   35  H   UNL     1      -3.293   0.414 -32.723  1.00  0.00     0.167 HD
HETATM   36  C   UNL     1      -5.371  -2.930 -34.335  1.00  0.00     0.002 A 
HETATM   37  C   UNL     1      -6.644  -2.498 -34.718  1.00  0.00     0.002 A 
ENDBRANCH  23  28
ENDBRANCH   1  23
TORSDOF 7
ENDMDL
MODEL 4
REMARK VINA RESULT:      -8.6      2.484      6.965
REMARK  7 active torsions:
REMARK  status: ('A' for Active; 'I' for Inactive)
REMARK    1  A    between atoms: S_2  and  C_3 
REMARK    2  A    between atoms: C_3  and  C_4 
REMARK    3  A    between atoms: C_4  and  C_5 
REMARK    4  A    between atoms: C_5  and  N_6 
REMARK    5  A    between atoms: C_5  and  C_26 
REMARK       I    between atoms: N_6  and  C_7 
REMARK    6  A    between atoms: C_7  and  C_8 
REMARK    7  A    between atoms: C_8  and  N_9 
ROOT
HETATM    1  N   UNL     1      -8.952   2.707 -32.296  1.00  0.00    -0.348 N 
HETATM    2  C   UNL     1      -8.485   3.373 -31.182  1.00  0.00     0.236 C 
HETATM    3  O   UNL     1      -8.317   2.845 -30.091  1.00  0.00    -0.272 OA
HETATM    4  H   UNL     1      -9.380   3.303 -32.999  1.00  0.00     0.163 HD
ENDROOT
BRANCH   2   5
HETATM    5  C   UNL     1      -8.265   4.865 -31.438  1.00  0.00     0.239 C 
BRANCH   5   6
HETATM    6  N   UNL     1      -6.937   5.091 -31.972  1.00  0.00    -0.259 N 
HETATM    7  C   UNL     1      -6.632   5.106 -33.298  1.00  0.00     0.326 C 
HETATM    8  O   UNL     1      -7.409   4.961 -34.232  1.00  0.00    -0.247 OA
HETATM    9  N   UNL     1      -5.284   5.305 -33.438  1.00  0.00    -0.320 N 
HETATM   10  C   UNL     1      -4.578   5.149 -32.181  1.00  0.00     0.144 C 
HETATM   11  H   UNL     1      -4.838   5.340 -34.345  1.00  0.00     0.165 HD
HETATM   12  C   UNL     1      -3.627   6.305 -31.937  1.00  0.00    -0.014 A 
HETATM   13  C   UNL     1      -3.878   3.776 -32.146  1.00  0.00     0.047 C 
HETATM   14  C   UNL     1      -5.790   5.084 -31.221  1.00  0.00     0.261 C 
HETATM   15  C   UNL     1      -2.233   6.139 -32.102  1.00  0.00    -0.049 A 
HETATM   16  C   UNL     1      -4.114   7.574 -31.569  1.00  0.00     0.011 A 
HETATM   17  C   UNL     1      -1.370   7.218 -31.859  1.00  0.00     0.007 A 
HETATM   18  C   UNL     1      -1.618   4.805 -32.459  1.00  0.00     0.039 C 
HETATM   19  C   UNL     1      -1.871   8.460 -31.475  1.00  0.00     0.001 A 
HETATM   20  C   UNL     1      -3.241   8.638 -31.334  1.00  0.00     0.001 A 
HETATM   21  C   UNL     1      -2.619   3.794 -33.005  1.00  0.00     0.008 C 
HETATM   22  O   UNL     1      -5.734   4.953 -30.006  1.00  0.00    -0.270 OA
ENDBRANCH   5   6
ENDBRANCH   2   5
BRANCH   1  23
HETATM   23  C   UNL     1      -9.359   1.310 -32.276  1.00  0.00     0.155 C 
BRANCH  23  24
HETATM   24  C   UNL     1     -10.485   1.029 -33.287  1.00  0.00     0.043 C 
BRANCH  24  25
HETATM   25  C   UNL     1     -11.163   2.317 -33.761  1.00  0.00     0.076 C 
BRANCH  25  26
HETATM   26  S   UNL     1     -12.961   2.217 -33.479  1.00  0.00    -0.173 SA
HETATM   27  C   UNL     1     -13.175   0.444 -33.775  1.00  0.00     0.089 C 
ENDBRANCH  25  26
ENDBRANCH  24  25
ENDBRANCH  23  24
BRANCH  23  28
HETATM   28  C   UNL     1      -8.140   0.476 -32.571  1.00  0.00     0.128 A 
HETATM   29  N   UNL     1      -7.963  -0.311 -33.615  1.00  0.00    -0.231 NA
HETATM   30  C   UNL     1      -6.696  -0.825 -33.487  1.00  0.00     0.085 A 
HETATM   31  C   UNL     1      -6.078  -0.340 -32.341  1.00  0.00     0.062 A 
HETATM   32  C   UNL     1      -5.999  -1.714 -34.317  1.00  0.00     0.034 A 
HETATM   33  N   UNL     1      -7.009   0.496 -31.783  1.00  0.00    -0.341 N 
HETATM   34  C   UNL     1      -4.786  -0.700 -31.955  1.00  0.00     0.032 A 
HETATM   35  H   UNL     1      -6.887   1.040 -30.939  1.00  0.00     0.167 HD
HETATM   36  C   UNL     1      -4.106  -1.591 -32.794  1.00  0.00     0.002 A 
HETATM   37  C   UNL     1      -4.698  -2.089 -33.958  1.00  0.00     0.002 A 
ENDBRANCH  23  28
ENDBRANCH   1  23
TORSDOF 7
ENDMDL
MODEL 5
REMARK VINA RESULT:      -8.6      3.877      8.145
REMARK  7 active torsions:
REMARK  status: ('A' for Active; 'I' for Inactive)
REMARK    1  A    between atoms: S_2  and  C_3 
REMARK    2  A    between atoms: C_3  and  C_4 
REMARK    3  A    between atoms: C_4  and  C_5 
REMARK    4  A    between atoms: C_5  and  N_6 
REMARK    5  A    between atoms: C_5  and  C_26 
REMARK       I    between atoms: N_6  and  C_7 
REMARK    6  A    between atoms: C_7  and  C_8 
REMARK    7  A    between atoms: C_8  and  N_9 
ROOT
HETATM    1  N   UNL     1      -4.447   4.731 -32.875  1.00  0.00    -0.348 N 
HETATM    2  C   UNL     1      -3.885   4.958 -34.114  1.00  0.00     0.236 C 
HETATM    3  O   UNL     1      -4.514   4.935 -35.164  1.00  0.00    -0.272 OA
HETATM    4  H   UNL     1      -3.793   4.424 -32.161  1.00  0.00     0.163 HD
ENDROOT
BRANCH   2   5
HETATM    5  C   UNL     1      -2.372   5.173 -34.044  1.00  0.00     0.239 C 
BRANCH   5   6
HETATM    6  N   UNL     1      -2.037   5.998 -32.901  1.00  0.00    -0.259 N 
HETATM    7  C   UNL     1      -1.723   7.321 -32.971  1.00  0.00     0.326 C 
HETATM    8  O   UNL     1      -1.698   8.017 -33.976  1.00  0.00    -0.247 OA
HETATM    9  N   UNL     1      -1.423   7.769 -31.711  1.00  0.00    -0.320 N 
HETATM   10  C   UNL     1      -1.249   6.677 -30.772  1.00  0.00     0.144 C 
HETATM   11  H   UNL     1      -1.151   8.727 -31.534  1.00  0.00     0.165 HD
HETATM   12  C   UNL     1      -2.033   6.918 -29.497  1.00  0.00    -0.014 A 
HETATM   13  C   UNL     1       0.254   6.445 -30.520  1.00  0.00     0.047 C 
HETATM   14  C   UNL     1      -1.764   5.511 -31.649  1.00  0.00     0.261 C 
HETATM   15  C   UNL     1      -1.376   7.309 -28.309  1.00  0.00    -0.049 A 
HETATM   16  C   UNL     1      -3.435   6.784 -29.476  1.00  0.00     0.011 A 
HETATM   17  C   UNL     1      -2.119   7.515 -27.136  1.00  0.00     0.007 A 
HETATM   18  C   UNL     1       0.128   7.442 -28.227  1.00  0.00     0.039 C 
HETATM   19  C   UNL     1      -3.503   7.356 -27.133  1.00  0.00     0.001 A 
HETATM   20  C   UNL     1      -4.160   6.994 -28.302  1.00  0.00     0.001 A 
HETATM   21  C   UNL     1       0.813   7.514 -29.587  1.00  0.00     0.008 C 
HETATM   22  O   UNL     1      -1.829   4.336 -31.311  1.00  0.00    -0.270 OA
ENDBRANCH   5   6
ENDBRANCH   2   5
BRANCH   1  23
HETATM   23  C   UNL     1      -5.846   4.374 -32.688  1.00  0.00     0.155 C 
BRANCH  23  24
HETATM   24  C   UNL     1      -6.781   5.297 -33.488  1.00  0.00     0.043 C 
BRANCH  24  25
HETATM   25  C   UNL     1      -7.913   5.857 -32.622  1.00  0.00     0.076 C 
BRANCH  25  26
HETATM   26  S   UNL     1      -7.377   5.959 -30.883  1.00  0.00    -0.173 SA
HETATM   27  C   UNL     1      -8.577   4.806 -30.171  1.00  0.00     0.089 C 
ENDBRANCH  25  26
ENDBRANCH  24  25
ENDBRANCH  23  24
BRANCH  23  28
HETATM   28  C   UNL     1      -6.008   2.936 -33.106  1.00  0.00     0.128 A 
HETATM   29  N   UNL     1      -5.641   1.874 -32.416  1.00  0.00    -0.231 NA
HETATM   30  C   UNL     1      -6.028   0.789 -33.163  1.00  0.00     0.085 A 
HETATM   31  C   UNL     1      -6.651   1.193 -34.338  1.00  0.00     0.062 A 
HETATM   32  C   UNL     1      -5.885  -0.581 -32.900  1.00  0.00     0.034 A 
HETATM   33  N   UNL     1      -6.640   2.560 -34.272  1.00  0.00    -0.341 N 
HETATM   34  C   UNL     1      -7.141   0.300 -35.292  1.00  0.00     0.032 A 
HETATM   35  H   UNL     1      -7.032   3.190 -34.960  1.00  0.00     0.167 HD
HETATM   36  C   UNL     1      -6.986  -1.063 -35.015  1.00  0.00     0.002 A 
HETATM   37  C   UNL     1      -6.372  -1.500 -33.838  1.00  0.00     0.002 A 
ENDBRANCH  23  28
ENDBRANCH   1  23
TORSDOF 7
ENDMDL
MODEL 6
REMARK VINA RESULT:      -8.5      3.089      6.203
REMARK  7 active torsions:
REMARK  status: ('A' for Active; 'I' for Inactive)
REMARK    1  A    between atoms: S_2  and  C_3 
REMARK    2  A    between atoms: C_3  and  C_4 
REMARK    3  A    between atoms: C_4  and  C_5 
REMARK    4  A    between atoms: C_5  and  N_6 
REMARK    5  A    between atoms: C_5  and  C_26 
REMARK       I    between atoms: N_6  and  C_7 
REMARK    6  A    between atoms: C_7  and  C_8 
REMARK    7  A    between atoms: C_8  and  N_9 
ROOT
HETATM    1  N   UNL     1      -9.408   5.235 -32.335  1.00  0.00    -0.348 N 
HETATM    2  C   UNL     1      -8.774   4.836 -31.176  1.00  0.00     0.236 C 
HETATM    3  O   UNL     1      -9.351   4.646 -30.114  1.00  0.00    -0.272 OA
HETATM    4  H   UNL     1      -8.805   5.696 -33.012  1.00  0.00     0.163 HD
ENDROOT
BRANCH   2   5
HETATM    5  C   UNL     1      -7.257   4.725 -31.343  1.00  0.00     0.239 C 
BRANCH   5   6
HETATM    6  N   UNL     1      -6.933   3.674 -32.286  1.00  0.00    -0.259 N 
HETATM    7  C   UNL     1      -6.675   3.876 -33.607  1.00  0.00     0.326 C 
HETATM    8  O   UNL     1      -6.649   4.948 -34.194  1.00  0.00    -0.247 OA
HETATM    9  N   UNL     1      -6.449   2.662 -34.202  1.00  0.00    -0.320 N 
HETATM   10  C   UNL     1      -6.830   1.557 -33.344  1.00  0.00     0.144 C 
HETATM   11  H   UNL     1      -6.246   2.579 -35.189  1.00  0.00     0.165 HD
HETATM   12  C   UNL     1      -5.735   0.509 -33.277  1.00  0.00    -0.014 A 
HETATM   13  C   UNL     1      -8.184   0.983 -33.807  1.00  0.00     0.047 C 
HETATM   14  C   UNL     1      -7.074   2.335 -32.028  1.00  0.00     0.261 C 
HETATM   15  C   UNL     1      -5.863  -0.713 -33.975  1.00  0.00    -0.049 A 
HETATM   16  C   UNL     1      -4.557   0.744 -32.543  1.00  0.00     0.011 A 
HETATM   17  C   UNL     1      -4.844  -1.674 -33.889  1.00  0.00     0.007 A 
HETATM   18  C   UNL     1      -7.107  -1.067 -34.757  1.00  0.00     0.039 C 
HETATM   19  C   UNL     1      -3.695  -1.430 -33.140  1.00  0.00     0.001 A 
HETATM   20  C   UNL     1      -3.550  -0.221 -32.470  1.00  0.00     0.001 A 
HETATM   21  C   UNL     1      -8.005   0.128 -35.056  1.00  0.00     0.008 C 
HETATM   22  O   UNL     1      -7.425   1.846 -30.963  1.00  0.00    -0.270 OA
ENDBRANCH   5   6
ENDBRANCH   2   5
BRANCH   1  23
HETATM   23  C   UNL     1     -10.830   5.536 -32.402  1.00  0.00     0.155 C 
BRANCH  23  24
HETATM   24  C   UNL     1     -11.130   6.649 -33.421  1.00  0.00     0.043 C 
BRANCH  24  25
HETATM   25  C   UNL     1     -10.570   6.324 -34.807  1.00  0.00     0.076 C 
BRANCH  25  26
HETATM   26  S   UNL     1     -10.869   7.715 -35.945  1.00  0.00    -0.173 SA
HETATM   27  C   UNL     1     -12.640   7.456 -36.217  1.00  0.00     0.089 C 
ENDBRANCH  25  26
ENDBRANCH  24  25
ENDBRANCH  23  24
BRANCH  23  28
HETATM   28  C   UNL     1     -11.549   4.261 -32.759  1.00  0.00     0.128 A 
HETATM   29  N   UNL     1     -10.995   3.144 -33.190  1.00  0.00    -0.231 NA
HETATM   30  C   UNL     1     -12.024   2.248 -33.338  1.00  0.00     0.085 A 
HETATM   31  C   UNL     1     -13.238   2.824 -32.987  1.00  0.00     0.062 A 
HETATM   32  C   UNL     1     -11.999   0.913 -33.767  1.00  0.00     0.034 A 
HETATM   33  N   UNL     1     -12.909   4.099 -32.608  1.00  0.00    -0.341 N 
HETATM   34  C   UNL     1     -14.456   2.146 -33.046  1.00  0.00     0.032 A 
HETATM   35  H   UNL     1     -13.553   4.802 -32.270  1.00  0.00     0.167 HD
HETATM   36  C   UNL     1     -14.413   0.815 -33.479  1.00  0.00     0.002 A 
HETATM   37  C   UNL     1     -13.206   0.205 -33.831  1.00  0.00     0.002 A 
ENDBRANCH  23  28
ENDBRANCH   1  23
TORSDOF 7
ENDMDL
MODEL 7
REMARK VINA RESULT:      -8.5      2.010      3.346
REMARK  7 active torsions:
REMARK  status: ('A' for Active; 'I' for Inactive)
REMARK    1  A    between atoms: S_2  and  C_3 
REMARK    2  A    between atoms: C_3  and  C_4 
REMARK    3  A    between atoms: C_4  and  C_5 
REMARK    4  A    between atoms: C_5  and  N_6 
REMARK    5  A    between atoms: C_5  and  C_26 
REMARK       I    between atoms: N_6  and  C_7 
REMARK    6  A    between atoms: C_7  and  C_8 
REMARK    7  A    between atoms: C_8  and  N_9 
ROOT
HETATM    1  N   UNL     1      -6.715   4.563 -30.880  1.00  0.00    -0.348 N 
HETATM    2  C   UNL     1      -8.005   4.734 -31.339  1.00  0.00     0.236 C 
HETATM    3  O   UNL     1      -8.557   5.822 -31.436  1.00  0.00    -0.272 OA
HETATM    4  H   UNL     1      -6.513   3.637 -30.512  1.00  0.00     0.163 HD
ENDROOT
BRANCH   2   5
HETATM    5  C   UNL     1      -8.699   3.406 -31.649  1.00  0.00     0.239 C 
BRANCH   5   6
HETATM    6  N   UNL     1      -7.799   2.526 -32.365  1.00  0.00    -0.259 N 
HETATM    7  C   UNL     1      -7.179   2.841 -33.535  1.00  0.00     0.326 C 
HETATM    8  O   UNL     1      -7.258   3.899 -34.145  1.00  0.00    -0.247 OA
HETATM    9  N   UNL     1      -6.438   1.765 -33.946  1.00  0.00    -0.320 N 
HETATM   10  C   UNL     1      -6.761   0.565 -33.198  1.00  0.00     0.144 C 
HETATM   11  H   UNL     1      -5.902   1.779 -34.803  1.00  0.00     0.165 HD
HETATM   12  C   UNL     1      -5.506  -0.132 -32.707  1.00  0.00    -0.014 A 
HETATM   13  C   UNL     1      -7.664  -0.350 -34.048  1.00  0.00     0.047 C 
HETATM   14  C   UNL     1      -7.638   1.192 -32.088  1.00  0.00     0.261 C 
HETATM   15  C   UNL     1      -5.047  -1.313 -33.332  1.00  0.00    -0.049 A 
HETATM   16  C   UNL     1      -4.757   0.398 -31.640  1.00  0.00     0.011 A 
HETATM   17  C   UNL     1      -3.890  -1.950 -32.854  1.00  0.00     0.007 A 
HETATM   18  C   UNL     1      -5.805  -1.975 -34.459  1.00  0.00     0.039 C 
HETATM   19  C   UNL     1      -3.176  -1.419 -31.783  1.00  0.00     0.001 A 
HETATM   20  C   UNL     1      -3.607  -0.245 -31.178  1.00  0.00     0.001 A 
HETATM   21  C   UNL     1      -6.846  -1.072 -35.112  1.00  0.00     0.008 C 
HETATM   22  O   UNL     1      -8.175   0.585 -31.171  1.00  0.00    -0.270 OA
ENDBRANCH   5   6
ENDBRANCH   2   5
BRANCH   1  23
HETATM   23  C   UNL     1      -5.890   5.661 -30.398  1.00  0.00     0.155 C 
BRANCH  23  24
HETATM   24  C   UNL     1      -5.381   5.406 -28.968  1.00  0.00     0.043 C 
BRANCH  24  25
HETATM   25  C   UNL     1      -6.327   5.982 -27.912  1.00  0.00     0.076 C 
BRANCH  25  26
HETATM   26  S   UNL     1      -7.095   7.515 -28.530  1.00  0.00    -0.173 SA
HETATM   27  C   UNL     1      -8.817   7.127 -28.128  1.00  0.00     0.089 C 
ENDBRANCH  25  26
ENDBRANCH  24  25
ENDBRANCH  23  24
BRANCH  23  28
HETATM   28  C   UNL     1      -4.746   5.829 -31.363  1.00  0.00     0.128 A 
HETATM   29  N   UNL     1      -4.017   6.915 -31.533  1.00  0.00    -0.231 NA
HETATM   30  C   UNL     1      -3.071   6.590 -32.473  1.00  0.00     0.085 A 
HETATM   31  C   UNL     1      -3.218   5.272 -32.888  1.00  0.00     0.062 A 
HETATM   32  C   UNL     1      -2.044   7.371 -33.022  1.00  0.00     0.034 A 
HETATM   33  N   UNL     1      -4.278   4.805 -32.158  1.00  0.00    -0.341 N 
HETATM   34  C   UNL     1      -2.396   4.673 -33.844  1.00  0.00     0.032 A 
HETATM   35  H   UNL     1      -4.654   3.866 -32.193  1.00  0.00     0.167 HD
HETATM   36  C   UNL     1      -1.378   5.468 -34.384  1.00  0.00     0.002 A 
HETATM   37  C   UNL     1      -1.201   6.794 -33.980  1.00  0.00     0.002 A 
ENDBRANCH  23  28
ENDBRANCH   1  23
TORSDOF 7
ENDMDL
MODEL 8
REMARK VINA RESULT:      -8.4      2.807      6.278
REMARK  7 active torsions:
REMARK  status: ('A' for Active; 'I' for Inactive)
REMARK    1  A    between atoms: S_2  and  C_3 
REMARK    2  A    between atoms: C_3  and  C_4 
REMARK    3  A    between atoms: C_4  and  C_5 
REMARK    4  A    between atoms: C_5  and  N_6 
REMARK    5  A    between atoms: C_5  and  C_26 
REMARK       I    between atoms: N_6  and  C_7 
REMARK    6  A    between atoms: C_7  and  C_8 
REMARK    7  A    between atoms: C_8  and  N_9 
ROOT
HETATM    1  N   UNL     1      -5.189   2.115 -32.912  1.00  0.00    -0.348 N 
HETATM    2  C   UNL     1      -6.484   2.578 -32.808  1.00  0.00     0.236 C 
HETATM    3  O   UNL     1      -6.929   3.145 -31.819  1.00  0.00    -0.272 OA
HETATM    4  H   UNL     1      -5.056   1.373 -33.595  1.00  0.00     0.163 HD
ENDROOT
BRANCH   2   5
HETATM    5  C   UNL     1      -7.329   2.245 -34.039  1.00  0.00     0.239 C 
BRANCH   5   6
HETATM    6  N   UNL     1      -8.700   1.986 -33.649  1.00  0.00    -0.259 N 
HETATM    7  C   UNL     1      -9.141   0.817 -33.109  1.00  0.00     0.326 C 
HETATM    8  O   UNL     1      -8.468  -0.171 -32.848  1.00  0.00    -0.247 OA
HETATM    9  N   UNL     1     -10.492   0.908 -32.902  1.00  0.00    -0.320 N 
HETATM   10  C   UNL     1     -11.067   2.062 -33.567  1.00  0.00     0.144 C 
HETATM   11  H   UNL     1     -11.028   0.143 -32.516  1.00  0.00     0.165 HD
HETATM   12  C   UNL     1     -11.964   2.847 -32.630  1.00  0.00    -0.014 A 
HETATM   13  C   UNL     1     -11.787   1.614 -34.854  1.00  0.00     0.047 C 
HETATM   14  C   UNL     1      -9.763   2.784 -33.984  1.00  0.00     0.261 C 
HETATM   15  C   UNL     1     -13.370   2.773 -32.748  1.00  0.00    -0.049 A 
HETATM   16  C   UNL     1     -11.417   3.642 -31.605  1.00  0.00     0.011 A 
HETATM   17  C   UNL     1     -14.182   3.518 -31.877  1.00  0.00     0.007 A 
HETATM   18  C   UNL     1     -14.046   1.976 -33.839  1.00  0.00     0.039 C 
HETATM   19  C   UNL     1     -13.619   4.315 -30.883  1.00  0.00     0.001 A 
HETATM   20  C   UNL     1     -12.238   4.374 -30.745  1.00  0.00     0.001 A 
HETATM   21  C   UNL     1     -13.128   0.969 -34.522  1.00  0.00     0.008 C 
HETATM   22  O   UNL     1      -9.695   3.843 -34.594  1.00  0.00    -0.270 OA
ENDBRANCH   5   6
ENDBRANCH   2   5
BRANCH   1  23
HETATM   23  C   UNL     1      -4.225   2.193 -31.825  1.00  0.00     0.155 C 
BRANCH  23  24
HETATM   24  C   UNL     1      -3.363   0.922 -31.734  1.00  0.00     0.043 C 
BRANCH  24  25
HETATM   25  C   UNL     1      -4.187  -0.300 -31.320  1.00  0.00     0.076 C 
BRANCH  25  26
HETATM   26  S   UNL     1      -3.683  -1.754 -32.297  1.00  0.00    -0.173 SA
HETATM   27  C   UNL     1      -4.711  -1.458 -33.757  1.00  0.00     0.089 C 
ENDBRANCH  25  26
ENDBRANCH  24  25
ENDBRANCH  23  24
BRANCH  23  28
HETATM   28  C   UNL     1      -3.374   3.414 -32.057  1.00  0.00     0.128 A 
HETATM   29  N   UNL     1      -2.308   3.769 -31.366  1.00  0.00    -0.231 NA
HETATM   30  C   UNL     1      -1.837   4.912 -31.963  1.00  0.00     0.085 A 
HETATM   31  C   UNL     1      -2.629   5.267 -33.049  1.00  0.00     0.062 A 
HETATM   32  C   UNL     1      -0.729   5.707 -31.636  1.00  0.00     0.034 A 
HETATM   33  N   UNL     1      -3.589   4.292 -33.098  1.00  0.00    -0.341 N 
HETATM   34  C   UNL     1      -2.388   6.392 -33.839  1.00  0.00     0.032 A 
HETATM   35  H   UNL     1      -4.331   4.224 -33.784  1.00  0.00     0.167 HD
HETATM   36  C   UNL     1      -1.280   7.175 -33.495  1.00  0.00     0.002 A 
HETATM   37  C   UNL     1      -0.460   6.839 -32.414  1.00  0.00     0.002 A 
ENDBRANCH  23  28
ENDBRANCH   1  23
TORSDOF 7
ENDMDL
MODEL 9
REMARK VINA RESULT:      -8.4      2.554      6.714
REMARK  7 active torsions:
REMARK  status: ('A' for Active; 'I' for Inactive)
REMARK    1  A    between atoms: S_2  and  C_3 
REMARK    2  A    between atoms: C_3  and  C_4 
REMARK    3  A    between atoms: C_4  and  C_5 
REMARK    4  A    between atoms: C_5  and  N_6 
REMARK    5  A    between atoms: C_5  and  C_26 
REMARK       I    between atoms: N_6  and  C_7 
REMARK    6  A    between atoms: C_7  and  C_8 
REMARK    7  A    between atoms: C_8  and  N_9 
ROOT
HETATM    1  N   UNL     1      -8.666   2.181 -31.626  1.00  0.00    -0.348 N 
HETATM    2  C   UNL     1      -7.810   3.086 -32.217  1.00  0.00     0.236 C 
HETATM    3  O   UNL     1      -7.341   2.950 -33.339  1.00  0.00    -0.272 OA
HETATM    4  H   UNL     1      -8.687   2.215 -30.610  1.00  0.00     0.163 HD
ENDROOT
BRANCH   2   5
HETATM    5  C   UNL     1      -7.449   4.248 -31.289  1.00  0.00     0.239 C 
BRANCH   5   6
HETATM    6  N   UNL     1      -6.016   4.462 -31.288  1.00  0.00    -0.259 N 
HETATM    7  C   UNL     1      -5.123   3.700 -30.600  1.00  0.00     0.326 C 
HETATM    8  O   UNL     1      -5.372   2.722 -29.908  1.00  0.00    -0.247 OA
HETATM    9  N   UNL     1      -3.866   4.210 -30.795  1.00  0.00    -0.320 N 
HETATM   10  C   UNL     1      -3.902   5.524 -31.407  1.00  0.00     0.144 C 
HETATM   11  H   UNL     1      -3.049   3.800 -30.363  1.00  0.00     0.165 HD
HETATM   12  C   UNL     1      -2.943   5.611 -32.579  1.00  0.00    -0.014 A 
HETATM   13  C   UNL     1      -3.644   6.602 -30.337  1.00  0.00     0.047 C 
HETATM   14  C   UNL     1      -5.402   5.583 -31.783  1.00  0.00     0.261 C 
HETATM   15  C   UNL     1      -1.720   6.310 -32.459  1.00  0.00    -0.049 A 
HETATM   16  C   UNL     1      -3.236   4.974 -33.800  1.00  0.00     0.011 A 
HETATM   17  C   UNL     1      -0.853   6.389 -33.560  1.00  0.00     0.007 A 
HETATM   18  C   UNL     1      -1.338   7.055 -31.201  1.00  0.00     0.039 C 
HETATM   19  C   UNL     1      -1.172   5.769 -34.766  1.00  0.00     0.001 A 
HETATM   20  C   UNL     1      -2.361   5.060 -34.884  1.00  0.00     0.001 A 
HETATM   21  C   UNL     1      -2.163   6.661 -29.980  1.00  0.00     0.008 C 
HETATM   22  O   UNL     1      -5.963   6.515 -32.343  1.00  0.00    -0.270 OA
ENDBRANCH   5   6
ENDBRANCH   2   5
BRANCH   1  23
HETATM   23  C   UNL     1      -9.057   0.927 -32.253  1.00  0.00     0.155 C 
BRANCH  23  24
HETATM   24  C   UNL     1      -9.830   1.161 -33.562  1.00  0.00     0.043 C 
BRANCH  24  25
HETATM   25  C   UNL     1     -11.100   1.987 -33.338  1.00  0.00     0.076 C 
BRANCH  25  26
HETATM   26  S   UNL     1     -12.430   1.399 -34.435  1.00  0.00    -0.173 SA
HETATM   27  C   UNL     1     -12.675   2.918 -35.388  1.00  0.00     0.089 C 
ENDBRANCH  25  26
ENDBRANCH  24  25
ENDBRANCH  23  24
BRANCH  23  28
HETATM   28  C   UNL     1      -7.802   0.129 -32.496  1.00  0.00     0.128 A 
HETATM   29  N   UNL     1      -7.573  -0.680 -33.512  1.00  0.00    -0.231 NA
HETATM   30  C   UNL     1      -6.292  -1.145 -33.340  1.00  0.00     0.085 A 
HETATM   31  C   UNL     1      -5.719  -0.606 -32.195  1.00  0.00     0.062 A 
HETATM   32  C   UNL     1      -5.544  -2.031 -34.128  1.00  0.00     0.034 A 
HETATM   33  N   UNL     1      -6.691   0.212 -31.684  1.00  0.00    -0.341 N 
HETATM   34  C   UNL     1      -4.425  -0.909 -31.769  1.00  0.00     0.032 A 
HETATM   35  H   UNL     1      -6.609   0.783 -30.853  1.00  0.00     0.167 HD
HETATM   36  C   UNL     1      -3.694  -1.798 -32.567  1.00  0.00     0.002 A 
HETATM   37  C   UNL     1      -4.240  -2.349 -33.729  1.00  0.00     0.002 A 
ENDBRANCH  23  28
ENDBRANCH   1  23
TORSDOF 7
ENDMDL
MODEL 10
REMARK VINA RESULT:      -8.3      2.646      5.165
REMARK  7 active torsions:
REMARK  status: ('A' for Active; 'I' for Inactive)
REMARK    1  A    between atoms: S_2  and  C_3 
REMARK    2  A    between atoms: C_3  and  C_4 
REMARK    3  A    between atoms: C_4  and  C_5 
REMARK    4  A    between atoms: C_5  and  N_6 
REMARK    5  A    between atoms: C_5  and  C_26 
REMARK       I    between atoms: N_6  and  C_7 
REMARK    6  A    between atoms: C_7  and  C_8 
REMARK    7  A    between atoms: C_8  and  N_9 
ROOT
HETATM    1  N   UNL     1      -7.377   3.214 -31.363  1.00  0.00    -0.348 N 
HETATM    2  C   UNL     1      -6.675   3.364 -30.185  1.00  0.00     0.236 C 
HETATM    3  O   UNL     1      -6.829   4.301 -29.413  1.00  0.00    -0.272 OA
HETATM    4  H   UNL     1      -6.920   2.631 -32.059  1.00  0.00     0.163 HD
ENDROOT
BRANCH   2   5
HETATM    5  C   UNL     1      -5.628   2.267 -29.980  1.00  0.00     0.239 C 
BRANCH   5   6
HETATM    6  N   UNL     1      -5.484   1.481 -31.188  1.00  0.00    -0.259 N 
HETATM    7  C   UNL     1      -4.992   1.957 -32.364  1.00  0.00     0.326 C 
HETATM    8  O   UNL     1      -4.578   3.088 -32.583  1.00  0.00    -0.247 OA
HETATM    9  N   UNL     1      -5.037   0.956 -33.299  1.00  0.00    -0.320 N 
HETATM   10  C   UNL     1      -5.835  -0.169 -32.852  1.00  0.00     0.144 C 
HETATM   11  H   UNL     1      -4.727   1.097 -34.251  1.00  0.00     0.165 HD
HETATM   12  C   UNL     1      -5.104  -1.481 -33.064  1.00  0.00    -0.014 A 
HETATM   13  C   UNL     1      -7.214  -0.131 -33.539  1.00  0.00     0.047 C 
HETATM   14  C   UNL     1      -6.034   0.239 -31.373  1.00  0.00     0.261 C 
HETATM   15  C   UNL     1      -5.473  -2.349 -34.116  1.00  0.00    -0.049 A 
HETATM   16  C   UNL     1      -4.026  -1.847 -32.236  1.00  0.00     0.011 A 
HETATM   17  C   UNL     1      -4.791  -3.565 -34.287  1.00  0.00     0.007 A 
HETATM   18  C   UNL     1      -6.640  -2.057 -35.030  1.00  0.00     0.039 C 
HETATM   19  C   UNL     1      -3.741  -3.918 -33.443  1.00  0.00     0.001 A 
HETATM   20  C   UNL     1      -3.356  -3.059 -32.421  1.00  0.00     0.001 A 
HETATM   21  C   UNL     1      -7.109  -0.608 -34.983  1.00  0.00     0.008 C 
HETATM   22  O   UNL     1      -6.659  -0.396 -30.533  1.00  0.00    -0.270 OA
ENDBRANCH   5   6
ENDBRANCH   2   5
BRANCH   1  23
HETATM   23  C   UNL     1      -8.337   4.194 -31.848  1.00  0.00     0.155 C 
BRANCH  23  24
HETATM   24  C   UNL     1      -7.664   5.266 -32.723  1.00  0.00     0.043 C 
BRANCH  24  25
HETATM   25  C   UNL     1      -7.978   6.683 -32.237  1.00  0.00     0.076 C 
BRANCH  25  26
HETATM   26  S   UNL     1      -9.120   6.618 -30.818  1.00  0.00    -0.173 SA
HETATM   27  C   UNL     1      -8.161   7.630 -29.664  1.00  0.00     0.089 C 
ENDBRANCH  25  26
ENDBRANCH  24  25
ENDBRANCH  23  24
BRANCH  23  28
HETATM   28  C   UNL     1      -9.399   3.451 -32.614  1.00  0.00     0.128 A 
HETATM   29  N   UNL     1      -9.832   2.229 -32.368  1.00  0.00    -0.231 NA
HETATM   30  C   UNL     1     -10.826   1.991 -33.285  1.00  0.00     0.085 A 
HETATM   31  C   UNL     1     -11.012   3.093 -34.111  1.00  0.00     0.062 A 
HETATM   32  C   UNL     1     -11.624   0.853 -33.472  1.00  0.00     0.034 A 
HETATM   33  N   UNL     1     -10.105   4.013 -33.656  1.00  0.00    -0.341 N 
HETATM   34  C   UNL     1     -11.954   3.130 -35.140  1.00  0.00     0.032 A 
HETATM   35  H   UNL     1      -9.976   4.948 -34.020  1.00  0.00     0.167 HD
HETATM   36  C   UNL     1     -12.739   1.984 -35.314  1.00  0.00     0.002 A 
HETATM   37  C   UNL     1     -12.581   0.864 -34.494  1.00  0.00     0.002 A 
ENDBRANCH  23  28
ENDBRANCH   1  23
TORSDOF 7
ENDMDL
