MODEL 1
REMARK VINA RESULT:      -8.2      0.000      0.000
REMARK  5 active torsions:
REMARK  status: ('A' for Active; 'I' for Inactive)
REMARK    1  A    between atoms: C_2  and  N_3 
REMARK    2  A    between atoms: C_2  and  C_19 
REMARK       I    between atoms: N_3  and  C_4 
REMARK    3  A    between atoms: C_4  and  C_5 
REMARK    4  A    between atoms: C_6  and  O_7 
REMARK    5  A    between atoms: O_7  and  C_8 
ROOT
HETATM    1  C   UNL     1      -5.119  -0.748 -33.073  1.00  0.00     0.065 A 
HETATM    2  C   UNL     1      -6.511  -0.899 -33.043  1.00  0.00     0.091 A 
HETATM    3  C   UNL     1      -7.118  -1.875 -33.846  1.00  0.00     0.038 A 
HETATM    4  C   UNL     1      -6.338  -2.722 -34.636  1.00  0.00     0.003 A 
HETATM    5  C   UNL     1      -4.951  -2.591 -34.644  1.00  0.00     0.001 A 
HETATM    6  C   UNL     1      -4.340  -1.606 -33.866  1.00  0.00     0.020 A 
ENDROOT
BRANCH   1   7
HETATM    7  C   UNL     1      -4.443   0.280 -32.242  1.00  0.00     0.255 C 
HETATM    8  N   UNL     1      -4.672   1.586 -32.620  1.00  0.00    -0.348 N 
HETATM    9  H   UNL     1      -5.389   1.784 -33.307  1.00  0.00     0.163 HD
HETATM   10  O   UNL     1      -3.720  -0.040 -31.307  1.00  0.00    -0.268 OA
BRANCH   8  11
HETATM   11  C   UNL     1      -4.127   2.710 -31.868  1.00  0.00     0.115 C 
HETATM   12  C   UNL     1      -5.150   3.141 -30.812  1.00  0.00     0.037 C 
BRANCH  11  13
HETATM   13  C   UNL     1      -3.675   3.796 -32.826  1.00  0.00    -0.018 A 
HETATM   14  C   UNL     1      -4.544   4.553 -33.607  1.00  0.00     0.125 A 
HETATM   15  N   UNL     1      -4.159   5.542 -34.449  1.00  0.00    -0.273 NA
HETATM   16  C   UNL     1      -2.838   5.808 -34.514  1.00  0.00     0.116 A 
HETATM   17  C   UNL     1      -1.884   5.131 -33.778  1.00  0.00     0.020 A 
HETATM   18  C   UNL     1      -2.312   4.120 -32.922  1.00  0.00     0.012 A 
ENDBRANCH  11  13
ENDBRANCH   8  11
ENDBRANCH   1   7
BRANCH   2  19
HETATM   19  O   UNL     1      -7.272  -0.013 -32.311  1.00  0.00    -0.310 OA
BRANCH  19  20
HETATM   20  C   UNL     1      -8.400   0.496 -32.915  1.00  0.00     0.076 A 
HETATM   21  C   UNL     1      -9.677  -0.018 -32.680  1.00  0.00     0.037 A 
HETATM   22  C   UNL     1     -10.781   0.555 -33.313  1.00  0.00     0.003 A 
HETATM   23  C   UNL     1     -10.610   1.651 -34.160  1.00  0.00     0.000 A 
HETATM   24  C   UNL     1      -9.337   2.183 -34.367  1.00  0.00     0.003 A 
HETATM   25  C   UNL     1      -8.232   1.610 -33.738  1.00  0.00     0.037 A 
ENDBRANCH  19  20
ENDBRANCH   2  19
TORSDOF 5
ENDMDL
MODEL 2
REMARK VINA RESULT:      -7.9      1.488      4.153
REMARK  5 active torsions:
REMARK  status: ('A' for Active; 'I' for Inactive)
REMARK    1  A    between atoms: C_2  and  N_3 
REMARK    2  A    between atoms: C_2  and  C_19 
REMARK       I    between atoms: N_3  and  C_4 
REMARK    3  A    between atoms: C_4  and  C_5 
REMARK    4  A    between atoms: C_6  and  O_7 
REMARK    5  A    between atoms: O_7  and  C_8 
ROOT
HETATM    1  C   UNL     1      -6.312   0.719 -32.366  1.00  0.00     0.065 A 
HETATM    2  C   UNL     1      -6.054  -0.221 -33.371  1.00  0.00     0.091 A 
HETATM    3  C   UNL     1      -7.119  -0.938 -33.935  1.00  0.00     0.038 A 
HETATM    4  C   UNL     1      -8.432  -0.685 -33.533  1.00  0.00     0.003 A 
HETATM    5  C   UNL     1      -8.690   0.270 -32.553  1.00  0.00     0.001 A 
HETATM    6  C   UNL     1      -7.635   0.972 -31.968  1.00  0.00     0.020 A 
ENDROOT
BRANCH   1   7
HETATM    7  C   UNL     1      -5.209   1.491 -31.740  1.00  0.00     0.255 C 
HETATM    8  N   UNL     1      -5.065   2.785 -32.195  1.00  0.00    -0.348 N 
HETATM    9  H   UNL     1      -5.787   3.187 -32.782  1.00  0.00     0.163 HD
HETATM   10  O   UNL     1      -4.478   0.982 -30.900  1.00  0.00    -0.268 OA
BRANCH   8  11
HETATM   11  C   UNL     1      -4.067   3.690 -31.637  1.00  0.00     0.115 C 
HETATM   12  C   UNL     1      -4.738   4.579 -30.586  1.00  0.00     0.037 C 
BRANCH  11  13
HETATM   13  C   UNL     1      -3.354   4.420 -32.759  1.00  0.00    -0.018 A 
HETATM   14  C   UNL     1      -4.001   4.963 -33.866  1.00  0.00     0.125 A 
HETATM   15  N   UNL     1      -3.382   5.640 -34.864  1.00  0.00    -0.273 NA
HETATM   16  C   UNL     1      -2.048   5.800 -34.756  1.00  0.00     0.116 A 
HETATM   17  C   UNL     1      -1.302   5.315 -33.698  1.00  0.00     0.020 A 
HETATM   18  C   UNL     1      -1.967   4.624 -32.690  1.00  0.00     0.012 A 
ENDBRANCH  11  13
ENDBRANCH   8  11
ENDBRANCH   1   7
BRANCH   2  19
HETATM   19  O   UNL     1      -4.750  -0.508 -33.711  1.00  0.00    -0.310 OA
BRANCH  19  20
HETATM   20  C   UNL     1      -4.311  -1.795 -33.490  1.00  0.00     0.076 A 
HETATM   21  C   UNL     1      -4.483  -2.820 -34.424  1.00  0.00     0.037 A 
HETATM   22  C   UNL     1      -3.999  -4.099 -34.143  1.00  0.00     0.003 A 
HETATM   23  C   UNL     1      -3.327  -4.345 -32.945  1.00  0.00     0.000 A 
HETATM   24  C   UNL     1      -3.129  -3.311 -32.029  1.00  0.00     0.003 A 
HETATM   25  C   UNL     1      -3.614  -2.033 -32.306  1.00  0.00     0.037 A 
ENDBRANCH  19  20
ENDBRANCH   2  19
TORSDOF 5
ENDMDL
MODEL 3
REMARK VINA RESULT:      -7.7      2.954      6.695
REMARK  5 active torsions:
REMARK  status: ('A' for Active; 'I' for Inactive)
REMARK    1  A    between atoms: C_2  and  N_3 
REMARK    2  A    between atoms: C_2  and  C_19 
REMARK       I    between atoms: N_3  and  C_4 
REMARK    3  A    between atoms: C_4  and  C_5 
REMARK    4  A    between atoms: C_6  and  O_7 
REMARK    5  A    between atoms: O_7  and  C_8 
ROOT
HETATM    1  C   UNL     1      -7.031   1.823 -32.048  1.00  0.00     0.065 A 
HETATM    2  C   UNL     1      -6.996   0.462 -31.719  1.00  0.00     0.091 A 
HETATM    3  C   UNL     1      -6.356   0.052 -30.541  1.00  0.00     0.038 A 
HETATM    4  C   UNL     1      -5.799   0.997 -29.676  1.00  0.00     0.003 A 
HETATM    5  C   UNL     1      -5.859   2.353 -29.989  1.00  0.00     0.001 A 
HETATM    6  C   UNL     1      -6.472   2.768 -31.172  1.00  0.00     0.020 A 
ENDROOT
BRANCH   1   7
HETATM    7  C   UNL     1      -7.692   2.293 -33.291  1.00  0.00     0.255 C 
HETATM    8  N   UNL     1      -9.071   2.264 -33.270  1.00  0.00    -0.348 N 
HETATM    9  H   UNL     1      -9.550   2.094 -32.394  1.00  0.00     0.163 HD
HETATM   10  O   UNL     1      -7.035   2.652 -34.260  1.00  0.00    -0.268 OA
BRANCH   8  11
HETATM   11  C   UNL     1      -9.867   2.749 -34.392  1.00  0.00     0.115 C 
HETATM   12  C   UNL     1      -9.915   4.279 -34.340  1.00  0.00     0.037 C 
BRANCH  11  13
HETATM   13  C   UNL     1     -11.212   2.049 -34.405  1.00  0.00    -0.018 A 
HETATM   14  C   UNL     1     -12.279   2.432 -35.214  1.00  0.00     0.125 A 
HETATM   15  N   UNL     1     -13.478   1.802 -35.255  1.00  0.00    -0.273 NA
HETATM   16  C   UNL     1     -13.629   0.723 -34.460  1.00  0.00     0.116 A 
HETATM   17  C   UNL     1     -12.637   0.244 -33.625  1.00  0.00     0.020 A 
HETATM   18  C   UNL     1     -11.417   0.913 -33.605  1.00  0.00     0.012 A 
ENDBRANCH  11  13
ENDBRANCH   8  11
ENDBRANCH   1   7
BRANCH   2  19
HETATM   19  O   UNL     1      -7.490  -0.463 -32.613  1.00  0.00    -0.310 OA
BRANCH  19  20
HETATM   20  C   UNL     1      -6.573  -1.229 -33.298  1.00  0.00     0.076 A 
HETATM   21  C   UNL     1      -5.194  -1.097 -33.113  1.00  0.00     0.037 A 
HETATM   22  C   UNL     1      -4.319  -1.917 -33.828  1.00  0.00     0.003 A 
HETATM   23  C   UNL     1      -4.821  -2.878 -34.705  1.00  0.00     0.000 A 
HETATM   24  C   UNL     1      -6.200  -3.029 -34.863  1.00  0.00     0.003 A 
HETATM   25  C   UNL     1      -7.076  -2.210 -34.152  1.00  0.00     0.037 A 
ENDBRANCH  19  20
ENDBRANCH   2  19
TORSDOF 5
ENDMDL
MODEL 4
REMARK VINA RESULT:      -7.5      2.183      6.210
REMARK  5 active torsions:
REMARK  status: ('A' for Active; 'I' for Inactive)
REMARK    1  A    between atoms: C_2  and  N_3 
REMARK    2  A    between atoms: C_2  and  C_19 
REMARK       I    between atoms: N_3  and  C_4 
REMARK    3  A    between atoms: C_4  and  C_5 
REMARK    4  A    between atoms: C_6  and  O_7 
REMARK    5  A    between atoms: O_7  and  C_8 
ROOT
HETATM    1  C   UNL     1      -6.271   2.467 -32.070  1.00  0.00     0.065 A 
HETATM    2  C   UNL     1      -5.355   1.414 -31.960  1.00  0.00     0.091 A 
HETATM    3  C   UNL     1      -3.996   1.651 -32.212  1.00  0.00     0.038 A 
HETATM    4  C   UNL     1      -3.551   2.938 -32.523  1.00  0.00     0.003 A 
HETATM    5  C   UNL     1      -4.459   3.991 -32.603  1.00  0.00     0.001 A 
HETATM    6  C   UNL     1      -5.816   3.760 -32.379  1.00  0.00     0.020 A 
ENDROOT
BRANCH   1   7
HETATM    7  C   UNL     1      -7.718   2.251 -31.818  1.00  0.00     0.255 C 
HETATM    8  N   UNL     1      -8.425   1.716 -32.874  1.00  0.00    -0.348 N 
HETATM    9  H   UNL     1      -7.921   1.354 -33.675  1.00  0.00     0.163 HD
HETATM   10  O   UNL     1      -8.226   2.558 -30.747  1.00  0.00    -0.268 OA
BRANCH   8  11
HETATM   11  C   UNL     1      -9.842   1.389 -32.764  1.00  0.00     0.115 C 
HETATM   12  C   UNL     1      -9.998  -0.134 -32.737  1.00  0.00     0.037 C 
BRANCH  11  13
HETATM   13  C   UNL     1     -10.619   2.111 -33.848  1.00  0.00    -0.018 A 
HETATM   14  C   UNL     1     -10.242   3.337 -34.389  1.00  0.00     0.125 A 
HETATM   15  N   UNL     1     -10.912   3.983 -35.374  1.00  0.00    -0.273 NA
HETATM   16  C   UNL     1     -12.012   3.375 -35.864  1.00  0.00     0.116 A 
HETATM   17  C   UNL     1     -12.475   2.153 -35.413  1.00  0.00     0.020 A 
HETATM   18  C   UNL     1     -11.765   1.516 -34.400  1.00  0.00     0.012 A 
ENDBRANCH  11  13
ENDBRANCH   8  11
ENDBRANCH   1   7
BRANCH   2  19
HETATM   19  O   UNL     1      -5.816   0.138 -31.718  1.00  0.00    -0.310 OA
BRANCH  19  20
HETATM   20  C   UNL     1      -5.634  -0.796 -32.714  1.00  0.00     0.076 A 
HETATM   21  C   UNL     1      -6.507  -0.922 -33.797  1.00  0.00     0.037 A 
HETATM   22  C   UNL     1      -6.255  -1.880 -34.781  1.00  0.00     0.003 A 
HETATM   23  C   UNL     1      -5.124  -2.692 -34.693  1.00  0.00     0.000 A 
HETATM   24  C   UNL     1      -4.236  -2.541 -33.626  1.00  0.00     0.003 A 
HETATM   25  C   UNL     1      -4.487  -1.587 -32.641  1.00  0.00     0.037 A 
ENDBRANCH  19  20
ENDBRANCH   2  19
TORSDOF 5
ENDMDL
MODEL 5
REMARK VINA RESULT:      -7.3     14.950     16.254
REMARK  5 active torsions:
REMARK  status: ('A' for Active; 'I' for Inactive)
REMARK    1  A    between atoms: C_2  and  N_3 
REMARK    2  A    between atoms: C_2  and  C_19 
REMARK       I    between atoms: N_3  and  C_4 
REMARK    3  A    between atoms: C_4  and  C_5 
REMARK    4  A    between atoms: C_6  and  O_7 
REMARK    5  A    between atoms: O_7  and  C_8 
ROOT
HETATM    1  C   UNL     1      -4.107 -13.248 -39.938  1.00  0.00     0.065 A 
HETATM    2  C   UNL     1      -5.378 -12.912 -40.420  1.00  0.00     0.091 A 
HETATM    3  C   UNL     1      -5.739 -13.272 -41.726  1.00  0.00     0.038 A 
HETATM    4  C   UNL     1      -4.856 -14.000 -42.527  1.00  0.00     0.003 A 
HETATM    5  C   UNL     1      -3.602 -14.359 -42.036  1.00  0.00     0.001 A 
HETATM    6  C   UNL     1      -3.225 -13.985 -40.746  1.00  0.00     0.020 A 
ENDROOT
BRANCH   1   7
HETATM    7  C   UNL     1      -3.688 -12.877 -38.563  1.00  0.00     0.255 C 
HETATM    8  N   UNL     1      -4.127 -13.723 -37.566  1.00  0.00    -0.348 N 
HETATM    9  H   UNL     1      -4.550 -14.608 -37.818  1.00  0.00     0.163 HD
HETATM   10  O   UNL     1      -3.021 -11.872 -38.355  1.00  0.00    -0.268 OA
BRANCH   8  11
HETATM   11  C   UNL     1      -3.751 -13.528 -36.171  1.00  0.00     0.115 C 
HETATM   12  C   UNL     1      -2.478 -14.331 -35.885  1.00  0.00     0.037 C 
BRANCH  11  13
HETATM   13  C   UNL     1      -4.935 -13.832 -35.274  1.00  0.00    -0.018 A 
HETATM   14  C   UNL     1      -5.304 -13.050 -34.183  1.00  0.00     0.125 A 
HETATM   15  N   UNL     1      -6.373 -13.294 -33.387  1.00  0.00    -0.273 NA
HETATM   16  C   UNL     1      -7.130 -14.367 -33.694  1.00  0.00     0.116 A 
HETATM   17  C   UNL     1      -6.868 -15.208 -34.759  1.00  0.00     0.020 A 
HETATM   18  C   UNL     1      -5.763 -14.931 -35.557  1.00  0.00     0.012 A 
ENDBRANCH  11  13
ENDBRANCH   8  11
ENDBRANCH   1   7
BRANCH   2  19
HETATM   19  O   UNL     1      -6.213 -12.136 -39.645  1.00  0.00    -0.310 OA
BRANCH  19  20
HETATM   20  C   UNL     1      -7.503 -12.584 -39.467  1.00  0.00     0.076 A 
HETATM   21  C   UNL     1      -8.575 -12.114 -40.228  1.00  0.00     0.037 A 
HETATM   22  C   UNL     1      -9.856 -12.623 -40.007  1.00  0.00     0.003 A 
HETATM   23  C   UNL     1     -10.059 -13.613 -39.045  1.00  0.00     0.000 A 
HETATM   24  C   UNL     1      -8.980 -14.104 -38.309  1.00  0.00     0.003 A 
HETATM   25  C   UNL     1      -7.699 -13.595 -38.526  1.00  0.00     0.037 A 
ENDBRANCH  19  20
ENDBRANCH   2  19
TORSDOF 5
ENDMDL
MODEL 6
REMARK VINA RESULT:      -7.3      1.457      3.977
REMARK  5 active torsions:
REMARK  status: ('A' for Active; 'I' for Inactive)
REMARK    1  A    between atoms: C_2  and  N_3 
REMARK    2  A    between atoms: C_2  and  C_19 
REMARK       I    between atoms: N_3  and  C_4 
REMARK    3  A    between atoms: C_4  and  C_5 
REMARK    4  A    between atoms: C_6  and  O_7 
REMARK    5  A    between atoms: O_7  and  C_8 
ROOT
HETATM    1  C   UNL     1      -7.625   1.714 -32.376  1.00  0.00     0.065 A 
HETATM    2  C   UNL     1      -7.604   1.184 -33.672  1.00  0.00     0.091 A 
HETATM    3  C   UNL     1      -8.802   0.763 -34.266  1.00  0.00     0.038 A 
HETATM    4  C   UNL     1     -10.015   0.914 -33.591  1.00  0.00     0.003 A 
HETATM    5  C   UNL     1     -10.039   1.468 -32.313  1.00  0.00     0.001 A 
HETATM    6  C   UNL     1      -8.849   1.868 -31.704  1.00  0.00     0.020 A 
ENDROOT
BRANCH   1   7
HETATM    7  C   UNL     1      -6.375   2.163 -31.713  1.00  0.00     0.255 C 
HETATM    8  N   UNL     1      -5.769   3.263 -32.283  1.00  0.00    -0.348 N 
HETATM    9  H   UNL     1      -6.267   3.792 -32.988  1.00  0.00     0.163 HD
HETATM   10  O   UNL     1      -5.924   1.565 -30.744  1.00  0.00    -0.268 OA
BRANCH   8  11
HETATM   11  C   UNL     1      -4.568   3.860 -31.713  1.00  0.00     0.115 C 
HETATM   12  C   UNL     1      -4.980   4.870 -30.638  1.00  0.00     0.037 C 
BRANCH  11  13
HETATM   13  C   UNL     1      -3.690   4.404 -32.823  1.00  0.00    -0.018 A 
HETATM   14  C   UNL     1      -2.304   4.510 -32.737  1.00  0.00     0.125 A 
HETATM   15  N   UNL     1      -1.504   4.970 -33.728  1.00  0.00    -0.273 NA
HETATM   16  C   UNL     1      -2.106   5.335 -34.878  1.00  0.00     0.116 A 
HETATM   17  C   UNL     1      -3.471   5.264 -35.084  1.00  0.00     0.020 A 
HETATM   18  C   UNL     1      -4.266   4.787 -34.046  1.00  0.00     0.012 A 
ENDBRANCH  11  13
ENDBRANCH   8  11
ENDBRANCH   1   7
BRANCH   2  19
HETATM   19  O   UNL     1      -6.394   0.979 -34.300  1.00  0.00    -0.310 OA
BRANCH  19  20
HETATM   20  C   UNL     1      -5.851  -0.284 -34.222  1.00  0.00     0.076 A 
HETATM   21  C   UNL     1      -4.706  -0.567 -33.475  1.00  0.00     0.037 A 
HETATM   22  C   UNL     1      -4.217  -1.874 -33.426  1.00  0.00     0.003 A 
HETATM   23  C   UNL     1      -4.884  -2.896 -34.103  1.00  0.00     0.000 A 
HETATM   24  C   UNL     1      -6.047  -2.615 -34.822  1.00  0.00     0.003 A 
HETATM   25  C   UNL     1      -6.535  -1.310 -34.875  1.00  0.00     0.037 A 
ENDBRANCH  19  20
ENDBRANCH   2  19
TORSDOF 5
ENDMDL
MODEL 7
REMARK VINA RESULT:      -7.3     14.943     16.876
REMARK  5 active torsions:
REMARK  status: ('A' for Active; 'I' for Inactive)
REMARK    1  A    between atoms: C_2  and  N_3 
REMARK    2  A    between atoms: C_2  and  C_19 
REMARK       I    between atoms: N_3  and  C_4 
REMARK    3  A    between atoms: C_4  and  C_5 
REMARK    4  A    between atoms: C_6  and  O_7 
REMARK    5  A    between atoms: O_7  and  C_8 
ROOT
HETATM    1  C   UNL     1      -6.105 -14.065 -36.279  1.00  0.00     0.065 A 
HETATM    2  C   UNL     1      -5.070 -13.223 -35.852  1.00  0.00     0.091 A 
HETATM    3  C   UNL     1      -4.854 -13.035 -34.480  1.00  0.00     0.038 A 
HETATM    4  C   UNL     1      -5.633 -13.718 -33.543  1.00  0.00     0.003 A 
HETATM    5  C   UNL     1      -6.643 -14.577 -33.968  1.00  0.00     0.001 A 
HETATM    6  C   UNL     1      -6.882 -14.752 -35.332  1.00  0.00     0.020 A 
ENDROOT
BRANCH   1   7
HETATM    7  C   UNL     1      -6.368 -14.281 -37.724  1.00  0.00     0.255 C 
HETATM    8  N   UNL     1      -6.727 -13.153 -38.431  1.00  0.00    -0.348 N 
HETATM    9  H   UNL     1      -6.634 -12.244 -37.994  1.00  0.00     0.163 HD
HETATM   10  O   UNL     1      -6.289 -15.397 -38.220  1.00  0.00    -0.268 OA
BRANCH   8  11
HETATM   11  C   UNL     1      -6.959 -13.190 -39.870  1.00  0.00     0.115 C 
HETATM   12  C   UNL     1      -6.227 -12.012 -40.521  1.00  0.00     0.037 C 
BRANCH  11  13
HETATM   13  C   UNL     1      -8.448 -13.271 -40.146  1.00  0.00    -0.018 A 
HETATM   14  C   UNL     1      -9.112 -14.446 -40.486  1.00  0.00     0.125 A 
HETATM   15  N   UNL     1     -10.445 -14.540 -40.711  1.00  0.00    -0.273 NA
HETATM   16  C   UNL     1     -11.167 -13.408 -40.581  1.00  0.00     0.116 A 
HETATM   17  C   UNL     1     -10.619 -12.187 -40.237  1.00  0.00     0.020 A 
HETATM   18  C   UNL     1      -9.247 -12.124 -40.013  1.00  0.00     0.012 A 
ENDBRANCH  11  13
ENDBRANCH   8  11
ENDBRANCH   1   7
BRANCH   2  19
HETATM   19  O   UNL     1      -4.354 -12.505 -36.785  1.00  0.00    -0.310 OA
BRANCH  19  20
HETATM   20  C   UNL     1      -3.129 -13.010 -37.162  1.00  0.00     0.076 A 
HETATM   21  C   UNL     1      -2.546 -14.116 -36.539  1.00  0.00     0.037 A 
HETATM   22  C   UNL     1      -1.309 -14.587 -36.982  1.00  0.00     0.003 A 
HETATM   23  C   UNL     1      -0.669 -13.968 -38.056  1.00  0.00     0.000 A 
HETATM   24  C   UNL     1      -1.270 -12.883 -38.698  1.00  0.00     0.003 A 
HETATM   25  C   UNL     1      -2.504 -12.409 -38.255  1.00  0.00     0.037 A 
ENDBRANCH  19  20
ENDBRANCH   2  19
TORSDOF 5
ENDMDL
MODEL 8
REMARK VINA RESULT:      -7.3      1.975      5.392
REMARK  5 active torsions:
REMARK  status: ('A' for Active; 'I' for Inactive)
REMARK    1  A    between atoms: C_2  and  N_3 
REMARK    2  A    between atoms: C_2  and  C_19 
REMARK       I    between atoms: N_3  and  C_4 
REMARK    3  A    between atoms: C_4  and  C_5 
REMARK    4  A    between atoms: C_6  and  O_7 
REMARK    5  A    between atoms: O_7  and  C_8 
ROOT
HETATM    1  C   UNL     1      -7.076  -0.438 -33.161  1.00  0.00     0.065 A 
HETATM    2  C   UNL     1      -5.773  -0.115 -32.763  1.00  0.00     0.091 A 
HETATM    3  C   UNL     1      -4.695  -0.871 -33.246  1.00  0.00     0.038 A 
HETATM    4  C   UNL     1      -4.913  -1.909 -34.155  1.00  0.00     0.003 A 
HETATM    5  C   UNL     1      -6.207  -2.211 -34.573  1.00  0.00     0.001 A 
HETATM    6  C   UNL     1      -7.288  -1.480 -34.079  1.00  0.00     0.020 A 
ENDROOT
BRANCH   1   7
HETATM    7  C   UNL     1      -8.241   0.336 -32.664  1.00  0.00     0.255 C 
HETATM    8  N   UNL     1      -8.901   1.082 -33.617  1.00  0.00    -0.348 N 
HETATM    9  H   UNL     1      -8.680   0.944 -34.595  1.00  0.00     0.163 HD
HETATM   10  O   UNL     1      -8.556   0.313 -31.481  1.00  0.00    -0.268 OA
BRANCH   8  11
HETATM   11  C   UNL     1     -10.100   1.849 -33.298  1.00  0.00     0.115 C 
HETATM   12  C   UNL     1     -11.333   1.011 -33.652  1.00  0.00     0.037 C 
BRANCH  11  13
HETATM   13  C   UNL     1     -10.024   3.214 -33.954  1.00  0.00    -0.018 A 
HETATM   14  C   UNL     1      -8.917   4.054 -33.872  1.00  0.00     0.125 A 
HETATM   15  N   UNL     1      -8.823   5.266 -34.471  1.00  0.00    -0.273 NA
HETATM   16  C   UNL     1      -9.881   5.666 -35.206  1.00  0.00     0.116 A 
HETATM   17  C   UNL     1     -11.028   4.913 -35.369  1.00  0.00     0.020 A 
HETATM   18  C   UNL     1     -11.093   3.673 -34.740  1.00  0.00     0.012 A 
ENDBRANCH  11  13
ENDBRANCH   8  11
ENDBRANCH   1   7
BRANCH   2  19
HETATM   19  O   UNL     1      -5.578   0.867 -31.816  1.00  0.00    -0.310 OA
BRANCH  19  20
HETATM   20  C   UNL     1      -4.926   2.011 -32.220  1.00  0.00     0.076 A 
HETATM   21  C   UNL     1      -5.494   2.927 -33.109  1.00  0.00     0.037 A 
HETATM   22  C   UNL     1      -4.785   4.075 -33.465  1.00  0.00     0.003 A 
HETATM   23  C   UNL     1      -3.524   4.316 -32.918  1.00  0.00     0.000 A 
HETATM   24  C   UNL     1      -2.974   3.415 -32.006  1.00  0.00     0.003 A 
HETATM   25  C   UNL     1      -3.679   2.266 -31.650  1.00  0.00     0.037 A 
ENDBRANCH  19  20
ENDBRANCH   2  19
TORSDOF 5
ENDMDL
MODEL 9
REMARK VINA RESULT:      -7.3      1.693      2.125
REMARK  5 active torsions:
REMARK  status: ('A' for Active; 'I' for Inactive)
REMARK    1  A    between atoms: C_2  and  N_3 
REMARK    2  A    between atoms: C_2  and  C_19 
REMARK       I    between atoms: N_3  and  C_4 
REMARK    3  A    between atoms: C_4  and  C_5 
REMARK    4  A    between atoms: C_6  and  O_7 
REMARK    5  A    between atoms: O_7  and  C_8 
ROOT
HETATM    1  C   UNL     1      -6.009   0.541 -33.354  1.00  0.00     0.065 A 
HETATM    2  C   UNL     1      -6.913   0.418 -34.416  1.00  0.00     0.091 A 
HETATM    3  C   UNL     1      -7.033  -0.810 -35.082  1.00  0.00     0.038 A 
HETATM    4  C   UNL     1      -6.293  -1.917 -34.661  1.00  0.00     0.003 A 
HETATM    5  C   UNL     1      -5.415  -1.801 -33.585  1.00  0.00     0.001 A 
HETATM    6  C   UNL     1      -5.271  -0.577 -32.932  1.00  0.00     0.020 A 
ENDROOT
BRANCH   1   7
HETATM    7  C   UNL     1      -5.850   1.827 -32.631  1.00  0.00     0.255 C 
HETATM    8  N   UNL     1      -5.320   2.859 -33.376  1.00  0.00    -0.348 N 
HETATM    9  H   UNL     1      -5.226   2.748 -34.378  1.00  0.00     0.163 HD
HETATM   10  O   UNL     1      -6.154   1.930 -31.449  1.00  0.00    -0.268 OA
BRANCH   8  11
HETATM   11  C   UNL     1      -5.158   4.200 -32.827  1.00  0.00     0.115 C 
HETATM   12  C   UNL     1      -5.966   5.185 -33.677  1.00  0.00     0.037 C 
BRANCH  11  13
HETATM   13  C   UNL     1      -3.682   4.517 -32.678  1.00  0.00    -0.018 A 
HETATM   14  C   UNL     1      -2.913   4.140 -31.581  1.00  0.00     0.125 A 
HETATM   15  N   UNL     1      -1.590   4.394 -31.444  1.00  0.00    -0.273 NA
HETATM   16  C   UNL     1      -0.986   5.048 -32.457  1.00  0.00     0.116 A 
HETATM   17  C   UNL     1      -1.644   5.462 -33.600  1.00  0.00     0.020 A 
HETATM   18  C   UNL     1      -3.004   5.186 -33.710  1.00  0.00     0.012 A 
ENDBRANCH  11  13
ENDBRANCH   8  11
ENDBRANCH   1   7
BRANCH   2  19
HETATM   19  O   UNL     1      -7.588   1.533 -34.864  1.00  0.00    -0.310 OA
BRANCH  19  20
HETATM   20  C   UNL     1      -8.809   1.804 -34.287  1.00  0.00     0.076 A 
HETATM   21  C   UNL     1      -9.767   0.815 -34.054  1.00  0.00     0.037 A 
HETATM   22  C   UNL     1     -10.979   1.154 -33.450  1.00  0.00     0.003 A 
HETATM   23  C   UNL     1     -11.221   2.472 -33.061  1.00  0.00     0.000 A 
HETATM   24  C   UNL     1     -10.248   3.451 -33.265  1.00  0.00     0.003 A 
HETATM   25  C   UNL     1      -9.038   3.115 -33.871  1.00  0.00     0.037 A 
ENDBRANCH  19  20
ENDBRANCH   2  19
TORSDOF 5
ENDMDL
MODEL 10
REMARK VINA RESULT:      -7.2      2.481      5.533
REMARK  5 active torsions:
REMARK  status: ('A' for Active; 'I' for Inactive)
REMARK    1  A    between atoms: C_2  and  N_3 
REMARK    2  A    between atoms: C_2  and  C_19 
REMARK       I    between atoms: N_3  and  C_4 
REMARK    3  A    between atoms: C_4  and  C_5 
REMARK    4  A    between atoms: C_6  and  O_7 
REMARK    5  A    between atoms: O_7  and  C_8 
ROOT
HETATM    1  C   UNL     1      -4.545   0.904 -32.464  1.00  0.00     0.065 A 
HETATM    2  C   UNL     1      -4.576  -0.333 -33.121  1.00  0.00     0.091 A 
HETATM    3  C   UNL     1      -3.643  -1.322 -32.776  1.00  0.00     0.038 A 
HETATM    4  C   UNL     1      -2.720  -1.095 -31.754  1.00  0.00     0.003 A 
HETATM    5  C   UNL     1      -2.708   0.125 -31.081  1.00  0.00     0.001 A 
HETATM    6  C   UNL     1      -3.616   1.124 -31.433  1.00  0.00     0.020 A 
ENDROOT
BRANCH   1   7
HETATM    7  C   UNL     1      -5.511   1.976 -32.808  1.00  0.00     0.255 C 
HETATM    8  N   UNL     1      -6.816   1.735 -32.432  1.00  0.00    -0.348 N 
HETATM    9  H   UNL     1      -7.019   0.954 -31.819  1.00  0.00     0.163 HD
HETATM   10  O   UNL     1      -5.152   2.983 -33.404  1.00  0.00    -0.268 OA
BRANCH   8  11
HETATM   11  C   UNL     1      -7.872   2.718 -32.646  1.00  0.00     0.115 C 
HETATM   12  C   UNL     1      -7.913   3.668 -31.446  1.00  0.00     0.037 C 
BRANCH  11  13
HETATM   13  C   UNL     1      -9.174   2.008 -32.967  1.00  0.00    -0.018 A 
HETATM   14  C   UNL     1     -10.246   2.611 -33.619  1.00  0.00     0.125 A 
HETATM   15  N   UNL     1     -11.405   1.985 -33.935  1.00  0.00    -0.273 NA
HETATM   16  C   UNL     1     -11.507   0.683 -33.599  1.00  0.00     0.116 A 
HETATM   17  C   UNL     1     -10.504  -0.023 -32.961  1.00  0.00     0.020 A 
HETATM   18  C   UNL     1      -9.326   0.649 -32.650  1.00  0.00     0.012 A 
ENDBRANCH  11  13
ENDBRANCH   8  11
ENDBRANCH   1   7
BRANCH   2  19
HETATM   19  O   UNL     1      -5.448  -0.519 -34.172  1.00  0.00    -0.310 OA
BRANCH  19  20
HETATM   20  C   UNL     1      -5.860  -1.809 -34.426  1.00  0.00     0.076 A 
HETATM   21  C   UNL     1      -7.134  -2.272 -34.088  1.00  0.00     0.037 A 
HETATM   22  C   UNL     1      -7.494  -3.587 -34.389  1.00  0.00     0.003 A 
HETATM   23  C   UNL     1      -6.592  -4.426 -35.044  1.00  0.00     0.000 A 
HETATM   24  C   UNL     1      -5.332  -3.950 -35.409  1.00  0.00     0.003 A 
HETATM   25  C   UNL     1      -4.969  -2.638 -35.107  1.00  0.00     0.037 A 
ENDBRANCH  19  20
ENDBRANCH   2  19
TORSDOF 5
ENDMDL
