MODEL 1
REMARK VINA RESULT:      -8.8      0.000      0.000
REMARK  7 active torsions:
REMARK  status: ('A' for Active; 'I' for Inactive)
REMARK    1  A    between atoms: C_2  and  O_3 
REMARK    2  A    between atoms: O_3  and  C_4 
REMARK    3  A    between atoms: C_4  and  C_5 
REMARK    4  A    between atoms: C_6  and  C_7 
REMARK    5  A    between atoms: C_18  and  S_19 
REMARK    6  A    between atoms: S_19  and  C_20 
REMARK    7  A    between atoms: C_20  and  C_21 
ROOT
HETATM    1  C   UNL     1      -4.395   4.527 -32.522  1.00  0.00     0.070 C 
HETATM    2  C   UNL     1      -5.082   3.204 -32.873  1.00  0.00     0.203 C 
HETATM    3  N   UNL     1      -4.362   2.070 -32.290  1.00  0.00    -0.082 N 
HETATM    4  C   UNL     1      -3.430   2.189 -31.297  1.00  0.00     0.726 A 
HETATM    5  N   UNL     1      -3.117   3.417 -30.840  1.00  0.00    -0.192 N 
HETATM    6  N   UNL     1      -4.471   0.799 -32.714  1.00  0.00    -0.128 NA
HETATM    7  C   UNL     1      -3.613   0.185 -31.889  1.00  0.00     0.226 A 
HETATM    8  N   UNL     1      -2.965   1.004 -30.995  1.00  0.00    -0.035 NA
HETATM    9  C   UNL     1      -3.502   4.588 -31.500  1.00  0.00     0.037 C 
HETATM   10  C   UNL     1      -2.865   5.853 -30.978  1.00  0.00     0.070 C 
HETATM   11  H   UNL     1      -2.353   3.496 -30.172  1.00  0.00     0.184 HD
ENDROOT
BRANCH   7  12
HETATM   12  S   UNL     1      -3.343  -1.528 -32.016  1.00  0.00    -0.083 SA
BRANCH  12  13
HETATM   13  C   UNL     1      -3.491  -1.756 -33.808  1.00  0.00     0.123 C 
BRANCH  13  14
HETATM   14  C   UNL     1      -4.676  -2.630 -34.150  1.00  0.00    -0.027 A 
HETATM   15  C   UNL     1      -4.587  -4.028 -34.259  1.00  0.00     0.041 A 
HETATM   16 CL   UNL     1      -3.110  -4.880 -33.975  1.00  0.00    -0.084 Cl
HETATM   17  C   UNL     1      -5.709  -4.787 -34.610  1.00  0.00     0.024 A 
HETATM   18  C   UNL     1      -6.930  -4.163 -34.866  1.00  0.00     0.002 A 
HETATM   19  C   UNL     1      -7.032  -2.779 -34.770  1.00  0.00     0.001 A 
HETATM   20  C   UNL     1      -5.917  -2.019 -34.417  1.00  0.00     0.009 A 
ENDBRANCH  13  14
ENDBRANCH  12  13
ENDBRANCH   7  12
BRANCH   2  21
HETATM   21  C   UNL     1      -6.544   3.162 -32.421  1.00  0.00    -0.026 A 
HETATM   22  C   UNL     1      -7.529   2.665 -33.291  1.00  0.00     0.033 A 
HETATM   23  C   UNL     1      -8.868   2.640 -32.902  1.00  0.00     0.034 A 
HETATM   24 CL   UNL     1     -10.062   2.037 -33.985  1.00  0.00    -0.084 Cl
HETATM   25  C   UNL     1      -9.250   3.105 -31.646  1.00  0.00     0.024 A 
HETATM   26  C   UNL     1      -8.285   3.596 -30.769  1.00  0.00     0.002 A 
HETATM   27  C   UNL     1      -6.942   3.625 -31.151  1.00  0.00     0.010 A 
ENDBRANCH   2  21
BRANCH   1  28
HETATM   28  C   UNL     1      -4.781   5.626 -33.447  1.00  0.00     0.293 C 
HETATM   29  O   UNL     1      -5.692   6.404 -33.207  1.00  0.00    -0.259 OA
BRANCH  28  30
HETATM   30  O   UNL     1      -4.091   5.578 -34.610  1.00  0.00    -0.318 OA
BRANCH  30  31
HETATM   31  C   UNL     1      -2.757   6.109 -34.572  1.00  0.00     0.174 C 
HETATM   32  C   UNL     1      -1.740   5.035 -34.911  1.00  0.00     0.034 C 
ENDBRANCH  30  31
ENDBRANCH  28  30
ENDBRANCH   1  28
TORSDOF 7
ENDMDL
MODEL 2
REMARK VINA RESULT:      -8.5      2.798      4.592
REMARK  7 active torsions:
REMARK  status: ('A' for Active; 'I' for Inactive)
REMARK    1  A    between atoms: C_2  and  O_3 
REMARK    2  A    between atoms: O_3  and  C_4 
REMARK    3  A    between atoms: C_4  and  C_5 
REMARK    4  A    between atoms: C_6  and  C_7 
REMARK    5  A    between atoms: C_18  and  S_19 
REMARK    6  A    between atoms: S_19  and  C_20 
REMARK    7  A    between atoms: C_20  and  C_21 
ROOT
HETATM    1  C   UNL     1      -5.506   5.340 -31.336  1.00  0.00     0.070 C 
HETATM    2  C   UNL     1      -4.380   4.310 -31.209  1.00  0.00     0.203 C 
HETATM    3  N   UNL     1      -4.821   2.993 -31.675  1.00  0.00    -0.082 N 
HETATM    4  C   UNL     1      -5.939   2.789 -32.434  1.00  0.00     0.726 A 
HETATM    5  N   UNL     1      -6.714   3.845 -32.750  1.00  0.00    -0.192 N 
HETATM    6  N   UNL     1      -4.228   1.832 -31.348  1.00  0.00    -0.128 NA
HETATM    7  C   UNL     1      -5.012   0.959 -31.995  1.00  0.00     0.226 A 
HETATM    8  N   UNL     1      -6.065   1.511 -32.685  1.00  0.00    -0.035 NA
HETATM    9  C   UNL     1      -6.578   5.092 -32.133  1.00  0.00     0.037 C 
HETATM   10  C   UNL     1      -7.677   6.079 -32.441  1.00  0.00     0.070 C 
HETATM   11  H   UNL     1      -7.593   3.663 -33.230  1.00  0.00     0.184 HD
ENDROOT
BRANCH   7  12
HETATM   12  S   UNL     1      -4.697  -0.748 -31.897  1.00  0.00    -0.083 SA
BRANCH  12  13
HETATM   13  C   UNL     1      -4.231  -1.099 -33.613  1.00  0.00     0.123 C 
BRANCH  13  14
HETATM   14  C   UNL     1      -4.850  -2.392 -34.091  1.00  0.00    -0.027 A 
HETATM   15  C   UNL     1      -6.136  -2.460 -34.654  1.00  0.00     0.041 A 
HETATM   16 CL   UNL     1      -7.115  -1.055 -34.882  1.00  0.00    -0.084 Cl
HETATM   17  C   UNL     1      -6.675  -3.690 -35.051  1.00  0.00     0.024 A 
HETATM   18  C   UNL     1      -5.944  -4.866 -34.885  1.00  0.00     0.002 A 
HETATM   19  C   UNL     1      -4.673  -4.816 -34.321  1.00  0.00     0.001 A 
HETATM   20  C   UNL     1      -4.131  -3.592 -33.927  1.00  0.00     0.009 A 
ENDBRANCH  13  14
ENDBRANCH  12  13
ENDBRANCH   7  12
BRANCH   2  21
HETATM   21  C   UNL     1      -3.118   4.721 -31.971  1.00  0.00    -0.026 A 
HETATM   22  C   UNL     1      -1.895   4.828 -31.288  1.00  0.00     0.033 A 
HETATM   23  C   UNL     1      -0.740   5.223 -31.964  1.00  0.00     0.034 A 
HETATM   24 CL   UNL     1       0.747   5.358 -31.109  1.00  0.00    -0.084 Cl
HETATM   25  C   UNL     1      -0.781   5.514 -33.325  1.00  0.00     0.024 A 
HETATM   26  C   UNL     1      -1.984   5.408 -34.019  1.00  0.00     0.002 A 
HETATM   27  C   UNL     1      -3.145   5.014 -33.349  1.00  0.00     0.010 A 
ENDBRANCH   2  21
BRANCH   1  28
HETATM   28  C   UNL     1      -5.287   6.525 -30.465  1.00  0.00     0.293 C 
HETATM   29  O   UNL     1      -5.692   6.584 -29.314  1.00  0.00    -0.259 OA
BRANCH  28  30
HETATM   30  O   UNL     1      -4.704   7.547 -31.133  1.00  0.00    -0.318 OA
BRANCH  30  31
HETATM   31  C   UNL     1      -3.552   8.133 -30.506  1.00  0.00     0.174 C 
HETATM   32  C   UNL     1      -2.504   8.499 -31.540  1.00  0.00     0.034 C 
ENDBRANCH  30  31
ENDBRANCH  28  30
ENDBRANCH   1  28
TORSDOF 7
ENDMDL
MODEL 3
REMARK VINA RESULT:      -8.3      3.447      7.362
REMARK  7 active torsions:
REMARK  status: ('A' for Active; 'I' for Inactive)
REMARK    1  A    between atoms: C_2  and  O_3 
REMARK    2  A    between atoms: O_3  and  C_4 
REMARK    3  A    between atoms: C_4  and  C_5 
REMARK    4  A    between atoms: C_6  and  C_7 
REMARK    5  A    between atoms: C_18  and  S_19 
REMARK    6  A    between atoms: S_19  and  C_20 
REMARK    7  A    between atoms: C_20  and  C_21 
ROOT
HETATM    1  C   UNL     1      -8.653   2.347 -32.863  1.00  0.00     0.070 C 
HETATM    2  C   UNL     1      -7.559   2.247 -33.929  1.00  0.00     0.203 C 
HETATM    3  N   UNL     1      -6.539   3.281 -33.731  1.00  0.00    -0.082 N 
HETATM    4  C   UNL     1      -6.395   3.995 -32.575  1.00  0.00     0.726 A 
HETATM    5  N   UNL     1      -7.255   3.777 -31.561  1.00  0.00    -0.192 N 
HETATM    6  N   UNL     1      -5.686   3.701 -34.680  1.00  0.00    -0.128 NA
HETATM    7  C   UNL     1      -5.007   4.640 -34.009  1.00  0.00     0.226 A 
HETATM    8  N   UNL     1      -5.405   4.840 -32.709  1.00  0.00    -0.035 NA
HETATM    9  C   UNL     1      -8.437   3.047 -31.718  1.00  0.00     0.037 C 
HETATM   10  C   UNL     1      -9.384   3.104 -30.545  1.00  0.00     0.070 C 
HETATM   11  H   UNL     1      -7.196   4.384 -30.747  1.00  0.00     0.184 HD
ENDROOT
BRANCH   7  12
HETATM   12  S   UNL     1      -3.748   5.546 -34.795  1.00  0.00    -0.083 SA
BRANCH  12  13
HETATM   13  C   UNL     1      -2.287   4.613 -34.265  1.00  0.00     0.123 C 
BRANCH  13  14
HETATM   14  C   UNL     1      -1.658   5.237 -33.040  1.00  0.00    -0.027 A 
HETATM   15  C   UNL     1      -1.809   4.704 -31.750  1.00  0.00     0.041 A 
HETATM   16 CL   UNL     1      -2.707   3.258 -31.451  1.00  0.00    -0.084 Cl
HETATM   17  C   UNL     1      -1.231   5.340 -30.645  1.00  0.00     0.024 A 
HETATM   18  C   UNL     1      -0.504   6.518 -30.811  1.00  0.00     0.002 A 
HETATM   19  C   UNL     1      -0.352   7.063 -32.083  1.00  0.00     0.001 A 
HETATM   20  C   UNL     1      -0.923   6.430 -33.187  1.00  0.00     0.009 A 
ENDBRANCH  13  14
ENDBRANCH  12  13
ENDBRANCH   7  12
BRANCH   2  21
HETATM   21  C   UNL     1      -6.887   0.872 -33.956  1.00  0.00    -0.026 A 
HETATM   22  C   UNL     1      -5.923   0.549 -32.986  1.00  0.00     0.033 A 
HETATM   23  C   UNL     1      -5.286  -0.693 -33.009  1.00  0.00     0.034 A 
HETATM   24 CL   UNL     1      -4.101  -1.068 -31.820  1.00  0.00    -0.084 Cl
HETATM   25  C   UNL     1      -5.598  -1.630 -33.991  1.00  0.00     0.024 A 
HETATM   26  C   UNL     1      -6.556  -1.328 -34.956  1.00  0.00     0.002 A 
HETATM   27  C   UNL     1      -7.197  -0.086 -34.941  1.00  0.00     0.010 A 
ENDBRANCH   2  21
BRANCH   1  28
HETATM   28  C   UNL     1      -9.910   1.669 -33.280  1.00  0.00     0.293 C 
HETATM   29  O   UNL     1     -10.236   0.568 -32.865  1.00  0.00    -0.259 OA
BRANCH  28  30
HETATM   30  O   UNL     1     -10.565   2.359 -34.242  1.00  0.00    -0.318 OA
BRANCH  30  31
HETATM   31  C   UNL     1     -11.755   1.741 -34.758  1.00  0.00     0.174 C 
HETATM   32  C   UNL     1     -12.634   2.764 -35.455  1.00  0.00     0.034 C 
ENDBRANCH  30  31
ENDBRANCH  28  30
ENDBRANCH   1  28
TORSDOF 7
ENDMDL
MODEL 4
REMARK VINA RESULT:      -8.3      2.895      4.896
REMARK  7 active torsions:
REMARK  status: ('A' for Active; 'I' for Inactive)
REMARK    1  A    between atoms: C_2  and  O_3 
REMARK    2  A    between atoms: O_3  and  C_4 
REMARK    3  A    between atoms: C_4  and  C_5 
REMARK    4  A    between atoms: C_6  and  C_7 
REMARK    5  A    between atoms: C_18  and  S_19 
REMARK    6  A    between atoms: S_19  and  C_20 
REMARK    7  A    between atoms: C_20  and  C_21 
ROOT
HETATM    1  C   UNL     1      -5.631   5.284 -31.555  1.00  0.00     0.070 C 
HETATM    2  C   UNL     1      -4.439   4.335 -31.407  1.00  0.00     0.203 C 
HETATM    3  N   UNL     1      -4.792   2.981 -31.841  1.00  0.00    -0.082 N 
HETATM    4  C   UNL     1      -5.895   2.685 -32.591  1.00  0.00     0.726 A 
HETATM    5  N   UNL     1      -6.739   3.679 -32.930  1.00  0.00    -0.192 N 
HETATM    6  N   UNL     1      -4.123   1.869 -31.488  1.00  0.00    -0.128 NA
HETATM    7  C   UNL     1      -4.848   0.932 -32.112  1.00  0.00     0.226 A 
HETATM    8  N   UNL     1      -5.937   1.396 -32.812  1.00  0.00    -0.035 NA
HETATM    9  C   UNL     1      -6.685   4.947 -32.344  1.00  0.00     0.037 C 
HETATM   10  C   UNL     1      -7.848   5.852 -32.672  1.00  0.00     0.070 C 
HETATM   11  H   UNL     1      -7.605   3.428 -33.404  1.00  0.00     0.184 HD
ENDROOT
BRANCH   7  12
HETATM   12  S   UNL     1      -4.421  -0.748 -31.973  1.00  0.00    -0.083 SA
BRANCH  12  13
HETATM   13  C   UNL     1      -4.053  -1.141 -33.704  1.00  0.00     0.123 C 
BRANCH  13  14
HETATM   14  C   UNL     1      -4.735  -2.421 -34.129  1.00  0.00    -0.027 A 
HETATM   15  C   UNL     1      -6.016  -2.447 -34.705  1.00  0.00     0.041 A 
HETATM   16 CL   UNL     1      -6.917  -1.005 -35.011  1.00  0.00    -0.084 Cl
HETATM   17  C   UNL     1      -6.616  -3.664 -35.050  1.00  0.00     0.024 A 
HETATM   18  C   UNL     1      -5.951  -4.868 -34.818  1.00  0.00     0.002 A 
HETATM   19  C   UNL     1      -4.685  -4.858 -34.242  1.00  0.00     0.001 A 
HETATM   20  C   UNL     1      -4.082  -3.648 -33.899  1.00  0.00     0.009 A 
ENDBRANCH  13  14
ENDBRANCH  12  13
ENDBRANCH   7  12
BRANCH   2  21
HETATM   21  C   UNL     1      -3.208   4.810 -32.183  1.00  0.00    -0.026 A 
HETATM   22  C   UNL     1      -2.100   5.322 -31.486  1.00  0.00     0.033 A 
HETATM   23  C   UNL     1      -0.979   5.779 -32.179  1.00  0.00     0.034 A 
HETATM   24 CL   UNL     1       0.365   6.411 -31.309  1.00  0.00    -0.084 Cl
HETATM   25  C   UNL     1      -0.940   5.735 -33.571  1.00  0.00     0.024 A 
HETATM   26  C   UNL     1      -2.028   5.226 -34.277  1.00  0.00     0.002 A 
HETATM   27  C   UNL     1      -3.155   4.767 -33.590  1.00  0.00     0.010 A 
ENDBRANCH   2  21
BRANCH   1  28
HETATM   28  C   UNL     1      -5.490   6.502 -30.714  1.00  0.00     0.293 C 
HETATM   29  O   UNL     1      -4.999   7.541 -31.129  1.00  0.00    -0.259 OA
BRANCH  28  30
HETATM   30  O   UNL     1      -5.856   6.278 -29.430  1.00  0.00    -0.318 OA
BRANCH  30  31
HETATM   31  C   UNL     1      -7.000   7.011 -28.965  1.00  0.00     0.174 C 
HETATM   32  C   UNL     1      -8.043   6.071 -28.388  1.00  0.00     0.034 C 
ENDBRANCH  30  31
ENDBRANCH  28  30
ENDBRANCH   1  28
TORSDOF 7
ENDMDL
MODEL 5
REMARK VINA RESULT:      -8.0      3.534      5.870
REMARK  7 active torsions:
REMARK  status: ('A' for Active; 'I' for Inactive)
REMARK    1  A    between atoms: C_2  and  O_3 
REMARK    2  A    between atoms: O_3  and  C_4 
REMARK    3  A    between atoms: C_4  and  C_5 
REMARK    4  A    between atoms: C_6  and  C_7 
REMARK    5  A    between atoms: C_18  and  S_19 
REMARK    6  A    between atoms: S_19  and  C_20 
REMARK    7  A    between atoms: C_20  and  C_21 
ROOT
HETATM    1  C   UNL     1      -4.125   4.188 -32.496  1.00  0.00     0.070 C 
HETATM    2  C   UNL     1      -5.414   3.818 -31.756  1.00  0.00     0.203 C 
HETATM    3  N   UNL     1      -6.580   4.428 -32.399  1.00  0.00    -0.082 N 
HETATM    4  C   UNL     1      -6.566   4.951 -33.662  1.00  0.00     0.726 A 
HETATM    5  N   UNL     1      -5.412   4.947 -34.357  1.00  0.00    -0.192 N 
HETATM    6  N   UNL     1      -7.768   4.617 -31.800  1.00  0.00    -0.128 NA
HETATM    7  C   UNL     1      -8.454   5.213 -32.784  1.00  0.00     0.226 A 
HETATM    8  N   UNL     1      -7.753   5.422 -33.949  1.00  0.00    -0.035 NA
HETATM    9  C   UNL     1      -4.176   4.673 -33.765  1.00  0.00     0.037 C 
HETATM   10  C   UNL     1      -2.975   4.945 -34.638  1.00  0.00     0.070 C 
HETATM   11  H   UNL     1      -5.395   5.427 -35.254  1.00  0.00     0.184 HD
ENDROOT
BRANCH   7  12
HETATM   12  S   UNL     1     -10.102   5.707 -32.536  1.00  0.00    -0.083 SA
BRANCH  12  13
HETATM   13  C   UNL     1     -10.804   4.186 -31.843  1.00  0.00     0.123 C 
BRANCH  13  14
HETATM   14  C   UNL     1     -11.287   3.262 -32.937  1.00  0.00    -0.027 A 
HETATM   15  C   UNL     1     -10.672   2.031 -33.223  1.00  0.00     0.041 A 
HETATM   16 CL   UNL     1      -9.321   1.447 -32.318  1.00  0.00    -0.084 Cl
HETATM   17  C   UNL     1     -11.141   1.228 -34.269  1.00  0.00     0.024 A 
HETATM   18  C   UNL     1     -12.220   1.645 -35.048  1.00  0.00     0.002 A 
HETATM   19  C   UNL     1     -12.834   2.865 -34.783  1.00  0.00     0.001 A 
HETATM   20  C   UNL     1     -12.372   3.667 -33.738  1.00  0.00     0.009 A 
ENDBRANCH  13  14
ENDBRANCH  12  13
ENDBRANCH   7  12
BRANCH   2  21
HETATM   21  C   UNL     1      -5.622   2.305 -31.658  1.00  0.00    -0.026 A 
HETATM   22  C   UNL     1      -5.609   1.523 -32.826  1.00  0.00     0.033 A 
HETATM   23  C   UNL     1      -5.818   0.146 -32.756  1.00  0.00     0.034 A 
HETATM   24 CL   UNL     1      -5.808  -0.794 -34.197  1.00  0.00    -0.084 Cl
HETATM   25  C   UNL     1      -6.042  -0.476 -31.530  1.00  0.00     0.024 A 
HETATM   26  C   UNL     1      -6.053   0.285 -30.362  1.00  0.00     0.002 A 
HETATM   27  C   UNL     1      -5.845   1.665 -30.424  1.00  0.00     0.010 A 
ENDBRANCH   2  21
BRANCH   1  28
HETATM   28  C   UNL     1      -2.917   4.011 -31.648  1.00  0.00     0.293 C 
HETATM   29  O   UNL     1      -2.513   2.914 -31.292  1.00  0.00    -0.259 OA
BRANCH  28  30
HETATM   30  O   UNL     1      -2.407   5.194 -31.234  1.00  0.00    -0.318 OA
BRANCH  30  31
HETATM   31  C   UNL     1      -0.997   5.376 -31.437  1.00  0.00     0.174 C 
HETATM   32  C   UNL     1      -0.683   6.825 -31.766  1.00  0.00     0.034 C 
ENDBRANCH  30  31
ENDBRANCH  28  30
ENDBRANCH   1  28
TORSDOF 7
ENDMDL
MODEL 6
REMARK VINA RESULT:      -8.0      3.306      7.706
REMARK  7 active torsions:
REMARK  status: ('A' for Active; 'I' for Inactive)
REMARK    1  A    between atoms: C_2  and  O_3 
REMARK    2  A    between atoms: O_3  and  C_4 
REMARK    3  A    between atoms: C_4  and  C_5 
REMARK    4  A    between atoms: C_6  and  C_7 
REMARK    5  A    between atoms: C_18  and  S_19 
REMARK    6  A    between atoms: S_19  and  C_20 
REMARK    7  A    between atoms: C_20  and  C_21 
ROOT
HETATM    1  C   UNL     1      -7.580   3.514 -32.187  1.00  0.00     0.070 C 
HETATM    2  C   UNL     1      -6.683   3.328 -33.414  1.00  0.00     0.203 C 
HETATM    3  N   UNL     1      -5.361   3.920 -33.190  1.00  0.00    -0.082 N 
HETATM    4  C   UNL     1      -4.883   4.270 -31.959  1.00  0.00     0.726 A 
HETATM    5  N   UNL     1      -5.672   4.101 -30.880  1.00  0.00    -0.192 N 
HETATM    6  N   UNL     1      -4.505   4.261 -34.168  1.00  0.00    -0.128 NA
HETATM    7  C   UNL     1      -3.492   4.764 -33.450  1.00  0.00     0.226 A 
HETATM    8  N   UNL     1      -3.682   4.773 -32.088  1.00  0.00    -0.035 NA
HETATM    9  C   UNL     1      -7.039   3.829 -30.981  1.00  0.00     0.037 C 
HETATM   10  C   UNL     1      -7.803   3.906 -29.681  1.00  0.00     0.070 C 
HETATM   11  H   UNL     1      -5.339   4.456 -29.986  1.00  0.00     0.184 HD
ENDROOT
BRANCH   7  12
HETATM   12  S   UNL     1      -2.077   5.391 -34.242  1.00  0.00    -0.083 SA
BRANCH  12  13
HETATM   13  C   UNL     1      -2.087   7.100 -33.637  1.00  0.00     0.123 C 
BRANCH  13  14
HETATM   14  C   UNL     1      -1.421   7.203 -32.285  1.00  0.00    -0.027 A 
HETATM   15  C   UNL     1      -1.997   7.885 -31.200  1.00  0.00     0.041 A 
HETATM   16 CL   UNL     1      -3.546   8.644 -31.309  1.00  0.00    -0.084 Cl
HETATM   17  C   UNL     1      -1.321   7.978 -29.978  1.00  0.00     0.024 A 
HETATM   18  C   UNL     1      -0.062   7.400 -29.824  1.00  0.00     0.002 A 
HETATM   19  C   UNL     1       0.525   6.727 -30.891  1.00  0.00     0.001 A 
HETATM   20  C   UNL     1      -0.146   6.630 -32.110  1.00  0.00     0.009 A 
ENDBRANCH  13  14
ENDBRANCH  12  13
ENDBRANCH   7  12
BRANCH   2  21
HETATM   21  C   UNL     1      -6.519   1.857 -33.805  1.00  0.00    -0.026 A 
HETATM   22  C   UNL     1      -5.702   1.017 -33.029  1.00  0.00     0.033 A 
HETATM   23  C   UNL     1      -5.525  -0.321 -33.385  1.00  0.00     0.034 A 
HETATM   24 CL   UNL     1      -4.513  -1.333 -32.429  1.00  0.00    -0.084 Cl
HETATM   25  C   UNL     1      -6.157  -0.844 -34.510  1.00  0.00     0.024 A 
HETATM   26  C   UNL     1      -6.974  -0.026 -35.287  1.00  0.00     0.002 A 
HETATM   27  C   UNL     1      -7.156   1.315 -34.938  1.00  0.00     0.010 A 
ENDBRANCH   2  21
BRANCH   1  28
HETATM   28  C   UNL     1      -9.023   3.373 -32.517  1.00  0.00     0.293 C 
HETATM   29  O   UNL     1      -9.664   4.253 -33.072  1.00  0.00    -0.259 OA
BRANCH  28  30
HETATM   30  O   UNL     1      -9.548   2.225 -32.028  1.00  0.00    -0.318 OA
BRANCH  30  31
HETATM   31  C   UNL     1     -10.189   1.369 -32.986  1.00  0.00     0.174 C 
HETATM   32  C   UNL     1      -9.828  -0.084 -32.736  1.00  0.00     0.034 C 
ENDBRANCH  30  31
ENDBRANCH  28  30
ENDBRANCH   1  28
TORSDOF 7
ENDMDL
MODEL 7
REMARK VINA RESULT:      -8.0      3.026      3.970
REMARK  7 active torsions:
REMARK  status: ('A' for Active; 'I' for Inactive)
REMARK    1  A    between atoms: C_2  and  O_3 
REMARK    2  A    between atoms: O_3  and  C_4 
REMARK    3  A    between atoms: C_4  and  C_5 
REMARK    4  A    between atoms: C_6  and  C_7 
REMARK    5  A    between atoms: C_18  and  S_19 
REMARK    6  A    between atoms: S_19  and  C_20 
REMARK    7  A    between atoms: C_20  and  C_21 
ROOT
HETATM    1  C   UNL     1      -2.763   6.304 -32.391  1.00  0.00     0.070 C 
HETATM    2  C   UNL     1      -4.260   6.039 -32.576  1.00  0.00     0.203 C 
HETATM    3  N   UNL     1      -4.525   4.604 -32.706  1.00  0.00    -0.082 N 
HETATM    4  C   UNL     1      -3.629   3.631 -32.362  1.00  0.00     0.726 A 
HETATM    5  N   UNL     1      -2.413   3.993 -31.910  1.00  0.00    -0.192 N 
HETATM    6  N   UNL     1      -5.637   4.082 -33.249  1.00  0.00    -0.128 NA
HETATM    7  C   UNL     1      -5.374   2.773 -33.150  1.00  0.00     0.226 A 
HETATM    8  N   UNL     1      -4.156   2.456 -32.597  1.00  0.00    -0.035 NA
HETATM    9  C   UNL     1      -1.928   5.300 -32.014  1.00  0.00     0.037 C 
HETATM   10  C   UNL     1      -0.468   5.468 -31.673  1.00  0.00     0.070 C 
HETATM   11  H   UNL     1      -1.726   3.260 -31.752  1.00  0.00     0.184 HD
ENDROOT
BRANCH   7  12
HETATM   12  S   UNL     1      -6.513   1.598 -33.739  1.00  0.00    -0.083 SA
BRANCH  12  13
HETATM   13  C   UNL     1      -6.199   0.228 -32.594  1.00  0.00     0.123 C 
BRANCH  13  14
HETATM   14  C   UNL     1      -5.925  -1.056 -33.344  1.00  0.00    -0.027 A 
HETATM   15  C   UNL     1      -4.638  -1.602 -33.477  1.00  0.00     0.041 A 
HETATM   16 CL   UNL     1      -3.248  -0.866 -32.760  1.00  0.00    -0.084 Cl
HETATM   17  C   UNL     1      -4.436  -2.777 -34.211  1.00  0.00     0.024 A 
HETATM   18  C   UNL     1      -5.511  -3.417 -34.826  1.00  0.00     0.002 A 
HETATM   19  C   UNL     1      -6.791  -2.884 -34.710  1.00  0.00     0.001 A 
HETATM   20  C   UNL     1      -6.997  -1.714 -33.978  1.00  0.00     0.009 A 
ENDBRANCH  13  14
ENDBRANCH  12  13
ENDBRANCH   7  12
BRANCH   2  21
HETATM   21  C   UNL     1      -5.104   6.609 -31.433  1.00  0.00    -0.026 A 
HETATM   22  C   UNL     1      -4.973   6.077 -30.139  1.00  0.00     0.033 A 
HETATM   23  C   UNL     1      -5.751   6.571 -29.090  1.00  0.00     0.034 A 
HETATM   24 CL   UNL     1      -5.585   5.901 -27.514  1.00  0.00    -0.084 Cl
HETATM   25  C   UNL     1      -6.665   7.598 -29.309  1.00  0.00     0.024 A 
HETATM   26  C   UNL     1      -6.803   8.140 -30.586  1.00  0.00     0.002 A 
HETATM   27  C   UNL     1      -6.029   7.650 -31.641  1.00  0.00     0.010 A 
ENDBRANCH   2  21
BRANCH   1  28
HETATM   28  C   UNL     1      -2.392   7.704 -32.727  1.00  0.00     0.293 C 
HETATM   29  O   UNL     1      -1.715   7.994 -33.702  1.00  0.00    -0.259 OA
BRANCH  28  30
HETATM   30  O   UNL     1      -2.789   8.579 -31.773  1.00  0.00    -0.318 OA
BRANCH  30  31
HETATM   31  C   UNL     1      -1.898   8.740 -30.659  1.00  0.00     0.174 C 
HETATM   32  C   UNL     1      -2.665   8.725 -29.349  1.00  0.00     0.034 C 
ENDBRANCH  30  31
ENDBRANCH  28  30
ENDBRANCH   1  28
TORSDOF 7
ENDMDL
MODEL 8
REMARK VINA RESULT:      -7.9      1.728      2.265
REMARK  7 active torsions:
REMARK  status: ('A' for Active; 'I' for Inactive)
REMARK    1  A    between atoms: C_2  and  O_3 
REMARK    2  A    between atoms: O_3  and  C_4 
REMARK    3  A    between atoms: C_4  and  C_5 
REMARK    4  A    between atoms: C_6  and  C_7 
REMARK    5  A    between atoms: C_18  and  S_19 
REMARK    6  A    between atoms: S_19  and  C_20 
REMARK    7  A    between atoms: C_20  and  C_21 
ROOT
HETATM    1  C   UNL     1      -5.886   4.597 -31.448  1.00  0.00     0.070 C 
HETATM    2  C   UNL     1      -6.043   3.390 -32.378  1.00  0.00     0.203 C 
HETATM    3  N   UNL     1      -5.444   2.192 -31.785  1.00  0.00    -0.082 N 
HETATM    4  C   UNL     1      -5.113   2.080 -30.465  1.00  0.00     0.726 A 
HETATM    5  N   UNL     1      -5.307   3.136 -29.651  1.00  0.00    -0.192 N 
HETATM    6  N   UNL     1      -5.079   1.100 -32.480  1.00  0.00    -0.128 NA
HETATM    7  C   UNL     1      -4.581   0.335 -31.501  1.00  0.00     0.226 A 
HETATM    8  N   UNL     1      -4.597   0.897 -30.246  1.00  0.00    -0.035 NA
HETATM    9  C   UNL     1      -5.587   4.418 -30.134  1.00  0.00     0.037 C 
HETATM   10  C   UNL     1      -5.539   5.515 -29.098  1.00  0.00     0.070 C 
HETATM   11  H   UNL     1      -4.965   3.070 -28.695  1.00  0.00     0.184 HD
ENDROOT
BRANCH   7  12
HETATM   12  S   UNL     1      -3.928  -1.237 -31.857  1.00  0.00    -0.083 SA
BRANCH  12  13
HETATM   13  C   UNL     1      -4.070  -1.253 -33.664  1.00  0.00     0.123 C 
BRANCH  13  14
HETATM   14  C   UNL     1      -4.812  -2.480 -34.141  1.00  0.00    -0.027 A 
HETATM   15  C   UNL     1      -6.127  -2.434 -34.633  1.00  0.00     0.041 A 
HETATM   16 CL   UNL     1      -7.006  -0.952 -34.768  1.00  0.00    -0.084 Cl
HETATM   17  C   UNL     1      -6.780  -3.606 -35.031  1.00  0.00     0.024 A 
HETATM   18  C   UNL     1      -6.134  -4.839 -34.937  1.00  0.00     0.002 A 
HETATM   19  C   UNL     1      -4.834  -4.902 -34.445  1.00  0.00     0.001 A 
HETATM   20  C   UNL     1      -4.179  -3.736 -34.049  1.00  0.00     0.009 A 
ENDBRANCH  13  14
ENDBRANCH  12  13
ENDBRANCH   7  12
BRANCH   2  21
HETATM   21  C   UNL     1      -7.506   3.105 -32.729  1.00  0.00    -0.026 A 
HETATM   22  C   UNL     1      -8.526   3.532 -31.862  1.00  0.00     0.033 A 
HETATM   23  C   UNL     1      -9.863   3.262 -32.157  1.00  0.00     0.034 A 
HETATM   24 CL   UNL     1     -11.099   3.784 -31.080  1.00  0.00    -0.084 Cl
HETATM   25  C   UNL     1     -10.206   2.567 -33.314  1.00  0.00     0.024 A 
HETATM   26  C   UNL     1      -9.207   2.141 -34.187  1.00  0.00     0.002 A 
HETATM   27  C   UNL     1      -7.866   2.407 -33.898  1.00  0.00     0.010 A 
ENDBRANCH   2  21
BRANCH   1  28
HETATM   28  C   UNL     1      -6.033   5.888 -32.169  1.00  0.00     0.293 C 
HETATM   29  O   UNL     1      -6.907   6.699 -31.904  1.00  0.00    -0.259 OA
BRANCH  28  30
HETATM   30  O   UNL     1      -5.171   5.992 -33.208  1.00  0.00    -0.318 OA
BRANCH  30  31
HETATM   31  C   UNL     1      -3.806   6.279 -32.866  1.00  0.00     0.174 C 
HETATM   32  C   UNL     1      -2.874   5.892 -34.000  1.00  0.00     0.034 C 
ENDBRANCH  30  31
ENDBRANCH  28  30
ENDBRANCH   1  28
TORSDOF 7
ENDMDL
MODEL 9
REMARK VINA RESULT:      -7.7      4.030      5.818
REMARK  7 active torsions:
REMARK  status: ('A' for Active; 'I' for Inactive)
REMARK    1  A    between atoms: C_2  and  O_3 
REMARK    2  A    between atoms: O_3  and  C_4 
REMARK    3  A    between atoms: C_4  and  C_5 
REMARK    4  A    between atoms: C_6  and  C_7 
REMARK    5  A    between atoms: C_18  and  S_19 
REMARK    6  A    between atoms: S_19  and  C_20 
REMARK    7  A    between atoms: C_20  and  C_21 
ROOT
HETATM    1  C   UNL     1     -10.688   5.322 -32.691  1.00  0.00     0.070 C 
HETATM    2  C   UNL     1     -10.319   3.964 -33.295  1.00  0.00     0.203 C 
HETATM    3  N   UNL     1      -9.502   3.181 -32.363  1.00  0.00    -0.082 N 
HETATM    4  C   UNL     1      -9.384   3.465 -31.032  1.00  0.00     0.726 A 
HETATM    5  N   UNL     1     -10.019   4.544 -30.536  1.00  0.00    -0.192 N 
HETATM    6  N   UNL     1      -8.717   2.151 -32.720  1.00  0.00    -0.128 NA
HETATM    7  C   UNL     1      -8.190   1.815 -31.536  1.00  0.00     0.226 A 
HETATM    8  N   UNL     1      -8.588   2.591 -30.472  1.00  0.00    -0.035 NA
HETATM    9  C   UNL     1     -10.580   5.531 -31.352  1.00  0.00     0.037 C 
HETATM   10  C   UNL     1     -11.037   6.774 -30.629  1.00  0.00     0.070 C 
HETATM   11  H   UNL     1      -9.843   4.797 -29.566  1.00  0.00     0.184 HD
ENDROOT
BRANCH   7  12
HETATM   12  S   UNL     1      -7.051   0.507 -31.417  1.00  0.00    -0.083 SA
BRANCH  12  13
HETATM   13  C   UNL     1      -6.258   0.608 -33.045  1.00  0.00     0.123 C 
BRANCH  13  14
HETATM   14  C   UNL     1      -5.953  -0.768 -33.588  1.00  0.00    -0.027 A 
HETATM   15  C   UNL     1      -4.651  -1.294 -33.645  1.00  0.00     0.041 A 
HETATM   16 CL   UNL     1      -3.279  -0.419 -33.063  1.00  0.00    -0.084 Cl
HETATM   17  C   UNL     1      -4.420  -2.563 -34.189  1.00  0.00     0.024 A 
HETATM   18  C   UNL     1      -5.480  -3.319 -34.689  1.00  0.00     0.002 A 
HETATM   19  C   UNL     1      -6.773  -2.809 -34.646  1.00  0.00     0.001 A 
HETATM   20  C   UNL     1      -7.009  -1.546 -34.103  1.00  0.00     0.009 A 
ENDBRANCH  13  14
ENDBRANCH  12  13
ENDBRANCH   7  12
BRANCH   2  21
HETATM   21  C   UNL     1     -11.548   3.147 -33.701  1.00  0.00    -0.026 A 
HETATM   22  C   UNL     1     -12.645   3.058 -32.827  1.00  0.00     0.033 A 
HETATM   23  C   UNL     1     -13.764   2.300 -33.173  1.00  0.00     0.034 A 
HETATM   24 CL   UNL     1     -15.094   2.195 -32.086  1.00  0.00    -0.084 Cl
HETATM   25  C   UNL     1     -13.813   1.623 -34.389  1.00  0.00     0.024 A 
HETATM   26  C   UNL     1     -12.735   1.705 -35.269  1.00  0.00     0.002 A 
HETATM   27  C   UNL     1     -11.611   2.461 -34.930  1.00  0.00     0.010 A 
ENDBRANCH   2  21
BRANCH   1  28
HETATM   28  C   UNL     1     -11.084   6.311 -33.727  1.00  0.00     0.293 C 
HETATM   29  O   UNL     1     -10.272   6.978 -34.351  1.00  0.00    -0.259 OA
BRANCH  28  30
HETATM   30  O   UNL     1     -12.427   6.460 -33.802  1.00  0.00    -0.318 OA
BRANCH  30  31
HETATM   31  C   UNL     1     -12.928   7.047 -35.013  1.00  0.00     0.174 C 
HETATM   32  C   UNL     1     -13.337   5.971 -36.003  1.00  0.00     0.034 C 
ENDBRANCH  30  31
ENDBRANCH  28  30
ENDBRANCH   1  28
TORSDOF 7
ENDMDL
MODEL 10
REMARK VINA RESULT:      -7.7      4.777      6.983
REMARK  7 active torsions:
REMARK  status: ('A' for Active; 'I' for Inactive)
REMARK    1  A    between atoms: C_2  and  O_3 
REMARK    2  A    between atoms: O_3  and  C_4 
REMARK    3  A    between atoms: C_4  and  C_5 
REMARK    4  A    between atoms: C_6  and  C_7 
REMARK    5  A    between atoms: C_18  and  S_19 
REMARK    6  A    between atoms: S_19  and  C_20 
REMARK    7  A    between atoms: C_20  and  C_21 
ROOT
HETATM    1  C   UNL     1     -12.766   2.785 -32.910  1.00  0.00     0.070 C 
HETATM    2  C   UNL     1     -11.347   3.255 -32.579  1.00  0.00     0.203 C 
HETATM    3  N   UNL     1     -10.390   2.152 -32.697  1.00  0.00    -0.082 N 
HETATM    4  C   UNL     1     -10.658   0.978 -33.343  1.00  0.00     0.726 A 
HETATM    5  N   UNL     1     -11.881   0.791 -33.876  1.00  0.00    -0.192 N 
HETATM    6  N   UNL     1      -9.176   2.133 -32.121  1.00  0.00    -0.128 NA
HETATM    7  C   UNL     1      -8.733   0.930 -32.509  1.00  0.00     0.226 A 
HETATM    8  N   UNL     1      -9.610   0.197 -33.273  1.00  0.00    -0.035 NA
HETATM    9  C   UNL     1     -12.966   1.622 -33.585  1.00  0.00     0.037 C 
HETATM   10  C   UNL     1     -14.302   1.126 -34.082  1.00  0.00     0.070 C 
HETATM   11  H   UNL     1     -12.095  -0.124 -34.266  1.00  0.00     0.184 HD
ENDROOT
BRANCH   7  12
HETATM   12  S   UNL     1      -7.165   0.366 -32.012  1.00  0.00    -0.083 SA
BRANCH  12  13
HETATM   13  C   UNL     1      -6.326   0.263 -33.616  1.00  0.00     0.123 C 
BRANCH  13  14
HETATM   14  C   UNL     1      -5.950  -1.164 -33.943  1.00  0.00    -0.027 A 
HETATM   15  C   UNL     1      -4.660  -1.680 -33.732  1.00  0.00     0.041 A 
HETATM   16 CL   UNL     1      -3.391  -0.731 -33.042  1.00  0.00    -0.084 Cl
HETATM   17  C   UNL     1      -4.357  -3.001 -34.083  1.00  0.00     0.024 A 
HETATM   18  C   UNL     1      -5.330  -3.819 -34.655  1.00  0.00     0.002 A 
HETATM   19  C   UNL     1      -6.609  -3.320 -34.878  1.00  0.00     0.001 A 
HETATM   20  C   UNL     1      -6.917  -2.005 -34.527  1.00  0.00     0.009 A 
ENDBRANCH  13  14
ENDBRANCH  12  13
ENDBRANCH   7  12
BRANCH   2  21
HETATM   21  C   UNL     1     -10.891   4.418 -33.464  1.00  0.00    -0.026 A 
HETATM   22  C   UNL     1     -10.596   5.663 -32.881  1.00  0.00     0.033 A 
HETATM   23  C   UNL     1     -10.200   6.739 -33.676  1.00  0.00     0.034 A 
HETATM   24 CL   UNL     1      -9.853   8.258 -32.947  1.00  0.00    -0.084 Cl
HETATM   25  C   UNL     1     -10.089   6.596 -35.057  1.00  0.00     0.024 A 
HETATM   26  C   UNL     1     -10.373   5.368 -35.650  1.00  0.00     0.002 A 
HETATM   27  C   UNL     1     -10.771   4.285 -34.861  1.00  0.00     0.010 A 
ENDBRANCH   2  21
BRANCH   1  28
HETATM   28  C   UNL     1     -13.805   3.696 -32.360  1.00  0.00     0.293 C 
HETATM   29  O   UNL     1     -14.331   4.577 -33.023  1.00  0.00    -0.259 OA
BRANCH  28  30
HETATM   30  O   UNL     1     -13.998   3.507 -31.034  1.00  0.00    -0.318 OA
BRANCH  30  31
HETATM   31  C   UNL     1     -13.289   4.400 -30.162  1.00  0.00     0.174 C 
HETATM   32  C   UNL     1     -14.149   5.599 -29.804  1.00  0.00     0.034 C 
ENDBRANCH  30  31
ENDBRANCH  28  30
ENDBRANCH   1  28
TORSDOF 7
ENDMDL
