MODEL 1
REMARK VINA RESULT:      -8.1      0.000      0.000
REMARK  5 active torsions:
REMARK  status: ('A' for Active; 'I' for Inactive)
REMARK    1  A    between atoms: C_2  and  C_3 
REMARK    2  A    between atoms: C_4  and  N_5 
REMARK       I    between atoms: N_5  and  C_6 
REMARK    3  A    between atoms: C_6  and  C_7 
REMARK    4  A    between atoms: C_10  and  O_11 
REMARK    5  A    between atoms: C_20  and  C_21 
ROOT
HETATM    1  C   UNL     1      -5.423  -0.187 -33.360  1.00  0.00     0.018 A 
HETATM    2  C   UNL     1      -4.467   0.670 -32.845  1.00  0.00     0.133 A 
HETATM    3  N   UNL     1      -3.365  -0.088 -32.594  1.00  0.00    -0.261 N 
HETATM    4  H   UNL     1      -2.489   0.218 -32.178  1.00  0.00     0.191 HD
HETATM    5  N   UNL     1      -3.484  -1.350 -33.003  1.00  0.00    -0.172 NA
HETATM    6  C   UNL     1      -4.735  -1.455 -33.493  1.00  0.00     0.097 A 
ENDROOT
BRANCH   2   7
HETATM    7  N   UNL     1      -4.618   2.035 -32.650  1.00  0.00    -0.307 N 
HETATM    8  C   UNL     1      -3.726   2.774 -31.808  1.00  0.00     0.260 C 
HETATM    9  O   UNL     1      -2.890   2.181 -31.144  1.00  0.00    -0.267 OA
HETATM   10  H   UNL     1      -5.345   2.517 -33.166  1.00  0.00     0.170 HD
BRANCH   8  11
HETATM   11  C   UNL     1      -3.872   4.243 -31.776  1.00  0.00     0.073 A 
HETATM   12  C   UNL     1      -3.045   5.059 -32.551  1.00  0.00     0.165 A 
HETATM   13  F   UNL     1      -2.156   4.487 -33.379  1.00  0.00    -0.202 F 
HETATM   14  C   UNL     1      -3.150   6.450 -32.479  1.00  0.00     0.107 A 
HETATM   15  C   UNL     1      -4.133   7.014 -31.660  1.00  0.00     0.040 A 
HETATM   16  C   UNL     1      -4.966   6.204 -30.884  1.00  0.00     0.004 A 
HETATM   17  C   UNL     1      -4.828   4.818 -30.929  1.00  0.00     0.020 A 
BRANCH  14  18
HETATM   18  O   UNL     1      -2.390   7.352 -33.169  1.00  0.00    -0.353 OA
HETATM   19  C   UNL     1      -1.052   7.529 -32.715  1.00  0.00     0.210 C 
ENDBRANCH  14  18
ENDBRANCH   8  11
ENDBRANCH   2   7
BRANCH   1  20
HETATM   20  C   UNL     1      -6.834   0.186 -33.677  1.00  0.00     0.040 C 
HETATM   21  C   UNL     1      -7.031   0.581 -35.132  1.00  0.00     0.010 C 
ENDBRANCH   1  20
BRANCH   6  22
HETATM   22  C   UNL     1      -5.157  -2.756 -34.059  1.00  0.00    -0.002 A 
HETATM   23  C   UNL     1      -4.285  -3.854 -33.975  1.00  0.00     0.033 A 
HETATM   24  C   UNL     1      -4.656  -5.072 -34.522  1.00  0.00     0.117 A 
HETATM   25  N   UNL     1      -5.832  -5.280 -35.143  1.00  0.00    -0.273 NA
HETATM   26  C   UNL     1      -6.663  -4.224 -35.221  1.00  0.00     0.117 A 
HETATM   27  C   UNL     1      -6.374  -2.965 -34.708  1.00  0.00     0.033 A 
ENDBRANCH   6  22
TORSDOF 5
ENDMDL
MODEL 2
REMARK VINA RESULT:      -7.9      6.404      8.062
REMARK  5 active torsions:
REMARK  status: ('A' for Active; 'I' for Inactive)
REMARK    1  A    between atoms: C_2  and  C_3 
REMARK    2  A    between atoms: C_4  and  N_5 
REMARK       I    between atoms: N_5  and  C_6 
REMARK    3  A    between atoms: C_6  and  C_7 
REMARK    4  A    between atoms: C_10  and  O_11 
REMARK    5  A    between atoms: C_20  and  C_21 
ROOT
HETATM    1  C   UNL     1      -8.410   0.167 -33.011  1.00  0.00     0.018 A 
HETATM    2  C   UNL     1      -9.449   0.835 -33.634  1.00  0.00     0.133 A 
HETATM    3  N   UNL     1      -9.172   0.824 -34.967  1.00  0.00    -0.261 N 
HETATM    4  H   UNL     1      -9.710   1.259 -35.711  1.00  0.00     0.191 HD
HETATM    5  N   UNL     1      -8.091   0.109 -35.277  1.00  0.00    -0.172 NA
HETATM    6  C   UNL     1      -7.594  -0.325 -34.102  1.00  0.00     0.097 A 
ENDROOT
BRANCH   2   7
HETATM    7  N   UNL     1     -10.557   1.384 -33.005  1.00  0.00    -0.307 N 
HETATM    8  C   UNL     1     -11.283   2.474 -33.584  1.00  0.00     0.260 C 
HETATM    9  O   UNL     1     -10.853   3.023 -34.587  1.00  0.00    -0.267 OA
HETATM   10  H   UNL     1     -10.883   0.956 -32.146  1.00  0.00     0.170 HD
BRANCH   8  11
HETATM   11  C   UNL     1     -12.532   2.897 -32.919  1.00  0.00     0.073 A 
HETATM   12  C   UNL     1     -13.720   2.191 -33.120  1.00  0.00     0.165 A 
HETATM   13  F   UNL     1     -13.699   1.081 -33.876  1.00  0.00    -0.202 F 
HETATM   14  C   UNL     1     -14.911   2.623 -32.533  1.00  0.00     0.107 A 
HETATM   15  C   UNL     1     -14.887   3.742 -31.695  1.00  0.00     0.040 A 
HETATM   16  C   UNL     1     -13.702   4.451 -31.486  1.00  0.00     0.004 A 
HETATM   17  C   UNL     1     -12.525   4.039 -32.109  1.00  0.00     0.020 A 
BRANCH  14  18
HETATM   18  O   UNL     1     -16.137   2.033 -32.667  1.00  0.00    -0.353 OA
HETATM   19  C   UNL     1     -17.208   2.631 -31.944  1.00  0.00     0.210 C 
ENDBRANCH  14  18
ENDBRANCH   8  11
ENDBRANCH   2   7
BRANCH   1  20
HETATM   20  C   UNL     1      -8.235   0.032 -31.534  1.00  0.00     0.040 C 
HETATM   21  C   UNL     1      -7.062   0.838 -31.000  1.00  0.00     0.010 C 
ENDBRANCH   1  20
BRANCH   6  22
HETATM   22  C   UNL     1      -6.390  -1.186 -34.129  1.00  0.00    -0.002 A 
HETATM   23  C   UNL     1      -6.479  -2.472 -34.686  1.00  0.00     0.033 A 
HETATM   24  C   UNL     1      -5.366  -3.297 -34.696  1.00  0.00     0.117 A 
HETATM   25  N   UNL     1      -4.169  -2.936 -34.197  1.00  0.00    -0.273 NA
HETATM   26  C   UNL     1      -4.090  -1.702 -33.665  1.00  0.00     0.117 A 
HETATM   27  C   UNL     1      -5.153  -0.809 -33.604  1.00  0.00     0.033 A 
ENDBRANCH   6  22
TORSDOF 5
ENDMDL
MODEL 3
REMARK VINA RESULT:      -7.9      1.730      2.356
REMARK  5 active torsions:
REMARK  status: ('A' for Active; 'I' for Inactive)
REMARK    1  A    between atoms: C_2  and  C_3 
REMARK    2  A    between atoms: C_4  and  N_5 
REMARK       I    between atoms: N_5  and  C_6 
REMARK    3  A    between atoms: C_6  and  C_7 
REMARK    4  A    between atoms: C_10  and  O_11 
REMARK    5  A    between atoms: C_20  and  C_21 
ROOT
HETATM    1  C   UNL     1      -4.552  -0.267 -33.200  1.00  0.00     0.018 A 
HETATM    2  C   UNL     1      -5.215   0.889 -32.830  1.00  0.00     0.133 A 
HETATM    3  N   UNL     1      -6.515   0.724 -33.198  1.00  0.00    -0.261 N 
HETATM    4  H   UNL     1      -7.272   1.397 -33.107  1.00  0.00     0.191 HD
HETATM    5  N   UNL     1      -6.779  -0.490 -33.682  1.00  0.00    -0.172 NA
HETATM    6  C   UNL     1      -5.599  -1.141 -33.691  1.00  0.00     0.097 A 
ENDROOT
BRANCH   2   7
HETATM    7  N   UNL     1      -4.650   1.982 -32.190  1.00  0.00    -0.307 N 
HETATM    8  C   UNL     1      -4.822   3.313 -32.689  1.00  0.00     0.260 C 
HETATM    9  O   UNL     1      -5.367   3.489 -33.768  1.00  0.00    -0.267 OA
HETATM   10  H   UNL     1      -4.155   1.826 -31.319  1.00  0.00     0.170 HD
BRANCH   8  11
HETATM   11  C   UNL     1      -4.310   4.427 -31.866  1.00  0.00     0.073 A 
HETATM   12  C   UNL     1      -2.960   4.781 -31.906  1.00  0.00     0.165 A 
HETATM   13  F   UNL     1      -2.142   4.136 -32.754  1.00  0.00    -0.202 F 
HETATM   14  C   UNL     1      -2.468   5.800 -31.088  1.00  0.00     0.107 A 
HETATM   15  C   UNL     1      -3.358   6.499 -30.266  1.00  0.00     0.040 A 
HETATM   16  C   UNL     1      -4.710   6.153 -30.224  1.00  0.00     0.004 A 
HETATM   17  C   UNL     1      -5.187   5.107 -31.013  1.00  0.00     0.020 A 
BRANCH  14  18
HETATM   18  O   UNL     1      -1.171   6.225 -31.020  1.00  0.00    -0.353 OA
HETATM   19  C   UNL     1      -0.279   5.413 -30.262  1.00  0.00     0.210 C 
ENDBRANCH  14  18
ENDBRANCH   8  11
ENDBRANCH   2   7
BRANCH   1  20
HETATM   20  C   UNL     1      -3.079  -0.489 -33.091  1.00  0.00     0.040 C 
HETATM   21  C   UNL     1      -2.660  -1.040 -31.738  1.00  0.00     0.010 C 
ENDBRANCH   1  20
BRANCH   6  22
HETATM   22  C   UNL     1      -5.580  -2.546 -34.156  1.00  0.00    -0.002 A 
HETATM   23  C   UNL     1      -6.731  -3.084 -34.757  1.00  0.00     0.033 A 
HETATM   24  C   UNL     1      -6.735  -4.405 -35.175  1.00  0.00     0.117 A 
HETATM   25  N   UNL     1      -5.680  -5.230 -35.043  1.00  0.00    -0.273 NA
HETATM   26  C   UNL     1      -4.580  -4.708 -34.466  1.00  0.00     0.117 A 
HETATM   27  C   UNL     1      -4.485  -3.399 -34.011  1.00  0.00     0.033 A 
ENDBRANCH   6  22
TORSDOF 5
ENDMDL
MODEL 4
REMARK VINA RESULT:      -7.8      3.251      3.892
REMARK  5 active torsions:
REMARK  status: ('A' for Active; 'I' for Inactive)
REMARK    1  A    between atoms: C_2  and  C_3 
REMARK    2  A    between atoms: C_4  and  N_5 
REMARK       I    between atoms: N_5  and  C_6 
REMARK    3  A    between atoms: C_6  and  C_7 
REMARK    4  A    between atoms: C_10  and  O_11 
REMARK    5  A    between atoms: C_20  and  C_21 
ROOT
HETATM    1  C   UNL     1      -5.887  -0.034 -32.970  1.00  0.00     0.018 A 
HETATM    2  C   UNL     1      -6.499   1.146 -33.352  1.00  0.00     0.133 A 
HETATM    3  N   UNL     1      -6.902   0.973 -34.641  1.00  0.00    -0.261 N 
HETATM    4  H   UNL     1      -7.355   1.656 -35.242  1.00  0.00     0.191 HD
HETATM    5  N   UNL     1      -6.699  -0.262 -35.098  1.00  0.00    -0.172 NA
HETATM    6  C   UNL     1      -6.084  -0.923 -34.097  1.00  0.00     0.097 A 
ENDROOT
BRANCH   2   7
HETATM    7  N   UNL     1      -6.676   2.267 -32.555  1.00  0.00    -0.307 N 
HETATM    8  C   UNL     1      -7.804   2.394 -31.680  1.00  0.00     0.260 C 
HETATM    9  O   UNL     1      -8.699   1.564 -31.723  1.00  0.00    -0.267 OA
HETATM   10  H   UNL     1      -5.954   2.979 -32.559  1.00  0.00     0.170 HD
BRANCH   8  11
HETATM   11  C   UNL     1      -7.834   3.550 -30.763  1.00  0.00     0.073 A 
HETATM   12  C   UNL     1      -6.762   3.809 -29.907  1.00  0.00     0.165 A 
HETATM   13  F   UNL     1      -5.671   3.029 -29.974  1.00  0.00    -0.202 F 
HETATM   14  C   UNL     1      -6.815   4.873 -29.004  1.00  0.00     0.107 A 
HETATM   15  C   UNL     1      -7.936   5.709 -29.006  1.00  0.00     0.040 A 
HETATM   16  C   UNL     1      -9.011   5.459 -29.862  1.00  0.00     0.004 A 
HETATM   17  C   UNL     1      -8.969   4.371 -30.732  1.00  0.00     0.020 A 
BRANCH  14  18
HETATM   18  O   UNL     1      -5.845   5.217 -28.105  1.00  0.00    -0.353 OA
HETATM   19  C   UNL     1      -5.016   6.319 -28.461  1.00  0.00     0.210 C 
ENDBRANCH  14  18
ENDBRANCH   8  11
ENDBRANCH   2   7
BRANCH   1  20
HETATM   20  C   UNL     1      -5.191  -0.261 -31.668  1.00  0.00     0.040 C 
HETATM   21  C   UNL     1      -3.711   0.085 -31.718  1.00  0.00     0.010 C 
ENDBRANCH   1  20
BRANCH   6  22
HETATM   22  C   UNL     1      -5.753  -2.351 -34.303  1.00  0.00    -0.002 A 
HETATM   23  C   UNL     1      -6.758  -3.231 -34.738  1.00  0.00     0.033 A 
HETATM   24  C   UNL     1      -6.468  -4.574 -34.912  1.00  0.00     0.117 A 
HETATM   25  N   UNL     1      -5.253  -5.108 -34.688  1.00  0.00    -0.273 NA
HETATM   26  C   UNL     1      -4.294  -4.259 -34.271  1.00  0.00     0.117 A 
HETATM   27  C   UNL     1      -4.493  -2.900 -34.063  1.00  0.00     0.033 A 
ENDBRANCH   6  22
TORSDOF 5
ENDMDL
MODEL 5
REMARK VINA RESULT:      -7.7      6.619      9.607
REMARK  5 active torsions:
REMARK  status: ('A' for Active; 'I' for Inactive)
REMARK    1  A    between atoms: C_2  and  C_3 
REMARK    2  A    between atoms: C_4  and  N_5 
REMARK       I    between atoms: N_5  and  C_6 
REMARK    3  A    between atoms: C_6  and  C_7 
REMARK    4  A    between atoms: C_10  and  O_11 
REMARK    5  A    between atoms: C_20  and  C_21 
ROOT
HETATM    1  C   UNL     1      -0.681   6.468 -29.462  1.00  0.00     0.018 A 
HETATM    2  C   UNL     1       0.235   6.038 -28.519  1.00  0.00     0.133 A 
HETATM    3  N   UNL     1       0.815   4.916 -29.028  1.00  0.00    -0.261 N 
HETATM    4  H   UNL     1       1.509   4.324 -28.579  1.00  0.00     0.191 HD
HETATM    5  N   UNL     1       0.431   4.639 -30.273  1.00  0.00    -0.172 NA
HETATM    6  C   UNL     1      -0.485   5.577 -30.587  1.00  0.00     0.097 A 
ENDROOT
BRANCH   2   7
HETATM    7  N   UNL     1       0.508   6.656 -27.308  1.00  0.00    -0.307 N 
HETATM    8  C   UNL     1       1.187   7.915 -27.245  1.00  0.00     0.260 C 
HETATM    9  O   UNL     1       1.652   8.403 -28.264  1.00  0.00    -0.267 OA
HETATM   10  H   UNL     1       0.163   6.223 -26.459  1.00  0.00     0.170 HD
BRANCH   8  11
HETATM   11  C   UNL     1       1.305   8.568 -25.926  1.00  0.00     0.073 A 
HETATM   12  C   UNL     1       0.245   9.309 -25.401  1.00  0.00     0.165 A 
HETATM   13  F   UNL     1      -0.911   9.368 -26.084  1.00  0.00    -0.202 F 
HETATM   14  C   UNL     1       0.376   9.968 -24.177  1.00  0.00     0.107 A 
HETATM   15  C   UNL     1       1.567   9.831 -23.458  1.00  0.00     0.040 A 
HETATM   16  C   UNL     1       2.631   9.088 -23.975  1.00  0.00     0.004 A 
HETATM   17  C   UNL     1       2.507   8.466 -25.216  1.00  0.00     0.020 A 
BRANCH  14  18
HETATM   18  O   UNL     1      -0.576  10.737 -23.569  1.00  0.00    -0.353 OA
HETATM   19  C   UNL     1      -0.257  11.228 -22.270  1.00  0.00     0.210 C 
ENDBRANCH  14  18
ENDBRANCH   8  11
ENDBRANCH   2   7
BRANCH   1  20
HETATM   20  C   UNL     1      -1.633   7.605 -29.282  1.00  0.00     0.040 C 
HETATM   21  C   UNL     1      -3.084   7.157 -29.208  1.00  0.00     0.010 C 
ENDBRANCH   1  20
BRANCH   6  22
HETATM   22  C   UNL     1      -1.080   5.546 -31.942  1.00  0.00    -0.002 A 
HETATM   23  C   UNL     1      -0.865   6.629 -32.810  1.00  0.00     0.033 A 
HETATM   24  C   UNL     1      -1.436   6.624 -34.072  1.00  0.00     0.117 A 
HETATM   25  N   UNL     1      -2.201   5.619 -34.538  1.00  0.00    -0.273 NA
HETATM   26  C   UNL     1      -2.403   4.583 -33.702  1.00  0.00     0.117 A 
HETATM   27  C   UNL     1      -1.877   4.504 -32.418  1.00  0.00     0.033 A 
ENDBRANCH   6  22
TORSDOF 5
ENDMDL
MODEL 6
REMARK VINA RESULT:      -7.6      1.426      1.964
REMARK  5 active torsions:
REMARK  status: ('A' for Active; 'I' for Inactive)
REMARK    1  A    between atoms: C_2  and  C_3 
REMARK    2  A    between atoms: C_4  and  N_5 
REMARK       I    between atoms: N_5  and  C_6 
REMARK    3  A    between atoms: C_6  and  C_7 
REMARK    4  A    between atoms: C_10  and  O_11 
REMARK    5  A    between atoms: C_20  and  C_21 
ROOT
HETATM    1  C   UNL     1      -5.417  -0.152 -33.305  1.00  0.00     0.018 A 
HETATM    2  C   UNL     1      -4.469   0.713 -32.790  1.00  0.00     0.133 A 
HETATM    3  N   UNL     1      -3.356  -0.033 -32.550  1.00  0.00    -0.261 N 
HETATM    4  H   UNL     1      -2.481   0.281 -32.137  1.00  0.00     0.191 HD
HETATM    5  N   UNL     1      -3.462  -1.293 -32.967  1.00  0.00    -0.172 NA
HETATM    6  C   UNL     1      -4.715  -1.411 -33.451  1.00  0.00     0.097 A 
ENDROOT
BRANCH   2   7
HETATM    7  N   UNL     1      -4.635   2.075 -32.586  1.00  0.00    -0.307 N 
HETATM    8  C   UNL     1      -3.708   2.833 -31.800  1.00  0.00     0.260 C 
HETATM    9  O   UNL     1      -2.821   2.257 -31.188  1.00  0.00    -0.267 OA
HETATM   10  H   UNL     1      -5.402   2.542 -33.056  1.00  0.00     0.170 HD
BRANCH   8  11
HETATM   11  C   UNL     1      -3.881   4.299 -31.757  1.00  0.00     0.073 A 
HETATM   12  C   UNL     1      -4.737   4.888 -30.825  1.00  0.00     0.165 A 
HETATM   13  F   UNL     1      -5.352   4.109 -29.921  1.00  0.00    -0.202 F 
HETATM   14  C   UNL     1      -4.939   6.270 -30.820  1.00  0.00     0.107 A 
HETATM   15  C   UNL     1      -4.230   7.062 -31.729  1.00  0.00     0.040 A 
HETATM   16  C   UNL     1      -3.370   6.480 -32.662  1.00  0.00     0.004 A 
HETATM   17  C   UNL     1      -3.204   5.096 -32.688  1.00  0.00     0.020 A 
BRANCH  14  18
HETATM   18  O   UNL     1      -5.761   6.962 -29.975  1.00  0.00    -0.353 OA
HETATM   19  C   UNL     1      -5.542   8.367 -29.891  1.00  0.00     0.210 C 
ENDBRANCH  14  18
ENDBRANCH   8  11
ENDBRANCH   2   7
BRANCH   1  20
HETATM   20  C   UNL     1      -6.834   0.207 -33.612  1.00  0.00     0.040 C 
HETATM   21  C   UNL     1      -7.030   0.681 -35.043  1.00  0.00     0.010 C 
ENDBRANCH   1  20
BRANCH   6  22
HETATM   22  C   UNL     1      -5.123  -2.713 -34.024  1.00  0.00    -0.002 A 
HETATM   23  C   UNL     1      -4.270  -3.821 -33.883  1.00  0.00     0.033 A 
HETATM   24  C   UNL     1      -4.629  -5.040 -34.435  1.00  0.00     0.117 A 
HETATM   25  N   UNL     1      -5.775  -5.241 -35.112  1.00  0.00    -0.273 NA
HETATM   26  C   UNL     1      -6.588  -4.176 -35.243  1.00  0.00     0.117 A 
HETATM   27  C   UNL     1      -6.309  -2.914 -34.731  1.00  0.00     0.033 A 
ENDBRANCH   6  22
TORSDOF 5
ENDMDL
MODEL 7
REMARK VINA RESULT:      -7.3      1.931      2.096
REMARK  5 active torsions:
REMARK  status: ('A' for Active; 'I' for Inactive)
REMARK    1  A    between atoms: C_2  and  C_3 
REMARK    2  A    between atoms: C_4  and  N_5 
REMARK       I    between atoms: N_5  and  C_6 
REMARK    3  A    between atoms: C_6  and  C_7 
REMARK    4  A    between atoms: C_10  and  O_11 
REMARK    5  A    between atoms: C_20  and  C_21 
ROOT
HETATM    1  C   UNL     1      -4.886   0.955 -32.129  1.00  0.00     0.018 A 
HETATM    2  C   UNL     1      -3.840   1.463 -31.381  1.00  0.00     0.133 A 
HETATM    3  N   UNL     1      -2.966   0.437 -31.191  1.00  0.00    -0.261 N 
HETATM    4  H   UNL     1      -2.104   0.454 -30.653  1.00  0.00     0.191 HD
HETATM    5  N   UNL     1      -3.303  -0.673 -31.846  1.00  0.00    -0.172 NA
HETATM    6  C   UNL     1      -4.476  -0.398 -32.449  1.00  0.00     0.097 A 
ENDROOT
BRANCH   2   7
HETATM    7  N   UNL     1      -3.716   2.772 -30.940  1.00  0.00    -0.307 N 
HETATM    8  C   UNL     1      -3.001   3.755 -31.698  1.00  0.00     0.260 C 
HETATM    9  O   UNL     1      -2.378   3.415 -32.692  1.00  0.00    -0.267 OA
HETATM   10  H   UNL     1      -4.195   3.039 -30.087  1.00  0.00     0.170 HD
BRANCH   8  11
HETATM   11  C   UNL     1      -3.045   5.153 -31.225  1.00  0.00     0.073 A 
HETATM   12  C   UNL     1      -1.882   5.800 -30.805  1.00  0.00     0.165 A 
HETATM   13  F   UNL     1      -0.707   5.154 -30.898  1.00  0.00    -0.202 F 
HETATM   14  C   UNL     1      -1.933   7.104 -30.310  1.00  0.00     0.107 A 
HETATM   15  C   UNL     1      -3.160   7.774 -30.291  1.00  0.00     0.040 A 
HETATM   16  C   UNL     1      -4.328   7.135 -30.713  1.00  0.00     0.004 A 
HETATM   17  C   UNL     1      -4.276   5.818 -31.168  1.00  0.00     0.020 A 
BRANCH  14  18
HETATM   18  O   UNL     1      -0.873   7.836 -29.852  1.00  0.00    -0.353 OA
HETATM   19  C   UNL     1      -1.114   8.650 -28.709  1.00  0.00     0.210 C 
ENDBRANCH  14  18
ENDBRANCH   8  11
ENDBRANCH   2   7
BRANCH   1  20
HETATM   20  C   UNL     1      -6.133   1.697 -32.484  1.00  0.00     0.040 C 
HETATM   21  C   UNL     1      -5.983   2.544 -33.738  1.00  0.00     0.010 C 
ENDBRANCH   1  20
BRANCH   6  22
HETATM   22  C   UNL     1      -5.094  -1.448 -33.289  1.00  0.00    -0.002 A 
HETATM   23  C   UNL     1      -4.305  -2.524 -33.730  1.00  0.00     0.033 A 
HETATM   24  C   UNL     1      -4.864  -3.502 -34.536  1.00  0.00     0.117 A 
HETATM   25  N   UNL     1      -6.150  -3.491 -34.934  1.00  0.00    -0.273 NA
HETATM   26  C   UNL     1      -6.901  -2.458 -34.508  1.00  0.00     0.117 A 
HETATM   27  C   UNL     1      -6.426  -1.429 -33.703  1.00  0.00     0.033 A 
ENDBRANCH   6  22
TORSDOF 5
ENDMDL
MODEL 8
REMARK VINA RESULT:      -7.3     16.078     17.923
REMARK  5 active torsions:
REMARK  status: ('A' for Active; 'I' for Inactive)
REMARK    1  A    between atoms: C_2  and  C_3 
REMARK    2  A    between atoms: C_4  and  N_5 
REMARK       I    between atoms: N_5  and  C_6 
REMARK    3  A    between atoms: C_6  and  C_7 
REMARK    4  A    between atoms: C_10  and  O_11 
REMARK    5  A    between atoms: C_20  and  C_21 
ROOT
HETATM    1  C   UNL     1      -4.266 -14.227 -38.238  1.00  0.00     0.018 A 
HETATM    2  C   UNL     1      -5.166 -13.180 -38.158  1.00  0.00     0.133 A 
HETATM    3  N   UNL     1      -4.454 -12.088 -37.766  1.00  0.00    -0.261 N 
HETATM    4  H   UNL     1      -4.811 -11.156 -37.574  1.00  0.00     0.191 HD
HETATM    5  N   UNL     1      -3.143 -12.311 -37.688  1.00  0.00    -0.172 NA
HETATM    6  C   UNL     1      -2.978 -13.616 -37.982  1.00  0.00     0.097 A 
ENDROOT
BRANCH   2   7
HETATM    7  N   UNL     1      -6.521 -13.247 -38.446  1.00  0.00    -0.307 N 
HETATM    8  C   UNL     1      -7.042 -12.807 -39.705  1.00  0.00     0.260 C 
HETATM    9  O   UNL     1      -6.306 -12.243 -40.500  1.00  0.00    -0.267 OA
HETATM   10  H   UNL     1      -7.137 -13.672 -37.762  1.00  0.00     0.170 HD
BRANCH   8  11
HETATM   11  C   UNL     1      -8.473 -13.050 -39.979  1.00  0.00     0.073 A 
HETATM   12  C   UNL     1      -8.932 -14.334 -40.279  1.00  0.00     0.165 A 
HETATM   13  F   UNL     1      -8.066 -15.360 -40.251  1.00  0.00    -0.202 F 
HETATM   14  C   UNL     1     -10.276 -14.553 -40.589  1.00  0.00     0.107 A 
HETATM   15  C   UNL     1     -11.167 -13.477 -40.542  1.00  0.00     0.040 A 
HETATM   16  C   UNL     1     -10.715 -12.190 -40.239  1.00  0.00     0.004 A 
HETATM   17  C   UNL     1      -9.365 -11.971 -39.971  1.00  0.00     0.020 A 
BRANCH  14  18
HETATM   18  O   UNL     1     -10.843 -15.753 -40.916  1.00  0.00    -0.353 OA
HETATM   19  C   UNL     1     -11.639 -15.774 -42.097  1.00  0.00     0.210 C 
ENDBRANCH  14  18
ENDBRANCH   8  11
ENDBRANCH   2   7
BRANCH   1  20
HETATM   20  C   UNL     1      -4.622 -15.649 -38.525  1.00  0.00     0.040 C 
HETATM   21  C   UNL     1      -4.450 -16.020 -39.990  1.00  0.00     0.010 C 
ENDBRANCH   1  20
BRANCH   6  22
HETATM   22  C   UNL     1      -1.601 -14.158 -38.005  1.00  0.00    -0.002 A 
HETATM   23  C   UNL     1      -1.208 -15.073 -37.014  1.00  0.00     0.033 A 
HETATM   24  C   UNL     1       0.085 -15.570 -37.010  1.00  0.00     0.117 A 
HETATM   25  N   UNL     1       1.016 -15.228 -37.921  1.00  0.00    -0.273 NA
HETATM   26  C   UNL     1       0.632 -14.352 -38.869  1.00  0.00     0.117 A 
HETATM   27  C   UNL     1      -0.639 -13.796 -38.949  1.00  0.00     0.033 A 
ENDBRANCH   6  22
TORSDOF 5
ENDMDL
MODEL 9
REMARK VINA RESULT:      -7.3      4.190      8.003
REMARK  5 active torsions:
REMARK  status: ('A' for Active; 'I' for Inactive)
REMARK    1  A    between atoms: C_2  and  C_3 
REMARK    2  A    between atoms: C_4  and  N_5 
REMARK       I    between atoms: N_5  and  C_6 
REMARK    3  A    between atoms: C_6  and  C_7 
REMARK    4  A    between atoms: C_10  and  O_11 
REMARK    5  A    between atoms: C_20  and  C_21 
ROOT
HETATM    1  C   UNL     1      -4.151   3.716 -32.985  1.00  0.00     0.018 A 
HETATM    2  C   UNL     1      -4.684   2.515 -32.552  1.00  0.00     0.133 A 
HETATM    3  N   UNL     1      -3.780   1.981 -31.685  1.00  0.00    -0.261 N 
HETATM    4  H   UNL     1      -3.839   1.085 -31.208  1.00  0.00     0.191 HD
HETATM    5  N   UNL     1      -2.749   2.786 -31.432  1.00  0.00    -0.172 NA
HETATM    6  C   UNL     1      -2.940   3.874 -32.204  1.00  0.00     0.097 A 
ENDROOT
BRANCH   2   7
HETATM    7  N   UNL     1      -5.911   1.988 -32.926  1.00  0.00    -0.307 N 
HETATM    8  C   UNL     1      -7.062   2.096 -32.080  1.00  0.00     0.260 C 
HETATM    9  O   UNL     1      -6.943   2.549 -30.952  1.00  0.00    -0.267 OA
HETATM   10  H   UNL     1      -5.994   1.568 -33.845  1.00  0.00     0.170 HD
BRANCH   8  11
HETATM   11  C   UNL     1      -8.357   1.637 -32.621  1.00  0.00     0.073 A 
HETATM   12  C   UNL     1      -9.082   2.434 -33.508  1.00  0.00     0.165 A 
HETATM   13  F   UNL     1      -8.556   3.600 -33.917  1.00  0.00    -0.202 F 
HETATM   14  C   UNL     1     -10.331   2.020 -33.978  1.00  0.00     0.107 A 
HETATM   15  C   UNL     1     -10.821   0.770 -33.588  1.00  0.00     0.040 A 
HETATM   16  C   UNL     1     -10.099  -0.035 -32.704  1.00  0.00     0.004 A 
HETATM   17  C   UNL     1      -8.873   0.402 -32.207  1.00  0.00     0.020 A 
BRANCH  14  18
HETATM   18  O   UNL     1     -11.143   2.715 -34.830  1.00  0.00    -0.353 OA
HETATM   19  C   UNL     1     -12.310   2.037 -35.283  1.00  0.00     0.210 C 
ENDBRANCH  14  18
ENDBRANCH   8  11
ENDBRANCH   2   7
BRANCH   1  20
HETATM   20  C   UNL     1      -4.748   4.596 -34.034  1.00  0.00     0.040 C 
HETATM   21  C   UNL     1      -5.798   5.547 -33.482  1.00  0.00     0.010 C 
ENDBRANCH   1  20
BRANCH   6  22
HETATM   22  C   UNL     1      -1.955   4.976 -32.115  1.00  0.00    -0.002 A 
HETATM   23  C   UNL     1      -1.087   5.031 -31.012  1.00  0.00     0.033 A 
HETATM   24  C   UNL     1      -0.177   6.069 -30.904  1.00  0.00     0.117 A 
HETATM   25  N   UNL     1      -0.062   7.055 -31.814  1.00  0.00    -0.273 NA
HETATM   26  C   UNL     1      -0.897   6.996 -32.869  1.00  0.00     0.117 A 
HETATM   27  C   UNL     1      -1.845   5.998 -33.058  1.00  0.00     0.033 A 
ENDBRANCH   6  22
TORSDOF 5
ENDMDL
MODEL 10
REMARK VINA RESULT:      -7.3     15.888     17.265
REMARK  5 active torsions:
REMARK  status: ('A' for Active; 'I' for Inactive)
REMARK    1  A    between atoms: C_2  and  C_3 
REMARK    2  A    between atoms: C_4  and  N_5 
REMARK       I    between atoms: N_5  and  C_6 
REMARK    3  A    between atoms: C_6  and  C_7 
REMARK    4  A    between atoms: C_10  and  O_11 
REMARK    5  A    between atoms: C_20  and  C_21 
ROOT
HETATM    1  C   UNL     1      -6.346 -13.867 -39.535  1.00  0.00     0.018 A 
HETATM    2  C   UNL     1      -5.409 -13.555 -38.567  1.00  0.00     0.133 A 
HETATM    3  N   UNL     1      -6.014 -12.689 -37.709  1.00  0.00    -0.261 N 
HETATM    4  H   UNL     1      -5.599 -12.231 -36.901  1.00  0.00     0.191 HD
HETATM    5  N   UNL     1      -7.304 -12.493 -37.976  1.00  0.00    -0.172 NA
HETATM    6  C   UNL     1      -7.557 -13.209 -39.089  1.00  0.00     0.097 A 
ENDROOT
BRANCH   2   7
HETATM    7  N   UNL     1      -4.118 -14.056 -38.493  1.00  0.00    -0.307 N 
HETATM    8  C   UNL     1      -3.058 -13.308 -37.884  1.00  0.00     0.260 C 
HETATM    9  O   UNL     1      -3.256 -12.155 -37.534  1.00  0.00    -0.267 OA
HETATM   10  H   UNL     1      -3.946 -14.996 -38.830  1.00  0.00     0.170 HD
BRANCH   8  11
HETATM   11  C   UNL     1      -1.752 -13.977 -37.719  1.00  0.00     0.073 A 
HETATM   12  C   UNL     1      -0.764 -13.863 -38.698  1.00  0.00     0.165 A 
HETATM   13  F   UNL     1      -0.992 -13.081 -39.767  1.00  0.00    -0.202 F 
HETATM   14  C   UNL     1       0.451 -14.539 -38.564  1.00  0.00     0.107 A 
HETATM   15  C   UNL     1       0.685 -15.290 -37.408  1.00  0.00     0.040 A 
HETATM   16  C   UNL     1      -0.298 -15.406 -36.422  1.00  0.00     0.004 A 
HETATM   17  C   UNL     1      -1.524 -14.762 -36.582  1.00  0.00     0.020 A 
BRANCH  14  18
HETATM   18  O   UNL     1       1.485 -14.524 -39.458  1.00  0.00    -0.353 OA
HETATM   19  C   UNL     1       2.311 -15.684 -39.487  1.00  0.00     0.210 C 
ENDBRANCH  14  18
ENDBRANCH   8  11
ENDBRANCH   2   7
BRANCH   1  20
HETATM   20  C   UNL     1      -6.088 -14.701 -40.747  1.00  0.00     0.040 C 
HETATM   21  C   UNL     1      -5.479 -13.909 -41.893  1.00  0.00     0.010 C 
ENDBRANCH   1  20
BRANCH   6  22
HETATM   22  C   UNL     1      -8.940 -13.212 -39.618  1.00  0.00    -0.002 A 
HETATM   23  C   UNL     1      -9.552 -14.437 -39.929  1.00  0.00     0.033 A 
HETATM   24  C   UNL     1     -10.836 -14.453 -40.448  1.00  0.00     0.117 A 
HETATM   25  N   UNL     1     -11.559 -13.341 -40.677  1.00  0.00    -0.273 NA
HETATM   26  C   UNL     1     -10.967 -12.170 -40.377  1.00  0.00     0.117 A 
HETATM   27  C   UNL     1      -9.682 -12.055 -39.860  1.00  0.00     0.033 A 
ENDBRANCH   6  22
TORSDOF 5
ENDMDL
