MODEL 1
REMARK VINA RESULT:      -7.7      0.000      0.000
REMARK  9 active torsions:
REMARK  status: ('A' for Active; 'I' for Inactive)
REMARK       I    between atoms: N_2  and  C_3 
REMARK    1  A    between atoms: C_3  and  C_4 
REMARK    2  A    between atoms: C_4  and  S_5 
REMARK    3  A    between atoms: S_5  and  C_6 
REMARK    4  A    between atoms: N_7  and  C_8 
REMARK    5  A    between atoms: C_8  and  C_9 
REMARK    6  A    between atoms: C_11  and  C_12 
REMARK    7  A    between atoms: C_12  and  O_13 
REMARK    8  A    between atoms: O_13  and  C_14 
REMARK    9  A    between atoms: C_15  and  C_16 
ROOT
HETATM    1  C   UNL     1      -3.937   3.781 -31.238  1.00  0.00     0.192 A 
HETATM    2  N   UNL     1      -4.863   2.886 -30.775  1.00  0.00    -0.306 N 
HETATM    3  C   UNL     1      -4.293   1.644 -30.972  1.00  0.00     0.155 A 
HETATM    4  N   UNL     1      -3.077   1.808 -31.461  1.00  0.00    -0.132 NA
HETATM    5  N   UNL     1      -2.860   3.150 -31.635  1.00  0.00    -0.123 NA
ENDROOT
BRANCH   3   6
HETATM    6  C   UNL     1      -4.945   0.333 -30.692  1.00  0.00     0.256 C 
BRANCH   6   7
HETATM    7  O   UNL     1      -6.111   0.281 -31.519  1.00  0.00    -0.343 OA
BRANCH   7   8
HETATM    8  C   UNL     1      -5.925  -0.550 -32.596  1.00  0.00     0.080 A 
HETATM    9  C   UNL     1      -6.906  -0.663 -33.601  1.00  0.00     0.007 A 
HETATM   10  C   UNL     1      -6.658  -1.595 -34.632  1.00  0.00     0.015 A 
HETATM   11  C   UNL     1      -5.497  -2.374 -34.658  1.00  0.00     0.001 A 
HETATM   12  C   UNL     1      -4.556  -2.253 -33.643  1.00  0.00     0.003 A 
HETATM   13  C   UNL     1      -4.774  -1.351 -32.605  1.00  0.00     0.037 A 
BRANCH   9  14
HETATM   14  C   UNL     1      -8.161   0.126 -33.625  1.00  0.00    -0.023 A 
HETATM   15  C   UNL     1      -8.238   1.343 -34.332  1.00  0.00     0.012 A 
HETATM   16  C   UNL     1      -9.428   2.075 -34.404  1.00  0.00     0.001 A 
HETATM   17  C   UNL     1     -10.569   1.610 -33.759  1.00  0.00     0.000 A 
HETATM   18  C   UNL     1     -10.518   0.417 -33.044  1.00  0.00     0.001 A 
HETATM   19  C   UNL     1      -9.330  -0.318 -32.983  1.00  0.00     0.012 A 
ENDBRANCH   9  14
ENDBRANCH   7   8
ENDBRANCH   6   7
ENDBRANCH   3   6
BRANCH   2  20
HETATM   20  C   UNL     1      -6.108   3.180 -30.088  1.00  0.00     0.159 C 
BRANCH  20  21
HETATM   21  C   UNL     1      -7.327   3.353 -30.950  1.00  0.00    -0.017 C 
HETATM   22  C   UNL     1      -8.525   2.770 -30.818  1.00  0.00     0.008 C 
ENDBRANCH  20  21
ENDBRANCH   2  20
BRANCH   1  23
HETATM   23  S   UNL     1      -4.128   5.495 -31.291  1.00  0.00    -0.081 SA
BRANCH  23  24
HETATM   24  C   UNL     1      -4.776   5.710 -32.967  1.00  0.00     0.185 C 
BRANCH  24  25
HETATM   25  C   UNL     1      -3.827   5.420 -34.120  1.00  0.00     0.226 C 
HETATM   26  N   UNL     1      -2.483   5.342 -33.859  1.00  0.00    -0.365 N 
HETATM   27  C   UNL     1      -1.513   5.257 -34.920  1.00  0.00     0.149 C 
HETATM   28  H   UNL     1      -2.148   5.679 -32.958  1.00  0.00     0.161 HD
HETATM   29  O   UNL     1      -4.276   5.314 -35.264  1.00  0.00    -0.273 OA
ENDBRANCH  24  25
ENDBRANCH  23  24
ENDBRANCH   1  23
TORSDOF 9
ENDMDL
MODEL 2
REMARK VINA RESULT:      -7.7      2.053      2.327
REMARK  9 active torsions:
REMARK  status: ('A' for Active; 'I' for Inactive)
REMARK       I    between atoms: N_2  and  C_3 
REMARK    1  A    between atoms: C_3  and  C_4 
REMARK    2  A    between atoms: C_4  and  S_5 
REMARK    3  A    between atoms: S_5  and  C_6 
REMARK    4  A    between atoms: N_7  and  C_8 
REMARK    5  A    between atoms: C_8  and  C_9 
REMARK    6  A    between atoms: C_11  and  C_12 
REMARK    7  A    between atoms: C_12  and  O_13 
REMARK    8  A    between atoms: O_13  and  C_14 
REMARK    9  A    between atoms: C_15  and  C_16 
ROOT
HETATM    1  C   UNL     1      -3.800   3.315 -31.290  1.00  0.00     0.192 A 
HETATM    2  N   UNL     1      -4.779   2.404 -31.579  1.00  0.00    -0.306 N 
HETATM    3  C   UNL     1      -4.127   1.190 -31.666  1.00  0.00     0.155 A 
HETATM    4  N   UNL     1      -2.851   1.373 -31.380  1.00  0.00    -0.132 NA
HETATM    5  N   UNL     1      -2.647   2.709 -31.152  1.00  0.00    -0.123 NA
ENDROOT
BRANCH   3   6
HETATM    6  C   UNL     1      -4.755  -0.110 -32.036  1.00  0.00     0.256 C 
BRANCH   6   7
HETATM    7  O   UNL     1      -4.890  -0.099 -33.460  1.00  0.00    -0.343 OA
BRANCH   7   8
HETATM    8  C   UNL     1      -5.332  -1.310 -33.931  1.00  0.00     0.080 A 
HETATM    9  C   UNL     1      -6.708  -1.560 -34.107  1.00  0.00     0.007 A 
HETATM   10  C   UNL     1      -7.072  -2.858 -34.527  1.00  0.00     0.015 A 
HETATM   11  C   UNL     1      -6.117  -3.853 -34.758  1.00  0.00     0.001 A 
HETATM   12  C   UNL     1      -4.768  -3.582 -34.559  1.00  0.00     0.003 A 
HETATM   13  C   UNL     1      -4.376  -2.316 -34.134  1.00  0.00     0.037 A 
BRANCH   9  14
HETATM   14  C   UNL     1      -7.769  -0.552 -33.870  1.00  0.00    -0.023 A 
HETATM   15  C   UNL     1      -8.240   0.264 -34.918  1.00  0.00     0.012 A 
HETATM   16  C   UNL     1      -9.273   1.186 -34.722  1.00  0.00     0.001 A 
HETATM   17  C   UNL     1      -9.854   1.321 -33.465  1.00  0.00     0.000 A 
HETATM   18  C   UNL     1      -9.401   0.535 -32.409  1.00  0.00     0.001 A 
HETATM   19  C   UNL     1      -8.375  -0.394 -32.611  1.00  0.00     0.012 A 
ENDBRANCH   9  14
ENDBRANCH   7   8
ENDBRANCH   6   7
ENDBRANCH   3   6
BRANCH   2  20
HETATM   20  C   UNL     1      -6.212   2.635 -31.633  1.00  0.00     0.159 C 
BRANCH  20  21
HETATM   21  C   UNL     1      -6.745   3.259 -32.892  1.00  0.00    -0.017 C 
HETATM   22  C   UNL     1      -6.211   3.235 -34.120  1.00  0.00     0.008 C 
ENDBRANCH  20  21
ENDBRANCH   2  20
BRANCH   1  23
HETATM   23  S   UNL     1      -4.025   5.017 -31.114  1.00  0.00    -0.081 SA
BRANCH  23  24
HETATM   24  C   UNL     1      -2.620   5.642 -32.069  1.00  0.00     0.185 C 
BRANCH  24  25
HETATM   25  C   UNL     1      -1.383   6.061 -31.289  1.00  0.00     0.226 C 
HETATM   26  N   UNL     1      -0.920   5.232 -30.299  1.00  0.00    -0.365 N 
HETATM   27  C   UNL     1       0.126   5.645 -29.399  1.00  0.00     0.149 C 
HETATM   28  H   UNL     1      -1.526   4.478 -29.982  1.00  0.00     0.161 HD
HETATM   29  O   UNL     1      -0.857   7.152 -31.525  1.00  0.00    -0.273 OA
ENDBRANCH  24  25
ENDBRANCH  23  24
ENDBRANCH   1  23
TORSDOF 9
ENDMDL
MODEL 3
REMARK VINA RESULT:      -7.5      1.964      3.865
REMARK  9 active torsions:
REMARK  status: ('A' for Active; 'I' for Inactive)
REMARK       I    between atoms: N_2  and  C_3 
REMARK    1  A    between atoms: C_3  and  C_4 
REMARK    2  A    between atoms: C_4  and  S_5 
REMARK    3  A    between atoms: S_5  and  C_6 
REMARK    4  A    between atoms: N_7  and  C_8 
REMARK    5  A    between atoms: C_8  and  C_9 
REMARK    6  A    between atoms: C_11  and  C_12 
REMARK    7  A    between atoms: C_12  and  O_13 
REMARK    8  A    between atoms: O_13  and  C_14 
REMARK    9  A    between atoms: C_15  and  C_16 
ROOT
HETATM    1  C   UNL     1      -3.595   2.638 -31.862  1.00  0.00     0.192 A 
HETATM    2  N   UNL     1      -4.916   2.703 -31.514  1.00  0.00    -0.306 N 
HETATM    3  C   UNL     1      -5.171   1.522 -30.845  1.00  0.00     0.155 A 
HETATM    4  N   UNL     1      -4.046   0.836 -30.752  1.00  0.00    -0.132 NA
HETATM    5  N   UNL     1      -3.060   1.535 -31.399  1.00  0.00    -0.123 NA
ENDROOT
BRANCH   3   6
HETATM    6  C   UNL     1      -6.498   1.084 -30.326  1.00  0.00     0.256 C 
BRANCH   6   7
HETATM    7  O   UNL     1      -6.885  -0.043 -31.117  1.00  0.00    -0.343 OA
BRANCH   7   8
HETATM    8  C   UNL     1      -7.792   0.311 -32.084  1.00  0.00     0.080 A 
HETATM    9  C   UNL     1      -7.676  -0.179 -33.400  1.00  0.00     0.007 A 
HETATM   10  C   UNL     1      -8.613   0.297 -34.343  1.00  0.00     0.015 A 
HETATM   11  C   UNL     1      -9.610   1.213 -33.994  1.00  0.00     0.001 A 
HETATM   12  C   UNL     1      -9.688   1.692 -32.691  1.00  0.00     0.003 A 
HETATM   13  C   UNL     1      -8.773   1.252 -31.740  1.00  0.00     0.037 A 
BRANCH   9  14
HETATM   14  C   UNL     1      -6.637  -1.143 -33.836  1.00  0.00    -0.023 A 
HETATM   15  C   UNL     1      -5.268  -0.863 -33.655  1.00  0.00     0.012 A 
HETATM   16  C   UNL     1      -4.277  -1.781 -34.017  1.00  0.00     0.001 A 
HETATM   17  C   UNL     1      -4.635  -3.002 -34.580  1.00  0.00     0.000 A 
HETATM   18  C   UNL     1      -5.979  -3.300 -34.780  1.00  0.00     0.001 A 
HETATM   19  C   UNL     1      -6.968  -2.383 -34.407  1.00  0.00     0.012 A 
ENDBRANCH   9  14
ENDBRANCH   7   8
ENDBRANCH   6   7
ENDBRANCH   3   6
BRANCH   2  20
HETATM   20  C   UNL     1      -5.818   3.830 -31.676  1.00  0.00     0.159 C 
BRANCH  20  21
HETATM   21  C   UNL     1      -6.518   3.945 -33.000  1.00  0.00    -0.017 C 
HETATM   22  C   UNL     1      -6.354   3.189 -34.093  1.00  0.00     0.008 C 
ENDBRANCH  20  21
ENDBRANCH   2  20
BRANCH   1  23
HETATM   23  S   UNL     1      -2.730   3.825 -32.767  1.00  0.00    -0.081 SA
BRANCH  23  24
HETATM   24  C   UNL     1      -1.905   4.729 -31.434  1.00  0.00     0.185 C 
BRANCH  24  25
HETATM   25  C   UNL     1      -2.576   6.002 -30.941  1.00  0.00     0.226 C 
HETATM   26  N   UNL     1      -2.376   6.388 -29.640  1.00  0.00    -0.365 N 
HETATM   27  C   UNL     1      -3.122   7.470 -29.052  1.00  0.00     0.149 C 
HETATM   28  H   UNL     1      -1.961   5.716 -28.998  1.00  0.00     0.161 HD
HETATM   29  O   UNL     1      -3.323   6.626 -31.699  1.00  0.00    -0.273 OA
ENDBRANCH  24  25
ENDBRANCH  23  24
ENDBRANCH   1  23
TORSDOF 9
ENDMDL
MODEL 4
REMARK VINA RESULT:      -7.4      3.534      8.020
REMARK  9 active torsions:
REMARK  status: ('A' for Active; 'I' for Inactive)
REMARK       I    between atoms: N_2  and  C_3 
REMARK    1  A    between atoms: C_3  and  C_4 
REMARK    2  A    between atoms: C_4  and  S_5 
REMARK    3  A    between atoms: S_5  and  C_6 
REMARK    4  A    between atoms: N_7  and  C_8 
REMARK    5  A    between atoms: C_8  and  C_9 
REMARK    6  A    between atoms: C_11  and  C_12 
REMARK    7  A    between atoms: C_12  and  O_13 
REMARK    8  A    between atoms: O_13  and  C_14 
REMARK    9  A    between atoms: C_15  and  C_16 
ROOT
HETATM    1  C   UNL     1      -5.074   0.548 -31.997  1.00  0.00     0.192 A 
HETATM    2  N   UNL     1      -5.133   1.913 -31.932  1.00  0.00    -0.306 N 
HETATM    3  C   UNL     1      -3.874   2.309 -31.526  1.00  0.00     0.155 A 
HETATM    4  N   UNL     1      -3.107   1.238 -31.422  1.00  0.00    -0.132 NA
HETATM    5  N   UNL     1      -3.865   0.134 -31.710  1.00  0.00    -0.123 NA
ENDROOT
BRANCH   3   6
HETATM    6  C   UNL     1      -3.452   3.709 -31.237  1.00  0.00     0.256 C 
BRANCH   6   7
HETATM    7  O   UNL     1      -2.035   3.749 -31.430  1.00  0.00    -0.343 OA
BRANCH   7   8
HETATM    8  C   UNL     1      -1.674   4.765 -32.278  1.00  0.00     0.080 A 
HETATM    9  C   UNL     1      -1.104   5.955 -31.782  1.00  0.00     0.007 A 
HETATM   10  C   UNL     1      -0.830   6.971 -32.722  1.00  0.00     0.015 A 
HETATM   11  C   UNL     1      -1.111   6.812 -34.083  1.00  0.00     0.001 A 
HETATM   12  C   UNL     1      -1.689   5.634 -34.540  1.00  0.00     0.003 A 
HETATM   13  C   UNL     1      -1.982   4.616 -33.638  1.00  0.00     0.037 A 
BRANCH   9  14
HETATM   14  C   UNL     1      -0.792   6.189 -30.351  1.00  0.00    -0.023 A 
HETATM   15  C   UNL     1      -1.654   6.951 -29.538  1.00  0.00     0.012 A 
HETATM   16  C   UNL     1      -1.398   7.142 -28.176  1.00  0.00     0.001 A 
HETATM   17  C   UNL     1      -0.264   6.581 -27.597  1.00  0.00     0.000 A 
HETATM   18  C   UNL     1       0.610   5.833 -28.380  1.00  0.00     0.001 A 
HETATM   19  C   UNL     1       0.346   5.635 -29.740  1.00  0.00     0.012 A 
ENDBRANCH   9  14
ENDBRANCH   7   8
ENDBRANCH   6   7
ENDBRANCH   3   6
BRANCH   2  20
HETATM   20  C   UNL     1      -6.230   2.771 -32.347  1.00  0.00     0.159 C 
BRANCH  20  21
HETATM   21  C   UNL     1      -6.213   3.241 -33.774  1.00  0.00    -0.017 C 
HETATM   22  C   UNL     1      -5.534   4.268 -34.300  1.00  0.00     0.008 C 
ENDBRANCH  20  21
ENDBRANCH   2  20
BRANCH   1  23
HETATM   23  S   UNL     1      -6.382  -0.500 -32.406  1.00  0.00    -0.081 SA
BRANCH  23  24
HETATM   24  C   UNL     1      -6.008  -0.844 -34.143  1.00  0.00     0.185 C 
BRANCH  24  25
HETATM   25  C   UNL     1      -5.643  -2.276 -34.503  1.00  0.00     0.226 C 
HETATM   26  N   UNL     1      -6.637  -3.119 -34.929  1.00  0.00    -0.365 N 
HETATM   27  C   UNL     1      -6.405  -4.529 -35.108  1.00  0.00     0.149 C 
HETATM   28  H   UNL     1      -7.604  -2.828 -34.796  1.00  0.00     0.161 HD
HETATM   29  O   UNL     1      -4.480  -2.661 -34.356  1.00  0.00    -0.273 OA
ENDBRANCH  24  25
ENDBRANCH  23  24
ENDBRANCH   1  23
TORSDOF 9
ENDMDL
MODEL 5
REMARK VINA RESULT:      -7.3      1.347      2.087
REMARK  9 active torsions:
REMARK  status: ('A' for Active; 'I' for Inactive)
REMARK       I    between atoms: N_2  and  C_3 
REMARK    1  A    between atoms: C_3  and  C_4 
REMARK    2  A    between atoms: C_4  and  S_5 
REMARK    3  A    between atoms: S_5  and  C_6 
REMARK    4  A    between atoms: N_7  and  C_8 
REMARK    5  A    between atoms: C_8  and  C_9 
REMARK    6  A    between atoms: C_11  and  C_12 
REMARK    7  A    between atoms: C_12  and  O_13 
REMARK    8  A    between atoms: O_13  and  C_14 
REMARK    9  A    between atoms: C_15  and  C_16 
ROOT
HETATM    1  C   UNL     1      -4.288   3.851 -31.277  1.00  0.00     0.192 A 
HETATM    2  N   UNL     1      -4.981   2.743 -30.874  1.00  0.00    -0.306 N 
HETATM    3  C   UNL     1      -4.154   1.675 -31.165  1.00  0.00     0.155 A 
HETATM    4  N   UNL     1      -3.018   2.140 -31.651  1.00  0.00    -0.132 NA
HETATM    5  N   UNL     1      -3.107   3.505 -31.728  1.00  0.00    -0.123 NA
ENDROOT
BRANCH   3   6
HETATM    6  C   UNL     1      -4.493   0.236 -30.978  1.00  0.00     0.256 C 
BRANCH   6   7
HETATM    7  O   UNL     1      -5.732   0.024 -31.660  1.00  0.00    -0.343 OA
BRANCH   7   8
HETATM    8  C   UNL     1      -5.581  -0.840 -32.716  1.00  0.00     0.080 A 
HETATM    9  C   UNL     1      -6.595  -0.983 -33.684  1.00  0.00     0.007 A 
HETATM   10  C   UNL     1      -6.381  -1.947 -34.694  1.00  0.00     0.015 A 
HETATM   11  C   UNL     1      -5.220  -2.725 -34.736  1.00  0.00     0.001 A 
HETATM   12  C   UNL     1      -4.245  -2.573 -33.756  1.00  0.00     0.003 A 
HETATM   13  C   UNL     1      -4.430  -1.640 -32.740  1.00  0.00     0.037 A 
BRANCH   9  14
HETATM   14  C   UNL     1      -7.852  -0.196 -33.690  1.00  0.00    -0.023 A 
HETATM   15  C   UNL     1      -8.931  -0.548 -32.855  1.00  0.00     0.012 A 
HETATM   16  C   UNL     1     -10.104   0.211 -32.814  1.00  0.00     0.001 A 
HETATM   17  C   UNL     1     -10.230   1.339 -33.619  1.00  0.00     0.000 A 
HETATM   18  C   UNL     1      -9.184   1.703 -34.462  1.00  0.00     0.001 A 
HETATM   19  C   UNL     1      -8.007   0.947 -34.492  1.00  0.00     0.012 A 
ENDBRANCH   9  14
ENDBRANCH   7   8
ENDBRANCH   6   7
ENDBRANCH   3   6
BRANCH   2  20
HETATM   20  C   UNL     1      -6.244   2.703 -30.158  1.00  0.00     0.159 C 
BRANCH  20  21
HETATM   21  C   UNL     1      -7.490   2.657 -30.995  1.00  0.00    -0.017 C 
HETATM   22  C   UNL     1      -8.628   3.345 -30.827  1.00  0.00     0.008 C 
ENDBRANCH  20  21
ENDBRANCH   2  20
BRANCH   1  23
HETATM   23  S   UNL     1      -4.855   5.479 -31.203  1.00  0.00    -0.081 SA
BRANCH  23  24
HETATM   24  C   UNL     1      -5.134   5.819 -32.959  1.00  0.00     0.185 C 
BRANCH  24  25
HETATM   25  C   UNL     1      -6.368   5.198 -33.597  1.00  0.00     0.226 C 
HETATM   26  N   UNL     1      -7.546   5.899 -33.563  1.00  0.00    -0.365 N 
HETATM   27  C   UNL     1      -8.790   5.302 -33.977  1.00  0.00     0.149 C 
HETATM   28  H   UNL     1      -7.609   6.704 -32.943  1.00  0.00     0.161 HD
HETATM   29  O   UNL     1      -6.296   4.066 -34.081  1.00  0.00    -0.273 OA
ENDBRANCH  24  25
ENDBRANCH  23  24
ENDBRANCH   1  23
TORSDOF 9
ENDMDL
MODEL 6
REMARK VINA RESULT:      -7.1      2.570      4.629
REMARK  9 active torsions:
REMARK  status: ('A' for Active; 'I' for Inactive)
REMARK       I    between atoms: N_2  and  C_3 
REMARK    1  A    between atoms: C_3  and  C_4 
REMARK    2  A    between atoms: C_4  and  S_5 
REMARK    3  A    between atoms: S_5  and  C_6 
REMARK    4  A    between atoms: N_7  and  C_8 
REMARK    5  A    between atoms: C_8  and  C_9 
REMARK    6  A    between atoms: C_11  and  C_12 
REMARK    7  A    between atoms: C_12  and  O_13 
REMARK    8  A    between atoms: O_13  and  C_14 
REMARK    9  A    between atoms: C_15  and  C_16 
ROOT
HETATM    1  C   UNL     1      -3.304   5.617 -33.094  1.00  0.00     0.192 A 
HETATM    2  N   UNL     1      -4.483   4.993 -32.789  1.00  0.00    -0.306 N 
HETATM    3  C   UNL     1      -5.042   4.664 -34.008  1.00  0.00     0.155 A 
HETATM    4  N   UNL     1      -4.206   5.019 -34.967  1.00  0.00    -0.132 NA
HETATM    5  N   UNL     1      -3.121   5.625 -34.391  1.00  0.00    -0.123 NA
ENDROOT
BRANCH   3   6
HETATM    6  C   UNL     1      -6.374   4.028 -34.211  1.00  0.00     0.256 C 
BRANCH   6   7
HETATM    7  O   UNL     1      -6.196   2.633 -33.951  1.00  0.00    -0.343 OA
BRANCH   7   8
HETATM    8  C   UNL     1      -7.200   2.139 -33.155  1.00  0.00     0.080 A 
HETATM    9  C   UNL     1      -7.304   0.758 -32.893  1.00  0.00     0.007 A 
HETATM   10  C   UNL     1      -8.410   0.337 -32.123  1.00  0.00     0.015 A 
HETATM   11  C   UNL     1      -9.361   1.242 -31.642  1.00  0.00     0.001 A 
HETATM   12  C   UNL     1      -9.242   2.596 -31.932  1.00  0.00     0.003 A 
HETATM   13  C   UNL     1      -8.169   3.044 -32.698  1.00  0.00     0.037 A 
BRANCH   9  14
HETATM   14  C   UNL     1      -6.335  -0.252 -33.381  1.00  0.00    -0.023 A 
HETATM   15  C   UNL     1      -5.006  -0.266 -32.913  1.00  0.00     0.012 A 
HETATM   16  C   UNL     1      -4.093  -1.241 -33.328  1.00  0.00     0.001 A 
HETATM   17  C   UNL     1      -4.488  -2.222 -34.232  1.00  0.00     0.000 A 
HETATM   18  C   UNL     1      -5.792  -2.225 -34.719  1.00  0.00     0.001 A 
HETATM   19  C   UNL     1      -6.705  -1.255 -34.294  1.00  0.00     0.012 A 
ENDBRANCH   9  14
ENDBRANCH   7   8
ENDBRANCH   6   7
ENDBRANCH   3   6
BRANCH   2  20
HETATM   20  C   UNL     1      -4.969   4.619 -31.472  1.00  0.00     0.159 C 
BRANCH  20  21
HETATM   21  C   UNL     1      -4.537   3.278 -30.951  1.00  0.00    -0.017 C 
HETATM   22  C   UNL     1      -5.247   2.399 -30.233  1.00  0.00     0.008 C 
ENDBRANCH  20  21
ENDBRANCH   2  20
BRANCH   1  23
HETATM   23  S   UNL     1      -2.197   6.294 -31.957  1.00  0.00    -0.081 SA
BRANCH  23  24
HETATM   24  C   UNL     1      -1.113   4.876 -31.658  1.00  0.00     0.185 C 
BRANCH  24  25
HETATM   25  C   UNL     1      -0.153   4.973 -30.482  1.00  0.00     0.226 C 
HETATM   26  N   UNL     1      -0.544   5.678 -29.373  1.00  0.00    -0.365 N 
HETATM   27  C   UNL     1       0.376   5.971 -28.303  1.00  0.00     0.149 C 
HETATM   28  H   UNL     1      -1.363   6.278 -29.449  1.00  0.00     0.161 HD
HETATM   29  O   UNL     1       0.968   4.465 -30.570  1.00  0.00    -0.273 OA
ENDBRANCH  24  25
ENDBRANCH  23  24
ENDBRANCH   1  23
TORSDOF 9
ENDMDL
MODEL 7
REMARK VINA RESULT:      -7.1      3.647      6.352
REMARK  9 active torsions:
REMARK  status: ('A' for Active; 'I' for Inactive)
REMARK       I    between atoms: N_2  and  C_3 
REMARK    1  A    between atoms: C_3  and  C_4 
REMARK    2  A    between atoms: C_4  and  S_5 
REMARK    3  A    between atoms: S_5  and  C_6 
REMARK    4  A    between atoms: N_7  and  C_8 
REMARK    5  A    between atoms: C_8  and  C_9 
REMARK    6  A    between atoms: C_11  and  C_12 
REMARK    7  A    between atoms: C_12  and  O_13 
REMARK    8  A    between atoms: O_13  and  C_14 
REMARK    9  A    between atoms: C_15  and  C_16 
ROOT
HETATM    1  C   UNL     1      -9.664   3.495 -33.715  1.00  0.00     0.192 A 
HETATM    2  N   UNL     1      -9.831   2.241 -34.235  1.00  0.00    -0.306 N 
HETATM    3  C   UNL     1      -8.584   1.651 -34.159  1.00  0.00     0.155 A 
HETATM    4  N   UNL     1      -7.753   2.491 -33.569  1.00  0.00    -0.132 NA
HETATM    5  N   UNL     1      -8.431   3.650 -33.299  1.00  0.00    -0.123 NA
ENDROOT
BRANCH   3   6
HETATM    6  C   UNL     1      -8.230   0.297 -34.672  1.00  0.00     0.256 C 
BRANCH   6   7
HETATM    7  O   UNL     1      -7.958  -0.509 -33.522  1.00  0.00    -0.343 OA
BRANCH   7   8
HETATM    8  C   UNL     1      -6.839  -1.282 -33.705  1.00  0.00     0.080 A 
HETATM    9  C   UNL     1      -5.636  -0.986 -33.033  1.00  0.00     0.007 A 
HETATM   10  C   UNL     1      -4.519  -1.794 -33.339  1.00  0.00     0.015 A 
HETATM   11  C   UNL     1      -4.596  -2.839 -34.265  1.00  0.00     0.001 A 
HETATM   12  C   UNL     1      -5.793  -3.095 -34.926  1.00  0.00     0.003 A 
HETATM   13  C   UNL     1      -6.910  -2.310 -34.656  1.00  0.00     0.037 A 
BRANCH   9  14
HETATM   14  C   UNL     1      -5.487   0.112 -32.048  1.00  0.00    -0.023 A 
HETATM   15  C   UNL     1      -4.702   1.245 -32.341  1.00  0.00     0.012 A 
HETATM   16  C   UNL     1      -4.589   2.311 -31.442  1.00  0.00     0.001 A 
HETATM   17  C   UNL     1      -5.253   2.262 -30.221  1.00  0.00     0.000 A 
HETATM   18  C   UNL     1      -6.026   1.150 -29.901  1.00  0.00     0.001 A 
HETATM   19  C   UNL     1      -6.145   0.090 -30.807  1.00  0.00     0.012 A 
ENDBRANCH   9  14
ENDBRANCH   7   8
ENDBRANCH   6   7
ENDBRANCH   3   6
BRANCH   2  20
HETATM   20  C   UNL     1     -11.076   1.611 -34.639  1.00  0.00     0.159 C 
BRANCH  20  21
HETATM   21  C   UNL     1     -11.734   0.716 -33.628  1.00  0.00    -0.017 C 
HETATM   22  C   UNL     1     -12.900   0.064 -33.732  1.00  0.00     0.008 C 
ENDBRANCH  20  21
ENDBRANCH   2  20
BRANCH   1  23
HETATM   23  S   UNL     1     -10.883   4.711 -33.599  1.00  0.00    -0.081 SA
BRANCH  23  24
HETATM   24  C   UNL     1     -11.787   4.142 -32.138  1.00  0.00     0.185 C 
BRANCH  24  25
HETATM   25  C   UNL     1     -13.276   3.878 -32.304  1.00  0.00     0.226 C 
HETATM   26  N   UNL     1     -13.841   2.841 -31.607  1.00  0.00    -0.365 N 
HETATM   27  C   UNL     1     -15.194   2.416 -31.853  1.00  0.00     0.149 C 
HETATM   28  H   UNL     1     -13.220   2.163 -31.169  1.00  0.00     0.161 HD
HETATM   29  O   UNL     1     -13.929   4.564 -33.095  1.00  0.00    -0.273 OA
ENDBRANCH  24  25
ENDBRANCH  23  24
ENDBRANCH   1  23
TORSDOF 9
ENDMDL
MODEL 8
REMARK VINA RESULT:      -7.0      4.154      6.701
REMARK  9 active torsions:
REMARK  status: ('A' for Active; 'I' for Inactive)
REMARK       I    between atoms: N_2  and  C_3 
REMARK    1  A    between atoms: C_3  and  C_4 
REMARK    2  A    between atoms: C_4  and  S_5 
REMARK    3  A    between atoms: S_5  and  C_6 
REMARK    4  A    between atoms: N_7  and  C_8 
REMARK    5  A    between atoms: C_8  and  C_9 
REMARK    6  A    between atoms: C_11  and  C_12 
REMARK    7  A    between atoms: C_12  and  O_13 
REMARK    8  A    between atoms: O_13  and  C_14 
REMARK    9  A    between atoms: C_15  and  C_16 
ROOT
HETATM    1  C   UNL     1     -11.073   2.853 -33.062  1.00  0.00     0.192 A 
HETATM    2  N   UNL     1      -9.880   2.278 -32.718  1.00  0.00    -0.306 N 
HETATM    3  C   UNL     1      -9.942   0.993 -33.219  1.00  0.00     0.155 A 
HETATM    4  N   UNL     1     -11.080   0.848 -33.874  1.00  0.00    -0.132 NA
HETATM    5  N   UNL     1     -11.791   2.015 -33.766  1.00  0.00    -0.123 NA
ENDROOT
BRANCH   3   6
HETATM    6  C   UNL     1      -8.905  -0.063 -33.039  1.00  0.00     0.256 C 
BRANCH   6   7
HETATM    7  O   UNL     1      -7.856   0.244 -33.961  1.00  0.00    -0.343 OA
BRANCH   7   8
HETATM    8  C   UNL     1      -6.860  -0.698 -33.918  1.00  0.00     0.080 A 
HETATM    9  C   UNL     1      -5.744  -0.534 -33.073  1.00  0.00     0.007 A 
HETATM   10  C   UNL     1      -4.736  -1.520 -33.150  1.00  0.00     0.015 A 
HETATM   11  C   UNL     1      -4.834  -2.609 -34.021  1.00  0.00     0.001 A 
HETATM   12  C   UNL     1      -5.939  -2.735 -34.855  1.00  0.00     0.003 A 
HETATM   13  C   UNL     1      -6.945  -1.774 -34.813  1.00  0.00     0.037 A 
BRANCH   9  14
HETATM   14  C   UNL     1      -5.575   0.602 -32.135  1.00  0.00    -0.023 A 
HETATM   15  C   UNL     1      -5.923   0.475 -30.775  1.00  0.00     0.012 A 
HETATM   16  C   UNL     1      -5.727   1.521 -29.868  1.00  0.00     0.001 A 
HETATM   17  C   UNL     1      -5.185   2.726 -30.304  1.00  0.00     0.000 A 
HETATM   18  C   UNL     1      -4.843   2.882 -31.644  1.00  0.00     0.001 A 
HETATM   19  C   UNL     1      -5.031   1.830 -32.547  1.00  0.00     0.012 A 
ENDBRANCH   9  14
ENDBRANCH   7   8
ENDBRANCH   6   7
ENDBRANCH   3   6
BRANCH   2  20
HETATM   20  C   UNL     1      -8.736   2.922 -32.096  1.00  0.00     0.159 C 
BRANCH  20  21
HETATM   21  C   UNL     1      -8.848   3.218 -30.627  1.00  0.00    -0.017 C 
HETATM   22  C   UNL     1      -8.501   4.338 -29.978  1.00  0.00     0.008 C 
ENDBRANCH  20  21
ENDBRANCH   2  20
BRANCH   1  23
HETATM   23  S   UNL     1     -11.578   4.452 -32.653  1.00  0.00    -0.081 SA
BRANCH  23  24
HETATM   24  C   UNL     1     -12.563   4.124 -31.170  1.00  0.00     0.185 C 
BRANCH  24  25
HETATM   25  C   UNL     1     -14.024   3.755 -31.376  1.00  0.00     0.226 C 
HETATM   26  N   UNL     1     -14.333   2.462 -31.714  1.00  0.00    -0.365 N 
HETATM   27  C   UNL     1     -15.666   2.083 -32.106  1.00  0.00     0.149 C 
HETATM   28  H   UNL     1     -13.576   1.850 -32.014  1.00  0.00     0.161 HD
HETATM   29  O   UNL     1     -14.889   4.630 -31.287  1.00  0.00    -0.273 OA
ENDBRANCH  24  25
ENDBRANCH  23  24
ENDBRANCH   1  23
TORSDOF 9
ENDMDL
MODEL 9
REMARK VINA RESULT:      -6.9     15.527     17.566
REMARK  9 active torsions:
REMARK  status: ('A' for Active; 'I' for Inactive)
REMARK       I    between atoms: N_2  and  C_3 
REMARK    1  A    between atoms: C_3  and  C_4 
REMARK    2  A    between atoms: C_4  and  S_5 
REMARK    3  A    between atoms: S_5  and  C_6 
REMARK    4  A    between atoms: N_7  and  C_8 
REMARK    5  A    between atoms: C_8  and  C_9 
REMARK    6  A    between atoms: C_11  and  C_12 
REMARK    7  A    between atoms: C_12  and  O_13 
REMARK    8  A    between atoms: O_13  and  C_14 
REMARK    9  A    between atoms: C_15  and  C_16 
ROOT
HETATM    1  C   UNL     1      -7.916 -14.277 -38.709  1.00  0.00     0.192 A 
HETATM    2  N   UNL     1      -6.647 -14.149 -39.205  1.00  0.00    -0.306 N 
HETATM    3  C   UNL     1      -6.198 -12.930 -38.735  1.00  0.00     0.155 A 
HETATM    4  N   UNL     1      -7.128 -12.408 -37.956  1.00  0.00    -0.132 NA
HETATM    5  N   UNL     1      -8.207 -13.251 -37.948  1.00  0.00    -0.123 NA
ENDROOT
BRANCH   3   6
HETATM    6  C   UNL     1      -4.887 -12.300 -39.063  1.00  0.00     0.256 C 
BRANCH   6   7
HETATM    7  O   UNL     1      -4.273 -11.979 -37.812  1.00  0.00    -0.343 OA
BRANCH   7   8
HETATM    8  C   UNL     1      -3.280 -12.873 -37.498  1.00  0.00     0.080 A 
HETATM    9  C   UNL     1      -3.426 -13.767 -36.418  1.00  0.00     0.007 A 
HETATM   10  C   UNL     1      -2.323 -14.600 -36.126  1.00  0.00     0.015 A 
HETATM   11  C   UNL     1      -1.140 -14.544 -36.869  1.00  0.00     0.001 A 
HETATM   12  C   UNL     1      -1.020 -13.639 -37.918  1.00  0.00     0.003 A 
HETATM   13  C   UNL     1      -2.083 -12.796 -38.225  1.00  0.00     0.037 A 
BRANCH   9  14
HETATM   14  C   UNL     1      -4.649 -13.868 -35.586  1.00  0.00    -0.023 A 
HETATM   15  C   UNL     1      -4.930 -12.910 -34.592  1.00  0.00     0.012 A 
HETATM   16  C   UNL     1      -6.102 -12.965 -33.832  1.00  0.00     0.001 A 
HETATM   17  C   UNL     1      -7.019 -13.989 -34.042  1.00  0.00     0.000 A 
HETATM   18  C   UNL     1      -6.762 -14.955 -35.011  1.00  0.00     0.001 A 
HETATM   19  C   UNL     1      -5.593 -14.891 -35.777  1.00  0.00     0.012 A 
ENDBRANCH   9  14
ENDBRANCH   7   8
ENDBRANCH   6   7
ENDBRANCH   3   6
BRANCH   2  20
HETATM   20  C   UNL     1      -5.882 -15.141 -39.939  1.00  0.00     0.159 C 
BRANCH  20  21
HETATM   21  C   UNL     1      -4.916 -15.970 -39.140  1.00  0.00    -0.017 C 
HETATM   22  C   UNL     1      -3.604 -16.143 -39.346  1.00  0.00     0.008 C 
ENDBRANCH  20  21
ENDBRANCH   2  20
BRANCH   1  23
HETATM   23  S   UNL     1      -8.991 -15.591 -39.013  1.00  0.00    -0.081 SA
BRANCH  23  24
HETATM   24  C   UNL     1      -9.704 -15.083 -40.597  1.00  0.00     0.185 C 
BRANCH  24  25
HETATM   25  C   UNL     1     -10.570 -13.833 -40.597  1.00  0.00     0.226 C 
HETATM   26  N   UNL     1      -9.954 -12.608 -40.578  1.00  0.00    -0.365 N 
HETATM   27  C   UNL     1     -10.702 -11.391 -40.389  1.00  0.00     0.149 C 
HETATM   28  H   UNL     1      -8.961 -12.573 -40.357  1.00  0.00     0.161 HD
HETATM   29  O   UNL     1     -11.799 -13.946 -40.563  1.00  0.00    -0.273 OA
ENDBRANCH  24  25
ENDBRANCH  23  24
ENDBRANCH   1  23
TORSDOF 9
ENDMDL
MODEL 10
REMARK VINA RESULT:      -6.9      2.432      2.969
REMARK  9 active torsions:
REMARK  status: ('A' for Active; 'I' for Inactive)
REMARK       I    between atoms: N_2  and  C_3 
REMARK    1  A    between atoms: C_3  and  C_4 
REMARK    2  A    between atoms: C_4  and  S_5 
REMARK    3  A    between atoms: S_5  and  C_6 
REMARK    4  A    between atoms: N_7  and  C_8 
REMARK    5  A    between atoms: C_8  and  C_9 
REMARK    6  A    between atoms: C_11  and  C_12 
REMARK    7  A    between atoms: C_12  and  O_13 
REMARK    8  A    between atoms: O_13  and  C_14 
REMARK    9  A    between atoms: C_15  and  C_16 
ROOT
HETATM    1  C   UNL     1      -4.442   4.028 -30.909  1.00  0.00     0.192 A 
HETATM    2  N   UNL     1      -4.967   2.767 -30.993  1.00  0.00    -0.306 N 
HETATM    3  C   UNL     1      -4.050   2.044 -31.730  1.00  0.00     0.155 A 
HETATM    4  N   UNL     1      -3.019   2.823 -32.005  1.00  0.00    -0.132 NA
HETATM    5  N   UNL     1      -3.272   4.069 -31.496  1.00  0.00    -0.123 NA
ENDROOT
BRANCH   3   6
HETATM    6  C   UNL     1      -4.203   0.625 -32.159  1.00  0.00     0.256 C 
BRANCH   6   7
HETATM    7  O   UNL     1      -5.152   0.629 -33.228  1.00  0.00    -0.343 OA
BRANCH   7   8
HETATM    8  C   UNL     1      -5.340  -0.632 -33.736  1.00  0.00     0.080 A 
HETATM    9  C   UNL     1      -6.631  -1.102 -34.050  1.00  0.00     0.007 A 
HETATM   10  C   UNL     1      -6.732  -2.436 -34.501  1.00  0.00     0.015 A 
HETATM   11  C   UNL     1      -5.608  -3.258 -34.629  1.00  0.00     0.001 A 
HETATM   12  C   UNL     1      -4.349  -2.772 -34.295  1.00  0.00     0.003 A 
HETATM   13  C   UNL     1      -4.216  -1.465 -33.837  1.00  0.00     0.037 A 
BRANCH   9  14
HETATM   14  C   UNL     1      -7.862  -0.284 -33.927  1.00  0.00    -0.023 A 
HETATM   15  C   UNL     1      -8.823  -0.569 -32.937  1.00  0.00     0.012 A 
HETATM   16  C   UNL     1      -9.966   0.221 -32.777  1.00  0.00     0.001 A 
HETATM   17  C   UNL     1     -10.180   1.311 -33.613  1.00  0.00     0.000 A 
HETATM   18  C   UNL     1      -9.252   1.608 -34.608  1.00  0.00     0.001 A 
HETATM   19  C   UNL     1      -8.104   0.823 -34.758  1.00  0.00     0.012 A 
ENDBRANCH   9  14
ENDBRANCH   7   8
ENDBRANCH   6   7
ENDBRANCH   3   6
BRANCH   2  20
HETATM   20  C   UNL     1      -6.152   2.257 -30.325  1.00  0.00     0.159 C 
BRANCH  20  21
HETATM   21  C   UNL     1      -7.454   2.408 -31.059  1.00  0.00    -0.017 C 
HETATM   22  C   UNL     1      -8.555   3.062 -30.667  1.00  0.00     0.008 C 
ENDBRANCH  20  21
ENDBRANCH   2  20
BRANCH   1  23
HETATM   23  S   UNL     1      -5.186   5.381 -30.138  1.00  0.00    -0.081 SA
BRANCH  23  24
HETATM   24  C   UNL     1      -3.788   6.529 -30.053  1.00  0.00     0.185 C 
BRANCH  24  25
HETATM   25  C   UNL     1      -3.355   6.991 -28.670  1.00  0.00     0.226 C 
HETATM   26  N   UNL     1      -2.046   6.819 -28.301  1.00  0.00    -0.365 N 
HETATM   27  C   UNL     1      -1.606   7.059 -26.951  1.00  0.00     0.149 C 
HETATM   28  H   UNL     1      -1.462   6.211 -28.872  1.00  0.00     0.161 HD
HETATM   29  O   UNL     1      -4.195   7.459 -27.896  1.00  0.00    -0.273 OA
ENDBRANCH  24  25
ENDBRANCH  23  24
ENDBRANCH   1  23
TORSDOF 9
ENDMDL
