MODEL 1
REMARK VINA RESULT:      -8.8      0.000      0.000
REMARK  4 active torsions:
REMARK  status: ('A' for Active; 'I' for Inactive)
REMARK    1  A    between atoms: N_2  and  C_3 
REMARK    2  A    between atoms: C_5  and  C_6 
REMARK    3  A    between atoms: C_6  and  C_7 
REMARK    4  A    between atoms: C_13  and  O_14 
ROOT
HETATM    1  C   UNL     1      -2.371   4.507 -33.553  1.00  0.00     0.113 A 
HETATM    2  N   UNL     1      -3.097   3.493 -33.044  1.00  0.00    -0.223 NA
HETATM    3  C   UNL     1      -3.006   3.224 -31.714  1.00  0.00     0.106 A 
HETATM    4  N   UNL     1      -2.220   3.920 -30.877  1.00  0.00    -0.347 N 
HETATM    5  H   UNL     1      -2.168   3.677 -29.890  1.00  0.00     0.167 HD
HETATM    6  C   UNL     1      -1.518   4.935 -31.373  1.00  0.00     0.020 A 
HETATM    7  C   UNL     1      -1.579   5.260 -32.717  1.00  0.00     0.005 A 
HETATM    8  C   UNL     1      -0.689   6.425 -33.013  1.00  0.00     0.044 C 
HETATM    9  C   UNL     1      -0.459   6.995 -31.600  1.00  0.00     0.011 C 
HETATM   10  C   UNL     1      -0.579   5.820 -30.617  1.00  0.00     0.058 C 
ENDROOT
BRANCH   3  11
HETATM   11  C   UNL     1      -3.791   2.059 -31.178  1.00  0.00     0.085 C 
BRANCH  11  12
HETATM   12  C   UNL     1      -3.768   0.856 -32.127  1.00  0.00     0.021 C 
HETATM   13  C   UNL     1      -5.127   0.552 -32.757  1.00  0.00     0.181 C 
HETATM   14  O   UNL     1      -4.987  -0.448 -33.765  1.00  0.00    -0.347 OA
HETATM   15  C   UNL     1      -4.387  -1.613 -33.359  1.00  0.00     0.108 A 
HETATM   16  C   UNL     1      -3.562  -1.640 -32.215  1.00  0.00    -0.021 A 
HETATM   17  C   UNL     1      -4.564  -2.778 -34.124  1.00  0.00     0.102 A 
HETATM   18  C   UNL     1      -3.331  -0.408 -31.383  1.00  0.00     0.048 C 
HETATM   19  C   UNL     1      -2.961  -2.842 -31.817  1.00  0.00     0.010 A 
HETATM   20  C   UNL     1      -3.150  -4.001 -32.561  1.00  0.00     0.003 A 
HETATM   21  C   UNL     1      -3.941  -3.963 -33.707  1.00  0.00     0.039 A 
BRANCH  17  22
HETATM   22  O   UNL     1      -5.291  -2.953 -35.269  1.00  0.00    -0.353 OA
HETATM   23  C   UNL     1      -6.264  -3.984 -35.322  1.00  0.00     0.210 C 
ENDBRANCH  17  22
ENDBRANCH  11  12
ENDBRANCH   3  11
BRANCH   1  24
HETATM   24  N   UNL     1      -2.481   4.852 -34.896  1.00  0.00    -0.281 NA
HETATM   25  C   UNL     1      -3.794   5.294 -35.343  1.00  0.00     0.114 C 
HETATM   26  H   UNL     1      -2.097   4.138 -35.509  1.00  0.00     0.128 HD
ENDBRANCH   1  24
TORSDOF 4
ENDMDL
MODEL 2
REMARK VINA RESULT:      -8.7      0.798      2.288
REMARK  4 active torsions:
REMARK  status: ('A' for Active; 'I' for Inactive)
REMARK    1  A    between atoms: N_2  and  C_3 
REMARK    2  A    between atoms: C_5  and  C_6 
REMARK    3  A    between atoms: C_6  and  C_7 
REMARK    4  A    between atoms: C_13  and  O_14 
ROOT
HETATM    1  C   UNL     1      -1.676   4.789 -31.285  1.00  0.00     0.113 A 
HETATM    2  N   UNL     1      -2.400   3.730 -30.872  1.00  0.00    -0.223 NA
HETATM    3  C   UNL     1      -3.138   3.045 -31.785  1.00  0.00     0.106 A 
HETATM    4  N   UNL     1      -3.186   3.374 -33.086  1.00  0.00    -0.347 N 
HETATM    5  H   UNL     1      -3.764   2.844 -33.735  1.00  0.00     0.167 HD
HETATM    6  C   UNL     1      -2.456   4.406 -33.501  1.00  0.00     0.020 A 
HETATM    7  C   UNL     1      -1.678   5.135 -32.617  1.00  0.00     0.005 A 
HETATM    8  C   UNL     1      -0.973   6.242 -33.333  1.00  0.00     0.044 C 
HETATM    9  C   UNL     1      -1.099   5.781 -34.798  1.00  0.00     0.011 C 
HETATM   10  C   UNL     1      -2.382   4.939 -34.894  1.00  0.00     0.058 C 
ENDROOT
BRANCH   3  11
HETATM   11  C   UNL     1      -3.973   1.896 -31.292  1.00  0.00     0.085 C 
BRANCH  11  12
HETATM   12  C   UNL     1      -3.914   0.687 -32.232  1.00  0.00     0.021 C 
HETATM   13  C   UNL     1      -5.260   0.348 -32.871  1.00  0.00     0.181 C 
HETATM   14  O   UNL     1      -5.088  -0.655 -33.871  1.00  0.00    -0.347 OA
HETATM   15  C   UNL     1      -4.467  -1.804 -33.451  1.00  0.00     0.108 A 
HETATM   16  C   UNL     1      -3.652  -1.804 -32.300  1.00  0.00    -0.021 A 
HETATM   17  C   UNL     1      -4.610  -2.978 -34.209  1.00  0.00     0.102 A 
HETATM   18  C   UNL     1      -3.456  -0.562 -31.475  1.00  0.00     0.048 C 
HETATM   19  C   UNL     1      -3.027  -2.990 -31.887  1.00  0.00     0.010 A 
HETATM   20  C   UNL     1      -3.184  -4.157 -32.625  1.00  0.00     0.003 A 
HETATM   21  C   UNL     1      -3.965  -4.146 -33.778  1.00  0.00     0.039 A 
BRANCH  17  22
HETATM   22  O   UNL     1      -5.322  -3.177 -35.360  1.00  0.00    -0.353 OA
HETATM   23  C   UNL     1      -6.155  -4.319 -35.470  1.00  0.00     0.210 C 
ENDBRANCH  17  22
ENDBRANCH  11  12
ENDBRANCH   3  11
BRANCH   1  24
HETATM   24  N   UNL     1      -0.861   5.480 -30.394  1.00  0.00    -0.281 NA
HETATM   25  C   UNL     1       0.524   5.039 -30.310  1.00  0.00     0.114 C 
HETATM   26  H   UNL     1      -1.284   5.565 -29.474  1.00  0.00     0.128 HD
ENDBRANCH   1  24
TORSDOF 4
ENDMDL
MODEL 3
REMARK VINA RESULT:      -8.4      5.400      8.546
REMARK  4 active torsions:
REMARK  status: ('A' for Active; 'I' for Inactive)
REMARK    1  A    between atoms: N_2  and  C_3 
REMARK    2  A    between atoms: C_5  and  C_6 
REMARK    3  A    between atoms: C_6  and  C_7 
REMARK    4  A    between atoms: C_13  and  O_14 
ROOT
HETATM    1  C   UNL     1      -4.546  -1.204 -33.183  1.00  0.00     0.113 A 
HETATM    2  N   UNL     1      -5.414  -0.311 -32.668  1.00  0.00    -0.223 NA
HETATM    3  C   UNL     1      -6.743  -0.481 -32.898  1.00  0.00     0.106 A 
HETATM    4  N   UNL     1      -7.238  -1.499 -33.620  1.00  0.00    -0.347 N 
HETATM    5  H   UNL     1      -8.239  -1.582 -33.782  1.00  0.00     0.167 HD
HETATM    6  C   UNL     1      -6.386  -2.394 -34.112  1.00  0.00     0.020 A 
HETATM    7  C   UNL     1      -5.022  -2.276 -33.902  1.00  0.00     0.005 A 
HETATM    8  C   UNL     1      -4.293  -3.398 -34.568  1.00  0.00     0.044 C 
HETATM    9  C   UNL     1      -5.437  -4.403 -34.806  1.00  0.00     0.011 C 
HETATM   10  C   UNL     1      -6.730  -3.584 -34.948  1.00  0.00     0.058 C 
ENDROOT
BRANCH   3  11
HETATM   11  C   UNL     1      -7.688   0.553 -32.352  1.00  0.00     0.085 C 
BRANCH  11  12
HETATM   12  C   UNL     1      -8.828   0.872 -33.325  1.00  0.00     0.021 C 
HETATM   13  C   UNL     1      -9.076   2.369 -33.501  1.00  0.00     0.181 C 
HETATM   14  O   UNL     1     -10.011   2.590 -34.557  1.00  0.00    -0.347 OA
HETATM   15  C   UNL     1     -11.206   1.928 -34.432  1.00  0.00     0.108 A 
HETATM   16  C   UNL     1     -11.315   0.782 -33.617  1.00  0.00    -0.021 A 
HETATM   17  C   UNL     1     -12.318   2.376 -35.164  1.00  0.00     0.102 A 
HETATM   18  C   UNL     1     -10.142   0.259 -32.834  1.00  0.00     0.048 C 
HETATM   19  C   UNL     1     -12.547   0.123 -33.501  1.00  0.00     0.010 A 
HETATM   20  C   UNL     1     -13.654   0.576 -34.211  1.00  0.00     0.003 A 
HETATM   21  C   UNL     1     -13.534   1.690 -35.038  1.00  0.00     0.039 A 
BRANCH  17  22
HETATM   22  O   UNL     1     -12.412   3.437 -36.024  1.00  0.00    -0.353 OA
HETATM   23  C   UNL     1     -12.745   4.716 -35.512  1.00  0.00     0.210 C 
ENDBRANCH  17  22
ENDBRANCH  11  12
ENDBRANCH   3  11
BRANCH   1  24
HETATM   24  N   UNL     1      -3.184  -1.099 -32.921  1.00  0.00    -0.281 NA
HETATM   25  C   UNL     1      -2.816  -0.566 -31.617  1.00  0.00     0.114 C 
HETATM   26  H   UNL     1      -2.683  -0.631 -33.672  1.00  0.00     0.128 HD
ENDBRANCH   1  24
TORSDOF 4
ENDMDL
MODEL 4
REMARK VINA RESULT:      -8.3      1.427      3.043
REMARK  4 active torsions:
REMARK  status: ('A' for Active; 'I' for Inactive)
REMARK    1  A    between atoms: N_2  and  C_3 
REMARK    2  A    between atoms: C_5  and  C_6 
REMARK    3  A    between atoms: C_6  and  C_7 
REMARK    4  A    between atoms: C_13  and  O_14 
ROOT
HETATM    1  C   UNL     1      -2.061   4.362 -31.552  1.00  0.00     0.113 A 
HETATM    2  N   UNL     1      -3.123   3.649 -31.125  1.00  0.00    -0.223 NA
HETATM    3  C   UNL     1      -4.166   3.455 -31.975  1.00  0.00     0.106 A 
HETATM    4  N   UNL     1      -4.195   3.945 -33.225  1.00  0.00    -0.347 N 
HETATM    5  H   UNL     1      -5.003   3.791 -33.825  1.00  0.00     0.167 HD
HETATM    6  C   UNL     1      -3.140   4.631 -33.656  1.00  0.00     0.020 A 
HETATM    7  C   UNL     1      -2.045   4.852 -32.838  1.00  0.00     0.005 A 
HETATM    8  C   UNL     1      -1.010   5.656 -33.556  1.00  0.00     0.044 C 
HETATM    9  C   UNL     1      -1.460   5.487 -35.020  1.00  0.00     0.011 C 
HETATM   10  C   UNL     1      -2.981   5.267 -34.999  1.00  0.00     0.058 C 
ENDROOT
BRANCH   3  11
HETATM   11  C   UNL     1      -5.358   2.697 -31.461  1.00  0.00     0.085 C 
BRANCH  11  12
HETATM   12  C   UNL     1      -5.283   1.202 -31.789  1.00  0.00     0.021 C 
HETATM   13  C   UNL     1      -3.853   0.684 -31.941  1.00  0.00     0.181 C 
HETATM   14  O   UNL     1      -3.857  -0.739 -32.052  1.00  0.00    -0.347 OA
HETATM   15  C   UNL     1      -4.648  -1.249 -33.050  1.00  0.00     0.108 A 
HETATM   16  C   UNL     1      -5.713  -0.493 -33.584  1.00  0.00    -0.021 A 
HETATM   17  C   UNL     1      -4.419  -2.557 -33.507  1.00  0.00     0.102 A 
HETATM   18  C   UNL     1      -6.004   0.902 -33.105  1.00  0.00     0.048 C 
HETATM   19  C   UNL     1      -6.508  -1.033 -34.605  1.00  0.00     0.010 A 
HETATM   20  C   UNL     1      -6.270  -2.321 -35.072  1.00  0.00     0.003 A 
HETATM   21  C   UNL     1      -5.237  -3.074 -34.521  1.00  0.00     0.039 A 
BRANCH  17  22
HETATM   22  O   UNL     1      -3.468  -3.455 -33.103  1.00  0.00    -0.353 OA
HETATM   23  C   UNL     1      -3.489  -4.770 -33.632  1.00  0.00     0.210 C 
ENDBRANCH  17  22
ENDBRANCH  11  12
ENDBRANCH   3  11
BRANCH   1  24
HETATM   24  N   UNL     1      -0.949   4.532 -30.734  1.00  0.00    -0.281 NA
HETATM   25  C   UNL     1      -0.807   5.834 -30.098  1.00  0.00     0.114 C 
HETATM   26  H   UNL     1      -0.088   4.243 -31.192  1.00  0.00     0.128 HD
ENDBRANCH   1  24
TORSDOF 4
ENDMDL
MODEL 5
REMARK VINA RESULT:      -8.0      1.698      2.357
REMARK  4 active torsions:
REMARK  status: ('A' for Active; 'I' for Inactive)
REMARK    1  A    between atoms: N_2  and  C_3 
REMARK    2  A    between atoms: C_5  and  C_6 
REMARK    3  A    between atoms: C_6  and  C_7 
REMARK    4  A    between atoms: C_13  and  O_14 
ROOT
HETATM    1  C   UNL     1      -2.259   5.153 -33.383  1.00  0.00     0.113 A 
HETATM    2  N   UNL     1      -2.893   4.042 -32.958  1.00  0.00    -0.223 NA
HETATM    3  C   UNL     1      -2.660   3.598 -31.694  1.00  0.00     0.106 A 
HETATM    4  N   UNL     1      -1.823   4.212 -30.843  1.00  0.00    -0.347 N 
HETATM    5  H   UNL     1      -1.664   3.838 -29.910  1.00  0.00     0.167 HD
HETATM    6  C   UNL     1      -1.212   5.320 -31.252  1.00  0.00     0.020 A 
HETATM    7  C   UNL     1      -1.417   5.824 -32.525  1.00  0.00     0.005 A 
HETATM    8  C   UNL     1      -0.607   7.062 -32.734  1.00  0.00     0.044 C 
HETATM    9  C   UNL     1      -0.260   7.444 -31.282  1.00  0.00     0.011 C 
HETATM   10  C   UNL     1      -0.238   6.139 -30.469  1.00  0.00     0.058 C 
ENDROOT
BRANCH   3  11
HETATM   11  C   UNL     1      -3.343   2.331 -31.259  1.00  0.00     0.085 C 
BRANCH  11  12
HETATM   12  C   UNL     1      -4.221   1.734 -32.364  1.00  0.00     0.021 C 
HETATM   13  C   UNL     1      -5.709   2.037 -32.189  1.00  0.00     0.181 C 
HETATM   14  O   UNL     1      -6.433   1.620 -33.346  1.00  0.00    -0.347 OA
HETATM   15  C   UNL     1      -6.262   0.307 -33.705  1.00  0.00     0.108 A 
HETATM   16  C   UNL     1      -5.127  -0.416 -33.280  1.00  0.00    -0.021 A 
HETATM   17  C   UNL     1      -7.208  -0.304 -34.544  1.00  0.00     0.102 A 
HETATM   18  C   UNL     1      -4.081   0.210 -32.399  1.00  0.00     0.048 C 
HETATM   19  C   UNL     1      -4.973  -1.758 -33.657  1.00  0.00     0.010 A 
HETATM   20  C   UNL     1      -5.919  -2.369 -34.472  1.00  0.00     0.003 A 
HETATM   21  C   UNL     1      -7.022  -1.644 -34.914  1.00  0.00     0.039 A 
BRANCH  17  22
HETATM   22  O   UNL     1      -8.348   0.226 -35.084  1.00  0.00    -0.353 OA
HETATM   23  C   UNL     1      -9.366   0.705 -34.220  1.00  0.00     0.210 C 
ENDBRANCH  17  22
ENDBRANCH  11  12
ENDBRANCH   3  11
BRANCH   1  24
HETATM   24  N   UNL     1      -2.515   5.673 -34.647  1.00  0.00    -0.281 NA
HETATM   25  C   UNL     1      -3.753   5.248 -35.283  1.00  0.00     0.114 C 
HETATM   26  H   UNL     1      -1.719   5.573 -35.272  1.00  0.00     0.128 HD
ENDBRANCH   1  24
TORSDOF 4
ENDMDL
MODEL 6
REMARK VINA RESULT:      -7.8      3.186      8.071
REMARK  4 active torsions:
REMARK  status: ('A' for Active; 'I' for Inactive)
REMARK    1  A    between atoms: N_2  and  C_3 
REMARK    2  A    between atoms: C_5  and  C_6 
REMARK    3  A    between atoms: C_6  and  C_7 
REMARK    4  A    between atoms: C_13  and  O_14 
ROOT
HETATM    1  C   UNL     1      -4.252  -0.843 -32.345  1.00  0.00     0.113 A 
HETATM    2  N   UNL     1      -4.427   0.356 -31.754  1.00  0.00    -0.223 NA
HETATM    3  C   UNL     1      -5.426   1.164 -32.195  1.00  0.00     0.106 A 
HETATM    4  N   UNL     1      -6.253   0.829 -33.199  1.00  0.00    -0.347 N 
HETATM    5  H   UNL     1      -6.979   1.470 -33.510  1.00  0.00     0.167 HD
HETATM    6  C   UNL     1      -6.097  -0.362 -33.770  1.00  0.00     0.020 A 
HETATM    7  C   UNL     1      -5.102  -1.231 -33.356  1.00  0.00     0.005 A 
HETATM    8  C   UNL     1      -5.136  -2.488 -34.165  1.00  0.00     0.044 C 
HETATM    9  C   UNL     1      -6.543  -2.407 -34.787  1.00  0.00     0.011 C 
HETATM   10  C   UNL     1      -6.897  -0.916 -34.903  1.00  0.00     0.058 C 
ENDROOT
BRANCH   3  11
HETATM   11  C   UNL     1      -5.571   2.516 -31.552  1.00  0.00     0.085 C 
BRANCH  11  12
HETATM   12  C   UNL     1      -4.290   3.350 -31.655  1.00  0.00     0.021 C 
HETATM   13  C   UNL     1      -4.353   4.661 -30.872  1.00  0.00     0.181 C 
HETATM   14  O   UNL     1      -3.070   5.284 -30.856  1.00  0.00    -0.347 OA
HETATM   15  C   UNL     1      -2.506   5.501 -32.089  1.00  0.00     0.108 A 
HETATM   16  C   UNL     1      -2.918   4.754 -33.212  1.00  0.00    -0.021 A 
HETATM   17  C   UNL     1      -1.475   6.446 -32.214  1.00  0.00     0.102 A 
HETATM   18  C   UNL     1      -4.003   3.718 -33.113  1.00  0.00     0.048 C 
HETATM   19  C   UNL     1      -2.330   4.994 -34.463  1.00  0.00     0.010 A 
HETATM   20  C   UNL     1      -1.322   5.943 -34.593  1.00  0.00     0.003 A 
HETATM   21  C   UNL     1      -0.898   6.657 -33.475  1.00  0.00     0.039 A 
BRANCH  17  22
HETATM   22  O   UNL     1      -0.917   7.244 -31.253  1.00  0.00    -0.353 OA
HETATM   23  C   UNL     1       0.369   6.924 -30.749  1.00  0.00     0.210 C 
ENDBRANCH  17  22
ENDBRANCH  11  12
ENDBRANCH   3  11
BRANCH   1  24
HETATM   24  N   UNL     1      -3.280  -1.725 -31.884  1.00  0.00    -0.281 NA
HETATM   25  C   UNL     1      -1.977  -1.150 -31.584  1.00  0.00     0.114 C 
HETATM   26  H   UNL     1      -3.200  -2.550 -32.472  1.00  0.00     0.128 HD
ENDBRANCH   1  24
TORSDOF 4
ENDMDL
MODEL 7
REMARK VINA RESULT:      -7.7      3.269      8.048
REMARK  4 active torsions:
REMARK  status: ('A' for Active; 'I' for Inactive)
REMARK    1  A    between atoms: N_2  and  C_3 
REMARK    2  A    between atoms: C_5  and  C_6 
REMARK    3  A    between atoms: C_6  and  C_7 
REMARK    4  A    between atoms: C_13  and  O_14 
ROOT
HETATM    1  C   UNL     1      -7.917   0.477 -33.494  1.00  0.00     0.113 A 
HETATM    2  N   UNL     1      -7.637   1.746 -33.136  1.00  0.00    -0.223 NA
HETATM    3  C   UNL     1      -6.340   2.097 -32.925  1.00  0.00     0.106 A 
HETATM    4  N   UNL     1      -5.318   1.236 -33.052  1.00  0.00    -0.347 N 
HETATM    5  H   UNL     1      -4.362   1.535 -32.870  1.00  0.00     0.167 HD
HETATM    6  C   UNL     1      -5.589  -0.012 -33.426  1.00  0.00     0.020 A 
HETATM    7  C   UNL     1      -6.889  -0.422 -33.663  1.00  0.00     0.005 A 
HETATM    8  C   UNL     1      -6.918  -1.865 -34.054  1.00  0.00     0.044 C 
HETATM    9  C   UNL     1      -5.444  -2.103 -34.437  1.00  0.00     0.011 C 
HETATM   10  C   UNL     1      -4.602  -1.119 -33.609  1.00  0.00     0.058 C 
ENDROOT
BRANCH   3  11
HETATM   11  C   UNL     1      -6.058   3.505 -32.482  1.00  0.00     0.085 C 
BRANCH  11  12
HETATM   12  C   UNL     1      -4.562   3.838 -32.515  1.00  0.00     0.021 C 
HETATM   13  C   UNL     1      -3.829   3.466 -31.227  1.00  0.00     0.181 C 
HETATM   14  O   UNL     1      -2.421   3.624 -31.402  1.00  0.00    -0.347 OA
HETATM   15  C   UNL     1      -2.017   4.863 -31.831  1.00  0.00     0.108 A 
HETATM   16  C   UNL     1      -2.915   5.725 -32.494  1.00  0.00    -0.021 A 
HETATM   17  C   UNL     1      -0.680   5.250 -31.647  1.00  0.00     0.102 A 
HETATM   18  C   UNL     1      -4.349   5.338 -32.730  1.00  0.00     0.048 C 
HETATM   19  C   UNL     1      -2.481   6.988 -32.923  1.00  0.00     0.010 A 
HETATM   20  C   UNL     1      -1.163   7.381 -32.724  1.00  0.00     0.003 A 
HETATM   21  C   UNL     1      -0.272   6.514 -32.096  1.00  0.00     0.039 A 
BRANCH  17  22
HETATM   22  O   UNL     1       0.344   4.556 -31.062  1.00  0.00    -0.353 OA
HETATM   23  C   UNL     1       0.777   4.925 -29.763  1.00  0.00     0.210 C 
ENDBRANCH  17  22
ENDBRANCH  11  12
ENDBRANCH   3  11
BRANCH   1  24
HETATM   24  N   UNL     1      -9.223   0.094 -33.777  1.00  0.00    -0.281 NA
HETATM   25  C   UNL     1     -10.278   0.913 -33.197  1.00  0.00     0.114 C 
HETATM   26  H   UNL     1      -9.380  -0.896 -33.604  1.00  0.00     0.128 HD
ENDBRANCH   1  24
TORSDOF 4
ENDMDL
MODEL 8
REMARK VINA RESULT:      -7.6      1.626      2.315
REMARK  4 active torsions:
REMARK  status: ('A' for Active; 'I' for Inactive)
REMARK    1  A    between atoms: N_2  and  C_3 
REMARK    2  A    between atoms: C_5  and  C_6 
REMARK    3  A    between atoms: C_6  and  C_7 
REMARK    4  A    between atoms: C_13  and  O_14 
ROOT
HETATM    1  C   UNL     1      -1.531   5.840 -32.642  1.00  0.00     0.113 A 
HETATM    2  N   UNL     1      -2.776   5.335 -32.536  1.00  0.00    -0.223 NA
HETATM    3  C   UNL     1      -3.342   5.239 -31.303  1.00  0.00     0.106 A 
HETATM    4  N   UNL     1      -2.718   5.620 -30.177  1.00  0.00    -0.347 N 
HETATM    5  H   UNL     1      -3.170   5.517 -29.272  1.00  0.00     0.167 HD
HETATM    6  C   UNL     1      -1.497   6.138 -30.281  1.00  0.00     0.020 A 
HETATM    7  C   UNL     1      -0.875   6.269 -31.511  1.00  0.00     0.005 A 
HETATM    8  C   UNL     1       0.487   6.864 -31.347  1.00  0.00     0.044 C 
HETATM    9  C   UNL     1       0.386   7.460 -29.929  1.00  0.00     0.011 C 
HETATM   10  C   UNL     1      -0.632   6.607 -29.156  1.00  0.00     0.058 C 
ENDROOT
BRANCH   3  11
HETATM   11  C   UNL     1      -4.713   4.630 -31.206  1.00  0.00     0.085 C 
BRANCH  11  12
HETATM   12  C   UNL     1      -4.789   3.256 -31.881  1.00  0.00     0.021 C 
HETATM   13  C   UNL     1      -6.162   2.595 -31.760  1.00  0.00     0.181 C 
HETATM   14  O   UNL     1      -6.212   1.420 -32.570  1.00  0.00    -0.347 OA
HETATM   15  C   UNL     1      -5.225   0.498 -32.330  1.00  0.00     0.108 A 
HETATM   16  C   UNL     1      -4.018   0.878 -31.707  1.00  0.00    -0.021 A 
HETATM   17  C   UNL     1      -5.407  -0.828 -32.756  1.00  0.00     0.102 A 
HETATM   18  C   UNL     1      -3.777   2.293 -31.257  1.00  0.00     0.048 C 
HETATM   19  C   UNL     1      -3.023  -0.081 -31.470  1.00  0.00     0.010 A 
HETATM   20  C   UNL     1      -3.209  -1.398 -31.873  1.00  0.00     0.003 A 
HETATM   21  C   UNL     1      -4.390  -1.763 -32.515  1.00  0.00     0.039 A 
BRANCH  17  22
HETATM   22  O   UNL     1      -6.479  -1.386 -33.398  1.00  0.00    -0.353 OA
HETATM   23  C   UNL     1      -6.276  -2.057 -34.630  1.00  0.00     0.210 C 
ENDBRANCH  17  22
ENDBRANCH  11  12
ENDBRANCH   3  11
BRANCH   1  24
HETATM   24  N   UNL     1      -0.941   6.010 -33.889  1.00  0.00    -0.281 NA
HETATM   25  C   UNL     1      -1.481   5.206 -34.975  1.00  0.00     0.114 C 
HETATM   26  H   UNL     1       0.073   5.949 -33.846  1.00  0.00     0.128 HD
ENDBRANCH   1  24
TORSDOF 4
ENDMDL
MODEL 9
REMARK VINA RESULT:      -7.4     15.898     17.393
REMARK  4 active torsions:
REMARK  status: ('A' for Active; 'I' for Inactive)
REMARK    1  A    between atoms: N_2  and  C_3 
REMARK    2  A    between atoms: C_5  and  C_6 
REMARK    3  A    between atoms: C_6  and  C_7 
REMARK    4  A    between atoms: C_13  and  O_14 
ROOT
HETATM    1  C   UNL     1      -3.372 -13.602 -36.672  1.00  0.00     0.113 A 
HETATM    2  N   UNL     1      -4.273 -13.088 -37.533  1.00  0.00    -0.223 NA
HETATM    3  C   UNL     1      -3.894 -12.857 -38.818  1.00  0.00     0.106 A 
HETATM    4  N   UNL     1      -2.658 -13.113 -39.276  1.00  0.00    -0.347 N 
HETATM    5  H   UNL     1      -2.410 -12.910 -40.241  1.00  0.00     0.167 HD
HETATM    6  C   UNL     1      -1.772 -13.639 -38.434  1.00  0.00     0.020 A 
HETATM    7  C   UNL     1      -2.105 -13.904 -37.117  1.00  0.00     0.005 A 
HETATM    8  C   UNL     1      -0.933 -14.478 -36.387  1.00  0.00     0.044 C 
HETATM    9  C   UNL     1      -0.033 -14.915 -37.560  1.00  0.00     0.011 C 
HETATM   10  C   UNL     1      -0.351 -13.982 -38.740  1.00  0.00     0.058 C 
ENDROOT
BRANCH   3  11
HETATM   11  C   UNL     1      -4.903 -12.240 -39.747  1.00  0.00     0.085 C 
BRANCH  11  12
HETATM   12  C   UNL     1      -6.213 -13.033 -39.793  1.00  0.00     0.021 C 
HETATM   13  C   UNL     1      -6.302 -13.993 -40.978  1.00  0.00     0.181 C 
HETATM   14  O   UNL     1      -7.452 -14.828 -40.848  1.00  0.00    -0.347 OA
HETATM   15  C   UNL     1      -8.644 -14.167 -40.690  1.00  0.00     0.108 A 
HETATM   16  C   UNL     1      -8.675 -12.838 -40.218  1.00  0.00    -0.021 A 
HETATM   17  C   UNL     1      -9.844 -14.843 -40.959  1.00  0.00     0.102 A 
HETATM   18  C   UNL     1      -7.412 -12.087 -39.898  1.00  0.00     0.048 C 
HETATM   19  C   UNL     1      -9.904 -12.180 -40.066  1.00  0.00     0.010 A 
HETATM   20  C   UNL     1     -11.093 -12.842 -40.351  1.00  0.00     0.003 A 
HETATM   21  C   UNL     1     -11.059 -14.164 -40.788  1.00  0.00     0.039 A 
BRANCH  17  22
HETATM   22  O   UNL     1     -10.029 -16.128 -41.392  1.00  0.00    -0.353 OA
HETATM   23  C   UNL     1     -10.417 -16.358 -42.736  1.00  0.00     0.210 C 
ENDBRANCH  17  22
ENDBRANCH  11  12
ENDBRANCH   3  11
BRANCH   1  24
HETATM   24  N   UNL     1      -3.737 -13.909 -35.366  1.00  0.00    -0.281 NA
HETATM   25  C   UNL     1      -5.090 -13.547 -34.971  1.00  0.00     0.114 C 
HETATM   26  H   UNL     1      -3.050 -13.586 -34.689  1.00  0.00     0.128 HD
ENDBRANCH   1  24
TORSDOF 4
ENDMDL
MODEL 10
REMARK VINA RESULT:      -7.4      3.537      8.403
REMARK  4 active torsions:
REMARK  status: ('A' for Active; 'I' for Inactive)
REMARK    1  A    between atoms: N_2  and  C_3 
REMARK    2  A    between atoms: C_5  and  C_6 
REMARK    3  A    between atoms: C_6  and  C_7 
REMARK    4  A    between atoms: C_13  and  O_14 
ROOT
HETATM    1  C   UNL     1      -5.081   0.840 -32.238  1.00  0.00     0.113 A 
HETATM    2  N   UNL     1      -4.971   2.180 -32.151  1.00  0.00    -0.223 NA
HETATM    3  C   UNL     1      -5.564   2.949 -33.102  1.00  0.00     0.106 A 
HETATM    4  N   UNL     1      -6.255   2.437 -34.134  1.00  0.00    -0.347 N 
HETATM    5  H   UNL     1      -6.671   3.047 -34.834  1.00  0.00     0.167 HD
HETATM    6  C   UNL     1      -6.383   1.115 -34.210  1.00  0.00     0.020 A 
HETATM    7  C   UNL     1      -5.808   0.283 -33.265  1.00  0.00     0.005 A 
HETATM    8  C   UNL     1      -6.090  -1.149 -33.589  1.00  0.00     0.044 C 
HETATM    9  C   UNL     1      -7.260  -1.008 -34.582  1.00  0.00     0.011 C 
HETATM   10  C   UNL     1      -7.096   0.352 -35.279  1.00  0.00     0.058 C 
ENDROOT
BRANCH   3  11
HETATM   11  C   UNL     1      -5.389   4.439 -33.010  1.00  0.00     0.085 C 
BRANCH  11  12
HETATM   12  C   UNL     1      -4.320   4.837 -31.986  1.00  0.00     0.021 C 
HETATM   13  C   UNL     1      -4.614   6.162 -31.284  1.00  0.00     0.181 C 
HETATM   14  O   UNL     1      -3.687   6.369 -30.219  1.00  0.00    -0.347 OA
HETATM   15  C   UNL     1      -2.363   6.309 -30.572  1.00  0.00     0.108 A 
HETATM   16  C   UNL     1      -1.958   5.636 -31.744  1.00  0.00    -0.021 A 
HETATM   17  C   UNL     1      -1.401   6.886 -29.727  1.00  0.00     0.102 A 
HETATM   18  C   UNL     1      -2.955   4.987 -32.663  1.00  0.00     0.048 C 
HETATM   19  C   UNL     1      -0.599   5.589 -32.087  1.00  0.00     0.010 A 
HETATM   20  C   UNL     1       0.353   6.177 -31.261  1.00  0.00     0.003 A 
HETATM   21  C   UNL     1      -0.048   6.814 -30.089  1.00  0.00     0.039 A 
BRANCH  17  22
HETATM   22  O   UNL     1      -1.582   7.550 -28.544  1.00  0.00    -0.353 OA
HETATM   23  C   UNL     1      -1.448   8.961 -28.514  1.00  0.00     0.210 C 
ENDBRANCH  17  22
ENDBRANCH  11  12
ENDBRANCH   3  11
BRANCH   1  24
HETATM   24  N   UNL     1      -4.540   0.020 -31.252  1.00  0.00    -0.281 NA
HETATM   25  C   UNL     1      -3.092  -0.125 -31.256  1.00  0.00     0.114 C 
HETATM   26  H   UNL     1      -5.007  -0.881 -31.203  1.00  0.00     0.128 HD
ENDBRANCH   1  24
TORSDOF 4
ENDMDL
