MODEL 1
REMARK VINA RESULT:      -9.0      0.000      0.000
REMARK  11 active torsions:
REMARK  status: ('A' for Active; 'I' for Inactive)
REMARK    1  A    between atoms: C_2  and  N_3 
REMARK    2  A    between atoms: N_3  and  C_5 
REMARK    3  A    between atoms: N_3  and  C_35 
REMARK    4  A    between atoms: C_5  and  C_6 
REMARK    5  A    between atoms: C_6  and  C_7 
REMARK    6  A    between atoms: C_7  and  N_8 
REMARK    7  A    between atoms: N_8  and  C_9 
REMARK    8  A    between atoms: N_8  and  C_19 
REMARK    9  A    between atoms: C_9  and  N_10 
REMARK   10  A    between atoms: N_10  and  C_11 
REMARK   11  A    between atoms: C_19  and  C_20 
ROOT
HETATM    1  N   UNL     1      -7.154   1.297 -33.742  1.00  0.00    -0.255 NA
ENDROOT
BRANCH   1   2
HETATM    2  C   UNL     1      -8.441   0.984 -34.392  1.00  0.00     0.100 C 
BRANCH   2   3
HETATM    3  C   UNL     1      -9.558   0.448 -33.477  1.00  0.00     0.042 C 
BRANCH   3   4
HETATM    4  C   UNL     1     -10.788   1.350 -33.470  1.00  0.00     0.236 C 
BRANCH   4   5
HETATM    5  N   UNL     1     -11.007   2.079 -34.792  1.00  0.00    -0.072 N 
HETATM    6  H   UNL     1     -10.303   1.682 -35.431  1.00  0.00     0.279 HD
BRANCH   5   7
HETATM    7  C   UNL     1     -10.709   3.571 -34.746  1.00  0.00     0.230 C 
HETATM    8  C   UNL     1     -10.566   4.066 -33.320  1.00  0.00     0.034 C 
ENDBRANCH   5   7
BRANCH   5   9
HETATM    9  C   UNL     1     -12.342   1.822 -35.468  1.00  0.00     0.230 C 
HETATM   10  C   UNL     1     -13.311   1.107 -34.542  1.00  0.00     0.034 C 
ENDBRANCH   5   9
ENDBRANCH   4   5
ENDBRANCH   3   4
ENDBRANCH   2   3
ENDBRANCH   1   2
BRANCH   1  11
HETATM   11  C   UNL     1      -6.432   0.237 -33.214  1.00  0.00     0.153 C 
HETATM   12  S   UNL     1      -6.360  -0.144 -31.576  1.00  0.00    -0.047 SA
BRANCH  11  13
HETATM   13  N   UNL     1      -5.754  -0.587 -34.060  1.00  0.00    -0.338 N 
HETATM   14  H   UNL     1      -5.150  -0.054 -34.681  1.00  0.00     0.168 HD
BRANCH  13  15
HETATM   15  C   UNL     1      -5.780  -1.975 -34.308  1.00  0.00     0.035 A 
HETATM   16  C   UNL     1      -4.600  -2.676 -34.016  1.00  0.00     0.053 A 
HETATM   17  C   UNL     1      -4.526  -4.055 -34.208  1.00  0.00     0.036 A 
HETATM   18 CL   UNL     1      -3.076  -4.893 -33.816  1.00  0.00    -0.084 Cl
HETATM   19  C   UNL     1      -5.619  -4.758 -34.703  1.00  0.00     0.024 A 
HETATM   20  C   UNL     1      -6.791  -4.070 -35.008  1.00  0.00     0.004 A 
HETATM   21  C   UNL     1      -6.871  -2.685 -34.811  1.00  0.00     0.029 A 
ENDBRANCH  13  15
ENDBRANCH  11  13
ENDBRANCH   1  11
BRANCH   1  22
HETATM   22  C   UNL     1      -7.197   2.469 -32.830  1.00  0.00     0.142 C 
BRANCH  22  23
HETATM   23  C   UNL     1      -5.995   3.363 -32.909  1.00  0.00     0.024 A 
HETATM   24  C   UNL     1      -6.185   4.663 -33.629  1.00  0.00     0.253 A 
HETATM   25  O   UNL     1      -7.203   4.893 -34.278  1.00  0.00    -0.268 OA
HETATM   26  N   UNL     1      -5.173   5.578 -33.553  1.00  0.00    -0.322 N 
HETATM   27  C   UNL     1      -3.973   5.354 -32.872  1.00  0.00     0.048 A 
HETATM   28  H   UNL     1      -5.332   6.461 -34.024  1.00  0.00     0.169 HD
HETATM   29  C   UNL     1      -3.770   4.124 -32.232  1.00  0.00    -0.006 A 
HETATM   30  C   UNL     1      -3.006   6.358 -32.829  1.00  0.00     0.070 A 
HETATM   31  C   UNL     1      -2.569   3.896 -31.554  1.00  0.00     0.053 A 
HETATM   32  C   UNL     1      -4.843   3.126 -32.256  1.00  0.00     0.027 A 
HETATM   33  C   UNL     1      -1.595   4.895 -31.513  1.00  0.00     0.103 A 
HETATM   34  C   UNL     1      -1.825   6.132 -32.128  1.00  0.00     0.104 A 
HETATM   35  O   UNL     1      -0.440   4.601 -30.833  1.00  0.00    -0.346 OA
HETATM   36  O   UNL     1      -0.931   7.172 -32.082  1.00  0.00    -0.346 OA
HETATM   37  C   UNL     1       0.036   6.978 -31.044  1.00  0.00     0.202 C 
HETATM   38  C   UNL     1       0.591   5.563 -31.095  1.00  0.00     0.202 C 
ENDBRANCH  22  23
ENDBRANCH   1  22
TORSDOF 11
ENDMDL
MODEL 2
REMARK VINA RESULT:      -8.8      3.532      7.868
REMARK  11 active torsions:
REMARK  status: ('A' for Active; 'I' for Inactive)
REMARK    1  A    between atoms: C_2  and  N_3 
REMARK    2  A    between atoms: N_3  and  C_5 
REMARK    3  A    between atoms: N_3  and  C_35 
REMARK    4  A    between atoms: C_5  and  C_6 
REMARK    5  A    between atoms: C_6  and  C_7 
REMARK    6  A    between atoms: C_7  and  N_8 
REMARK    7  A    between atoms: N_8  and  C_9 
REMARK    8  A    between atoms: N_8  and  C_19 
REMARK    9  A    between atoms: C_9  and  N_10 
REMARK   10  A    between atoms: N_10  and  C_11 
REMARK   11  A    between atoms: C_19  and  C_20 
ROOT
HETATM    1  N   UNL     1      -6.640   3.534 -31.648  1.00  0.00    -0.255 NA
ENDROOT
BRANCH   1   2
HETATM    2  C   UNL     1      -6.569   4.679 -32.576  1.00  0.00     0.100 C 
BRANCH   2   3
HETATM    3  C   UNL     1      -5.959   4.400 -33.962  1.00  0.00     0.042 C 
BRANCH   3   4
HETATM    4  C   UNL     1      -4.745   5.275 -34.252  1.00  0.00     0.236 C 
BRANCH   4   5
HETATM    5  N   UNL     1      -3.627   5.111 -33.226  1.00  0.00    -0.072 N 
HETATM    6  H   UNL     1      -4.012   4.471 -32.517  1.00  0.00     0.279 HD
BRANCH   5   7
HETATM    7  C   UNL     1      -3.275   6.383 -32.468  1.00  0.00     0.230 C 
HETATM    8  C   UNL     1      -3.464   6.210 -30.973  1.00  0.00     0.034 C 
ENDBRANCH   5   7
BRANCH   5   9
HETATM    9  C   UNL     1      -2.369   4.427 -33.733  1.00  0.00     0.230 C 
HETATM   10  C   UNL     1      -1.454   5.399 -34.455  1.00  0.00     0.034 C 
ENDBRANCH   5   9
ENDBRANCH   4   5
ENDBRANCH   3   4
ENDBRANCH   2   3
ENDBRANCH   1   2
BRANCH   1  11
HETATM   11  C   UNL     1      -7.521   3.634 -30.580  1.00  0.00     0.153 C 
HETATM   12  S   UNL     1      -7.363   4.731 -29.314  1.00  0.00    -0.047 SA
BRANCH  11  13
HETATM   13  N   UNL     1      -8.615   2.822 -30.548  1.00  0.00    -0.338 N 
HETATM   14  H   UNL     1      -8.976   2.734 -29.602  1.00  0.00     0.168 HD
BRANCH  13  15
HETATM   15  C   UNL     1      -9.276   2.030 -31.509  1.00  0.00     0.035 A 
HETATM   16  C   UNL     1     -10.177   2.703 -32.348  1.00  0.00     0.053 A 
HETATM   17  C   UNL     1     -10.871   2.016 -33.344  1.00  0.00     0.036 A 
HETATM   18 CL   UNL     1     -11.949   2.872 -34.375  1.00  0.00    -0.084 Cl
HETATM   19  C   UNL     1     -10.688   0.649 -33.516  1.00  0.00     0.024 A 
HETATM   20  C   UNL     1      -9.805  -0.031 -32.680  1.00  0.00     0.004 A 
HETATM   21  C   UNL     1      -9.103   0.657 -31.682  1.00  0.00     0.029 A 
ENDBRANCH  13  15
ENDBRANCH  11  13
ENDBRANCH   1  11
BRANCH   1  22
HETATM   22  C   UNL     1      -5.319   2.986 -31.248  1.00  0.00     0.142 C 
BRANCH  22  23
HETATM   23  C   UNL     1      -4.937   1.713 -31.946  1.00  0.00     0.024 A 
HETATM   24  C   UNL     1      -3.532   1.240 -31.734  1.00  0.00     0.253 A 
HETATM   25  O   UNL     1      -2.693   1.949 -31.183  1.00  0.00    -0.268 OA
HETATM   26  N   UNL     1      -3.212  -0.006 -32.194  1.00  0.00    -0.322 N 
HETATM   27  C   UNL     1      -4.110  -0.838 -32.871  1.00  0.00     0.048 A 
HETATM   28  H   UNL     1      -2.266  -0.319 -32.018  1.00  0.00     0.169 HD
HETATM   29  C   UNL     1      -5.414  -0.385 -33.111  1.00  0.00    -0.006 A 
HETATM   30  C   UNL     1      -3.699  -2.106 -33.283  1.00  0.00     0.070 A 
HETATM   31  C   UNL     1      -6.312  -1.214 -33.790  1.00  0.00     0.053 A 
HETATM   32  C   UNL     1      -5.813   0.931 -32.603  1.00  0.00     0.027 A 
HETATM   33  C   UNL     1      -5.905  -2.481 -34.211  1.00  0.00     0.103 A 
HETATM   34  C   UNL     1      -4.608  -2.934 -33.934  1.00  0.00     0.104 A 
HETATM   35  O   UNL     1      -6.836  -3.237 -34.875  1.00  0.00    -0.346 OA
HETATM   36  O   UNL     1      -4.162  -4.185 -34.275  1.00  0.00    -0.346 OA
HETATM   37  C   UNL     1      -5.255  -5.062 -34.574  1.00  0.00     0.202 C 
HETATM   38  C   UNL     1      -6.241  -4.379 -35.508  1.00  0.00     0.202 C 
ENDBRANCH  22  23
ENDBRANCH   1  22
TORSDOF 11
ENDMDL
MODEL 3
REMARK VINA RESULT:      -8.7      2.500      5.651
REMARK  11 active torsions:
REMARK  status: ('A' for Active; 'I' for Inactive)
REMARK    1  A    between atoms: C_2  and  N_3 
REMARK    2  A    between atoms: N_3  and  C_5 
REMARK    3  A    between atoms: N_3  and  C_35 
REMARK    4  A    between atoms: C_5  and  C_6 
REMARK    5  A    between atoms: C_6  and  C_7 
REMARK    6  A    between atoms: C_7  and  N_8 
REMARK    7  A    between atoms: N_8  and  C_9 
REMARK    8  A    between atoms: N_8  and  C_19 
REMARK    9  A    between atoms: C_9  and  N_10 
REMARK   10  A    between atoms: N_10  and  C_11 
REMARK   11  A    between atoms: C_19  and  C_20 
ROOT
HETATM    1  N   UNL     1      -7.675   1.605 -32.346  1.00  0.00    -0.255 NA
ENDROOT
BRANCH   1   2
HETATM    2  C   UNL     1      -7.359   0.163 -32.329  1.00  0.00     0.100 C 
BRANCH   2   3
HETATM    3  C   UNL     1      -7.182  -0.515 -33.700  1.00  0.00     0.042 C 
BRANCH   3   4
HETATM    4  C   UNL     1      -5.723  -0.835 -34.008  1.00  0.00     0.236 C 
BRANCH   4   5
HETATM    5  N   UNL     1      -5.526  -2.224 -34.607  1.00  0.00    -0.072 N 
HETATM    6  H   UNL     1      -5.256  -2.053 -35.586  1.00  0.00     0.279 HD
BRANCH   5   7
HETATM    7  C   UNL     1      -6.793  -3.064 -34.683  1.00  0.00     0.230 C 
HETATM    8  C   UNL     1      -6.487  -4.499 -35.071  1.00  0.00     0.034 C 
ENDBRANCH   5   7
BRANCH   5   9
HETATM    9  C   UNL     1      -4.383  -3.034 -34.020  1.00  0.00     0.230 C 
HETATM   10  C   UNL     1      -3.773  -2.349 -32.810  1.00  0.00     0.034 C 
ENDBRANCH   5   9
ENDBRANCH   4   5
ENDBRANCH   3   4
ENDBRANCH   2   3
ENDBRANCH   1   2
BRANCH   1  11
HETATM   11  C   UNL     1      -8.939   1.984 -31.919  1.00  0.00     0.153 C 
HETATM   12  S   UNL     1      -9.238   3.152 -30.745  1.00  0.00    -0.047 SA
BRANCH  11  13
HETATM   13  N   UNL     1     -10.032   1.412 -32.499  1.00  0.00    -0.338 N 
HETATM   14  H   UNL     1     -10.143   0.448 -32.195  1.00  0.00     0.168 HD
BRANCH  13  15
HETATM   15  C   UNL     1     -10.960   1.835 -33.472  1.00  0.00     0.035 A 
HETATM   16  C   UNL     1     -12.171   1.127 -33.518  1.00  0.00     0.053 A 
HETATM   17  C   UNL     1     -13.165   1.477 -34.433  1.00  0.00     0.036 A 
HETATM   18 CL   UNL     1     -14.649   0.609 -34.449  1.00  0.00    -0.084 Cl
HETATM   19  C   UNL     1     -12.968   2.528 -35.320  1.00  0.00     0.024 A 
HETATM   20  C   UNL     1     -11.765   3.230 -35.291  1.00  0.00     0.004 A 
HETATM   21  C   UNL     1     -10.766   2.885 -34.371  1.00  0.00     0.029 A 
ENDBRANCH  13  15
ENDBRANCH  11  13
ENDBRANCH   1  11
BRANCH   1  22
HETATM   22  C   UNL     1      -7.255   2.310 -33.583  1.00  0.00     0.142 C 
BRANCH  22  23
HETATM   23  C   UNL     1      -6.153   3.310 -33.385  1.00  0.00     0.024 A 
HETATM   24  C   UNL     1      -6.495   4.737 -33.682  1.00  0.00     0.253 A 
HETATM   25  O   UNL     1      -7.548   5.042 -34.236  1.00  0.00    -0.268 OA
HETATM   26  N   UNL     1      -5.581   5.690 -33.330  1.00  0.00    -0.322 N 
HETATM   27  C   UNL     1      -4.345   5.401 -32.742  1.00  0.00     0.048 A 
HETATM   28  H   UNL     1      -5.841   6.651 -33.514  1.00  0.00     0.169 HD
HETATM   29  C   UNL     1      -4.000   4.064 -32.499  1.00  0.00    -0.006 A 
HETATM   30  C   UNL     1      -3.486   6.442 -32.394  1.00  0.00     0.070 A 
HETATM   31  C   UNL     1      -2.764   3.772 -31.915  1.00  0.00     0.053 A 
HETATM   32  C   UNL     1      -4.965   3.011 -32.827  1.00  0.00     0.027 A 
HETATM   33  C   UNL     1      -1.897   4.811 -31.571  1.00  0.00     0.103 A 
HETATM   34  C   UNL     1      -2.270   6.143 -31.788  1.00  0.00     0.104 A 
HETATM   35  O   UNL     1      -0.700   4.451 -31.006  1.00  0.00    -0.346 OA
HETATM   36  O   UNL     1      -1.486   7.210 -31.428  1.00  0.00    -0.346 OA
HETATM   37  C   UNL     1      -0.475   6.818 -30.491  1.00  0.00     0.202 C 
HETATM   38  C   UNL     1       0.219   5.551 -30.961  1.00  0.00     0.202 C 
ENDBRANCH  22  23
ENDBRANCH   1  22
TORSDOF 11
ENDMDL
MODEL 4
REMARK VINA RESULT:      -8.7      3.161      8.202
REMARK  11 active torsions:
REMARK  status: ('A' for Active; 'I' for Inactive)
REMARK    1  A    between atoms: C_2  and  N_3 
REMARK    2  A    between atoms: N_3  and  C_5 
REMARK    3  A    between atoms: N_3  and  C_35 
REMARK    4  A    between atoms: C_5  and  C_6 
REMARK    5  A    between atoms: C_6  and  C_7 
REMARK    6  A    between atoms: C_7  and  N_8 
REMARK    7  A    between atoms: N_8  and  C_9 
REMARK    8  A    between atoms: N_8  and  C_19 
REMARK    9  A    between atoms: C_9  and  N_10 
REMARK   10  A    between atoms: N_10  and  C_11 
REMARK   11  A    between atoms: C_19  and  C_20 
ROOT
HETATM    1  N   UNL     1      -6.120   4.378 -32.849  1.00  0.00    -0.255 NA
ENDROOT
BRANCH   1   2
HETATM    2  C   UNL     1      -5.223   5.549 -32.878  1.00  0.00     0.100 C 
BRANCH   2   3
HETATM    3  C   UNL     1      -4.421   5.830 -31.594  1.00  0.00     0.042 C 
BRANCH   3   4
HETATM    4  C   UNL     1      -3.049   6.429 -31.882  1.00  0.00     0.236 C 
BRANCH   4   5
HETATM    5  N   UNL     1      -1.965   5.377 -32.094  1.00  0.00    -0.072 N 
HETATM    6  H   UNL     1      -2.474   4.484 -32.160  1.00  0.00     0.279 HD
BRANCH   5   7
HETATM    7  C   UNL     1      -1.013   5.208 -30.918  1.00  0.00     0.230 C 
HETATM    8  C   UNL     1       0.316   5.893 -31.175  1.00  0.00     0.034 C 
ENDBRANCH   5   7
BRANCH   5   9
HETATM    9  C   UNL     1      -1.190   5.487 -33.395  1.00  0.00     0.230 C 
HETATM   10  C   UNL     1      -1.970   4.910 -34.563  1.00  0.00     0.034 C 
ENDBRANCH   5   9
ENDBRANCH   4   5
ENDBRANCH   3   4
ENDBRANCH   2   3
ENDBRANCH   1   2
BRANCH   1  11
HETATM   11  C   UNL     1      -7.486   4.622 -32.867  1.00  0.00     0.153 C 
HETATM   12  S   UNL     1      -8.325   5.436 -31.657  1.00  0.00    -0.047 SA
BRANCH  11  13
HETATM   13  N   UNL     1      -8.215   4.214 -33.943  1.00  0.00    -0.338 N 
HETATM   14  H   UNL     1      -7.906   4.681 -34.792  1.00  0.00     0.168 HD
BRANCH  13  15
HETATM   15  C   UNL     1      -9.334   3.371 -34.107  1.00  0.00     0.035 A 
HETATM   16  C   UNL     1      -9.261   2.120 -33.477  1.00  0.00     0.053 A 
HETATM   17  C   UNL     1     -10.322   1.218 -33.561  1.00  0.00     0.036 A 
HETATM   18 CL   UNL     1     -10.215  -0.298 -32.756  1.00  0.00    -0.084 Cl
HETATM   19  C   UNL     1     -11.466   1.541 -34.280  1.00  0.00     0.024 A 
HETATM   20  C   UNL     1     -11.544   2.776 -34.920  1.00  0.00     0.004 A 
HETATM   21  C   UNL     1     -10.483   3.686 -34.833  1.00  0.00     0.029 A 
ENDBRANCH  13  15
ENDBRANCH  11  13
ENDBRANCH   1  11
BRANCH   1  22
HETATM   22  C   UNL     1      -5.740   3.339 -31.858  1.00  0.00     0.142 C 
BRANCH  22  23
HETATM   23  C   UNL     1      -5.287   2.041 -32.462  1.00  0.00     0.024 A 
HETATM   24  C   UNL     1      -3.841   1.696 -32.276  1.00  0.00     0.253 A 
HETATM   25  O   UNL     1      -3.040   2.512 -31.829  1.00  0.00    -0.268 OA
HETATM   26  N   UNL     1      -3.443   0.441 -32.643  1.00  0.00    -0.322 N 
HETATM   27  C   UNL     1      -4.298  -0.513 -33.203  1.00  0.00     0.048 A 
HETATM   28  H   UNL     1      -2.468   0.217 -32.485  1.00  0.00     0.169 HD
HETATM   29  C   UNL     1      -5.643  -0.182 -33.419  1.00  0.00    -0.006 A 
HETATM   30  C   UNL     1      -3.805  -1.778 -33.524  1.00  0.00     0.070 A 
HETATM   31  C   UNL     1      -6.499  -1.133 -33.982  1.00  0.00     0.053 A 
HETATM   32  C   UNL     1      -6.123   1.139 -33.008  1.00  0.00     0.027 A 
HETATM   33  C   UNL     1      -6.010  -2.399 -34.312  1.00  0.00     0.103 A 
HETATM   34  C   UNL     1      -4.672  -2.727 -34.059  1.00  0.00     0.104 A 
HETATM   35  O   UNL     1      -6.904  -3.279 -34.865  1.00  0.00    -0.346 OA
HETATM   36  O   UNL     1      -4.142  -3.966 -34.312  1.00  0.00    -0.346 OA
HETATM   37  C   UNL     1      -5.173  -4.946 -34.484  1.00  0.00     0.202 C 
HETATM   38  C   UNL     1      -6.247  -4.425 -35.425  1.00  0.00     0.202 C 
ENDBRANCH  22  23
ENDBRANCH   1  22
TORSDOF 11
ENDMDL
MODEL 5
REMARK VINA RESULT:      -8.6      2.765      5.708
REMARK  11 active torsions:
REMARK  status: ('A' for Active; 'I' for Inactive)
REMARK    1  A    between atoms: C_2  and  N_3 
REMARK    2  A    between atoms: N_3  and  C_5 
REMARK    3  A    between atoms: N_3  and  C_35 
REMARK    4  A    between atoms: C_5  and  C_6 
REMARK    5  A    between atoms: C_6  and  C_7 
REMARK    6  A    between atoms: C_7  and  N_8 
REMARK    7  A    between atoms: N_8  and  C_9 
REMARK    8  A    between atoms: N_8  and  C_19 
REMARK    9  A    between atoms: C_9  and  N_10 
REMARK   10  A    between atoms: N_10  and  C_11 
REMARK   11  A    between atoms: C_19  and  C_20 
ROOT
HETATM    1  N   UNL     1      -8.265   0.942 -33.124  1.00  0.00    -0.255 NA
ENDROOT
BRANCH   1   2
HETATM    2  C   UNL     1      -7.994  -0.467 -33.470  1.00  0.00     0.100 C 
BRANCH   2   3
HETATM    3  C   UNL     1      -7.333  -0.722 -34.837  1.00  0.00     0.042 C 
BRANCH   3   4
HETATM    4  C   UNL     1      -5.828  -0.940 -34.725  1.00  0.00     0.236 C 
BRANCH   4   5
HETATM    5  N   UNL     1      -5.460  -2.280 -34.094  1.00  0.00    -0.072 N 
HETATM    6  H   UNL     1      -6.216  -2.471 -33.422  1.00  0.00     0.279 HD
BRANCH   5   7
HETATM    7  C   UNL     1      -4.184  -2.257 -33.264  1.00  0.00     0.230 C 
HETATM    8  C   UNL     1      -3.651  -0.846 -33.102  1.00  0.00     0.034 C 
ENDBRANCH   5   7
BRANCH   5   9
HETATM    9  C   UNL     1      -5.462  -3.470 -35.038  1.00  0.00     0.230 C 
HETATM   10  C   UNL     1      -6.718  -4.308 -34.882  1.00  0.00     0.034 C 
ENDBRANCH   5   9
ENDBRANCH   4   5
ENDBRANCH   3   4
ENDBRANCH   2   3
ENDBRANCH   1   2
BRANCH   1  11
HETATM   11  C   UNL     1      -9.473   1.224 -32.503  1.00  0.00     0.153 C 
HETATM   12  S   UNL     1     -10.985   0.909 -33.173  1.00  0.00    -0.047 SA
BRANCH  11  13
HETATM   13  N   UNL     1      -9.464   1.763 -31.252  1.00  0.00    -0.338 N 
HETATM   14  H   UNL     1      -9.874   1.124 -30.576  1.00  0.00     0.168 HD
BRANCH  13  15
HETATM   15  C   UNL     1      -9.096   3.020 -30.729  1.00  0.00     0.035 A 
HETATM   16  C   UNL     1      -7.778   3.132 -30.262  1.00  0.00     0.053 A 
HETATM   17  C   UNL     1      -7.308   4.338 -29.741  1.00  0.00     0.036 A 
HETATM   18 CL   UNL     1      -5.679   4.454 -29.201  1.00  0.00    -0.084 Cl
HETATM   19  C   UNL     1      -8.142   5.447 -29.667  1.00  0.00     0.024 A 
HETATM   20  C   UNL     1      -9.457   5.343 -30.117  1.00  0.00     0.004 A 
HETATM   21  C   UNL     1      -9.931   4.135 -30.645  1.00  0.00     0.029 A 
ENDBRANCH  13  15
ENDBRANCH  11  13
ENDBRANCH   1  11
BRANCH   1  22
HETATM   22  C   UNL     1      -7.936   1.911 -34.199  1.00  0.00     0.142 C 
BRANCH  22  23
HETATM   23  C   UNL     1      -6.918   2.945 -33.815  1.00  0.00     0.024 A 
HETATM   24  C   UNL     1      -7.382   4.369 -33.839  1.00  0.00     0.253 A 
HETATM   25  O   UNL     1      -8.465   4.683 -34.328  1.00  0.00    -0.268 OA
HETATM   26  N   UNL     1      -6.545   5.312 -33.313  1.00  0.00    -0.322 N 
HETATM   27  C   UNL     1      -5.282   5.023 -32.787  1.00  0.00     0.048 A 
HETATM   28  H   UNL     1      -6.887   6.265 -33.314  1.00  0.00     0.169 HD
HETATM   29  C   UNL     1      -4.823   3.698 -32.800  1.00  0.00    -0.006 A 
HETATM   30  C   UNL     1      -4.507   6.049 -32.249  1.00  0.00     0.070 A 
HETATM   31  C   UNL     1      -3.559   3.407 -32.278  1.00  0.00     0.053 A 
HETATM   32  C   UNL     1      -5.702   2.648 -33.321  1.00  0.00     0.027 A 
HETATM   33  C   UNL     1      -2.776   4.432 -31.744  1.00  0.00     0.103 A 
HETATM   34  C   UNL     1      -3.261   5.745 -31.707  1.00  0.00     0.104 A 
HETATM   35  O   UNL     1      -1.546   4.074 -31.254  1.00  0.00    -0.346 OA
HETATM   36  O   UNL     1      -2.564   6.788 -31.151  1.00  0.00    -0.346 OA
HETATM   37  C   UNL     1      -1.511   6.314 -30.303  1.00  0.00     0.202 C 
HETATM   38  C   UNL     1      -0.720   5.220 -31.002  1.00  0.00     0.202 C 
ENDBRANCH  22  23
ENDBRANCH   1  22
TORSDOF 11
ENDMDL
MODEL 6
REMARK VINA RESULT:      -8.6      2.155      7.682
REMARK  11 active torsions:
REMARK  status: ('A' for Active; 'I' for Inactive)
REMARK    1  A    between atoms: C_2  and  N_3 
REMARK    2  A    between atoms: N_3  and  C_5 
REMARK    3  A    between atoms: N_3  and  C_35 
REMARK    4  A    between atoms: C_5  and  C_6 
REMARK    5  A    between atoms: C_6  and  C_7 
REMARK    6  A    between atoms: C_7  and  N_8 
REMARK    7  A    between atoms: N_8  and  C_9 
REMARK    8  A    between atoms: N_8  and  C_19 
REMARK    9  A    between atoms: C_9  and  N_10 
REMARK   10  A    between atoms: N_10  and  C_11 
REMARK   11  A    between atoms: C_19  and  C_20 
ROOT
HETATM    1  N   UNL     1      -5.141   1.963 -32.351  1.00  0.00    -0.255 NA
ENDROOT
BRANCH   1   2
HETATM    2  C   UNL     1      -3.809   2.466 -31.962  1.00  0.00     0.100 C 
BRANCH   2   3
HETATM    3  C   UNL     1      -3.706   3.973 -31.666  1.00  0.00     0.042 C 
BRANCH   3   4
HETATM    4  C   UNL     1      -2.282   4.499 -31.810  1.00  0.00     0.236 C 
BRANCH   4   5
HETATM    5  N   UNL     1      -2.077   5.344 -33.064  1.00  0.00    -0.072 N 
HETATM    6  H   UNL     1      -1.651   4.702 -33.747  1.00  0.00     0.279 HD
BRANCH   5   7
HETATM    7  C   UNL     1      -1.076   6.479 -32.903  1.00  0.00     0.230 C 
HETATM    8  C   UNL     1      -1.764   7.831 -32.894  1.00  0.00     0.034 C 
ENDBRANCH   5   7
BRANCH   5   9
HETATM    9  C   UNL     1      -3.347   5.844 -33.730  1.00  0.00     0.230 C 
HETATM   10  C   UNL     1      -3.512   5.269 -35.126  1.00  0.00     0.034 C 
ENDBRANCH   5   9
ENDBRANCH   4   5
ENDBRANCH   3   4
ENDBRANCH   2   3
ENDBRANCH   1   2
BRANCH   1  11
HETATM   11  C   UNL     1      -5.331   0.589 -32.340  1.00  0.00     0.153 C 
HETATM   12  S   UNL     1      -5.980  -0.273 -31.049  1.00  0.00    -0.047 SA
BRANCH  11  13
HETATM   13  N   UNL     1      -5.009  -0.132 -33.451  1.00  0.00    -0.338 N 
HETATM   14  H   UNL     1      -4.477   0.431 -34.109  1.00  0.00     0.168 HD
BRANCH  13  15
HETATM   15  C   UNL     1      -5.327  -1.428 -33.905  1.00  0.00     0.035 A 
HETATM   16  C   UNL     1      -4.311  -2.389 -33.789  1.00  0.00     0.053 A 
HETATM   17  C   UNL     1      -4.528  -3.706 -34.192  1.00  0.00     0.036 A 
HETATM   18 CL   UNL     1      -3.272  -4.868 -34.014  1.00  0.00    -0.084 Cl
HETATM   19  C   UNL     1      -5.753  -4.088 -34.725  1.00  0.00     0.024 A 
HETATM   20  C   UNL     1      -6.765  -3.139 -34.856  1.00  0.00     0.004 A 
HETATM   21  C   UNL     1      -6.553  -1.816 -34.447  1.00  0.00     0.029 A 
ENDBRANCH  13  15
ENDBRANCH  11  13
ENDBRANCH   1  11
BRANCH   1  22
HETATM   22  C   UNL     1      -5.709   2.607 -33.563  1.00  0.00     0.142 C 
BRANCH  22  23
HETATM   23  C   UNL     1      -7.205   2.732 -33.558  1.00  0.00     0.024 A 
HETATM   24  C   UNL     1      -7.756   4.077 -33.915  1.00  0.00     0.253 A 
HETATM   25  O   UNL     1      -7.029   5.062 -34.015  1.00  0.00    -0.268 OA
HETATM   26  N   UNL     1      -9.106   4.173 -34.106  1.00  0.00    -0.322 N 
HETATM   27  C   UNL     1      -9.990   3.099 -33.958  1.00  0.00     0.048 A 
HETATM   28  H   UNL     1      -9.457   5.084 -34.373  1.00  0.00     0.169 HD
HETATM   29  C   UNL     1      -9.485   1.846 -33.582  1.00  0.00    -0.006 A 
HETATM   30  C   UNL     1     -11.350   3.287 -34.198  1.00  0.00     0.070 A 
HETATM   31  C   UNL     1     -10.367   0.772 -33.430  1.00  0.00     0.053 A 
HETATM   32  C   UNL     1      -8.040   1.689 -33.402  1.00  0.00     0.027 A 
HETATM   33  C   UNL     1     -11.732   0.956 -33.663  1.00  0.00     0.103 A 
HETATM   34  C   UNL     1     -12.216   2.205 -34.071  1.00  0.00     0.104 A 
HETATM   35  O   UNL     1     -12.538  -0.140 -33.490  1.00  0.00    -0.346 OA
HETATM   36  O   UNL     1     -13.536   2.439 -34.364  1.00  0.00    -0.346 OA
HETATM   37  C   UNL     1     -14.245   1.212 -34.575  1.00  0.00     0.202 C 
HETATM   38  C   UNL     1     -13.926   0.219 -33.469  1.00  0.00     0.202 C 
ENDBRANCH  22  23
ENDBRANCH   1  22
TORSDOF 11
ENDMDL
MODEL 7
REMARK VINA RESULT:      -8.6      3.651      7.908
REMARK  11 active torsions:
REMARK  status: ('A' for Active; 'I' for Inactive)
REMARK    1  A    between atoms: C_2  and  N_3 
REMARK    2  A    between atoms: N_3  and  C_5 
REMARK    3  A    between atoms: N_3  and  C_35 
REMARK    4  A    between atoms: C_5  and  C_6 
REMARK    5  A    between atoms: C_6  and  C_7 
REMARK    6  A    between atoms: C_7  and  N_8 
REMARK    7  A    between atoms: N_8  and  C_9 
REMARK    8  A    between atoms: N_8  and  C_19 
REMARK    9  A    between atoms: C_9  and  N_10 
REMARK   10  A    between atoms: N_10  and  C_11 
REMARK   11  A    between atoms: C_19  and  C_20 
ROOT
HETATM    1  N   UNL     1      -5.663   3.619 -30.768  1.00  0.00    -0.255 NA
ENDROOT
BRANCH   1   2
HETATM    2  C   UNL     1      -6.893   3.139 -30.107  1.00  0.00     0.100 C 
BRANCH   2   3
HETATM    3  C   UNL     1      -8.217   3.412 -30.843  1.00  0.00     0.042 C 
BRANCH   3   4
HETATM    4  C   UNL     1      -9.054   2.150 -31.025  1.00  0.00     0.236 C 
BRANCH   4   5
HETATM    5  N   UNL     1     -10.036   2.243 -32.189  1.00  0.00    -0.072 N 
HETATM    6  H   UNL     1     -10.950   1.995 -31.783  1.00  0.00     0.279 HD
BRANCH   5   7
HETATM    7  C   UNL     1      -9.801   1.225 -33.296  1.00  0.00     0.230 C 
HETATM    8  C   UNL     1      -9.968  -0.195 -32.790  1.00  0.00     0.034 C 
ENDBRANCH   5   7
BRANCH   5   9
HETATM    9  C   UNL     1     -10.229   3.631 -32.773  1.00  0.00     0.230 C 
HETATM   10  C   UNL     1      -9.747   3.707 -34.211  1.00  0.00     0.034 C 
ENDBRANCH   5   9
ENDBRANCH   4   5
ENDBRANCH   3   4
ENDBRANCH   2   3
ENDBRANCH   1   2
BRANCH   1  11
HETATM   11  C   UNL     1      -5.154   4.841 -30.354  1.00  0.00     0.153 C 
HETATM   12  S   UNL     1      -6.080   6.094 -29.719  1.00  0.00    -0.047 SA
BRANCH  11  13
HETATM   13  N   UNL     1      -3.810   5.054 -30.426  1.00  0.00    -0.338 N 
HETATM   14  H   UNL     1      -3.327   4.599 -29.656  1.00  0.00     0.168 HD
BRANCH  13  15
HETATM   15  C   UNL     1      -2.983   5.826 -31.269  1.00  0.00     0.035 A 
HETATM   16  C   UNL     1      -1.656   5.993 -30.846  1.00  0.00     0.053 A 
HETATM   17  C   UNL     1      -0.751   6.724 -31.615  1.00  0.00     0.036 A 
HETATM   18 CL   UNL     1       0.877   6.890 -31.085  1.00  0.00    -0.084 Cl
HETATM   19  C   UNL     1      -1.153   7.308 -32.811  1.00  0.00     0.024 A 
HETATM   20  C   UNL     1      -2.472   7.159 -33.234  1.00  0.00     0.004 A 
HETATM   21  C   UNL     1      -3.382   6.421 -32.466  1.00  0.00     0.029 A 
ENDBRANCH  13  15
ENDBRANCH  11  13
ENDBRANCH   1  11
BRANCH   1  22
HETATM   22  C   UNL     1      -5.664   3.472 -32.246  1.00  0.00     0.142 C 
BRANCH  22  23
HETATM   23  C   UNL     1      -5.225   2.123 -32.737  1.00  0.00     0.024 A 
HETATM   24  C   UNL     1      -3.821   1.723 -32.400  1.00  0.00     0.253 A 
HETATM   25  O   UNL     1      -3.023   2.526 -31.922  1.00  0.00    -0.268 OA
HETATM   26  N   UNL     1      -3.455   0.433 -32.663  1.00  0.00    -0.322 N 
HETATM   27  C   UNL     1      -4.303  -0.511 -33.250  1.00  0.00     0.048 A 
HETATM   28  H   UNL     1      -2.511   0.174 -32.403  1.00  0.00     0.169 HD
HETATM   29  C   UNL     1      -5.604  -0.132 -33.607  1.00  0.00    -0.006 A 
HETATM   30  C   UNL     1      -3.848  -1.813 -33.458  1.00  0.00     0.070 A 
HETATM   31  C   UNL     1      -6.453  -1.073 -34.197  1.00  0.00     0.053 A 
HETATM   32  C   UNL     1      -6.053   1.231 -33.310  1.00  0.00     0.027 A 
HETATM   33  C   UNL     1      -6.000  -2.376 -34.414  1.00  0.00     0.103 A 
HETATM   34  C   UNL     1      -4.709  -2.750 -34.021  1.00  0.00     0.104 A 
HETATM   35  O   UNL     1      -6.885  -3.245 -35.001  1.00  0.00    -0.346 OA
HETATM   36  O   UNL     1      -4.221  -4.025 -34.159  1.00  0.00    -0.346 OA
HETATM   37  C   UNL     1      -5.281  -4.964 -34.375  1.00  0.00     0.202 C 
HETATM   38  C   UNL     1      -6.238  -4.448 -35.437  1.00  0.00     0.202 C 
ENDBRANCH  22  23
ENDBRANCH   1  22
TORSDOF 11
ENDMDL
MODEL 8
REMARK VINA RESULT:      -8.5      2.775      7.932
REMARK  11 active torsions:
REMARK  status: ('A' for Active; 'I' for Inactive)
REMARK    1  A    between atoms: C_2  and  N_3 
REMARK    2  A    between atoms: N_3  and  C_5 
REMARK    3  A    between atoms: N_3  and  C_35 
REMARK    4  A    between atoms: C_5  and  C_6 
REMARK    5  A    between atoms: C_6  and  C_7 
REMARK    6  A    between atoms: C_7  and  N_8 
REMARK    7  A    between atoms: N_8  and  C_9 
REMARK    8  A    between atoms: N_8  and  C_19 
REMARK    9  A    between atoms: C_9  and  N_10 
REMARK   10  A    between atoms: N_10  and  C_11 
REMARK   11  A    between atoms: C_19  and  C_20 
ROOT
HETATM    1  N   UNL     1      -5.173   1.766 -32.252  1.00  0.00    -0.255 NA
ENDROOT
BRANCH   1   2
HETATM    2  C   UNL     1      -3.874   2.250 -31.746  1.00  0.00     0.100 C 
BRANCH   2   3
HETATM    3  C   UNL     1      -3.215   3.397 -32.535  1.00  0.00     0.042 C 
BRANCH   3   4
HETATM    4  C   UNL     1      -2.343   4.284 -31.654  1.00  0.00     0.236 C 
BRANCH   4   5
HETATM    5  N   UNL     1      -1.496   5.274 -32.449  1.00  0.00    -0.072 N 
HETATM    6  H   UNL     1      -0.653   4.745 -32.715  1.00  0.00     0.279 HD
BRANCH   5   7
HETATM    7  C   UNL     1      -0.986   6.459 -31.641  1.00  0.00     0.230 C 
HETATM    8  C   UNL     1       0.379   6.177 -31.042  1.00  0.00     0.034 C 
ENDBRANCH   5   7
BRANCH   5   9
HETATM    9  C   UNL     1      -2.098   5.742 -33.762  1.00  0.00     0.230 C 
HETATM   10  C   UNL     1      -1.221   5.372 -34.945  1.00  0.00     0.034 C 
ENDBRANCH   5   9
ENDBRANCH   4   5
ENDBRANCH   3   4
ENDBRANCH   2   3
ENDBRANCH   1   2
BRANCH   1  11
HETATM   11  C   UNL     1      -5.385   0.395 -32.255  1.00  0.00     0.153 C 
HETATM   12  S   UNL     1      -6.390  -0.416 -31.176  1.00  0.00    -0.047 SA
BRANCH  11  13
HETATM   13  N   UNL     1      -4.775  -0.365 -33.207  1.00  0.00    -0.338 N 
HETATM   14  H   UNL     1      -4.490   0.203 -34.000  1.00  0.00     0.168 HD
BRANCH  13  15
HETATM   15  C   UNL     1      -4.543  -1.749 -33.356  1.00  0.00     0.035 A 
HETATM   16  C   UNL     1      -5.372  -2.417 -34.270  1.00  0.00     0.053 A 
HETATM   17  C   UNL     1      -5.215  -3.783 -34.505  1.00  0.00     0.036 A 
HETATM   18 CL   UNL     1      -6.228  -4.570 -35.651  1.00  0.00    -0.084 Cl
HETATM   19  C   UNL     1      -4.239  -4.507 -33.831  1.00  0.00     0.024 A 
HETATM   20  C   UNL     1      -3.419  -3.855 -32.912  1.00  0.00     0.004 A 
HETATM   21  C   UNL     1      -3.571  -2.483 -32.677  1.00  0.00     0.029 A 
ENDBRANCH  13  15
ENDBRANCH  11  13
ENDBRANCH   1  11
BRANCH   1  22
HETATM   22  C   UNL     1      -5.620   2.415 -33.511  1.00  0.00     0.142 C 
BRANCH  22  23
HETATM   23  C   UNL     1      -7.099   2.343 -33.757  1.00  0.00     0.024 A 
HETATM   24  C   UNL     1      -7.558   1.295 -34.723  1.00  0.00     0.253 A 
HETATM   25  O   UNL     1      -6.760   0.668 -35.415  1.00  0.00    -0.268 OA
HETATM   26  N   UNL     1      -8.904   1.077 -34.822  1.00  0.00    -0.322 N 
HETATM   27  C   UNL     1      -9.862   1.793 -34.098  1.00  0.00     0.048 A 
HETATM   28  H   UNL     1      -9.193   0.347 -35.461  1.00  0.00     0.169 HD
HETATM   29  C   UNL     1      -9.442   2.805 -33.223  1.00  0.00    -0.006 A 
HETATM   30  C   UNL     1     -11.213   1.483 -34.247  1.00  0.00     0.070 A 
HETATM   31  C   UNL     1     -10.398   3.524 -32.501  1.00  0.00     0.053 A 
HETATM   32  C   UNL     1      -8.007   3.049 -33.058  1.00  0.00     0.027 A 
HETATM   33  C   UNL     1     -11.753   3.223 -32.651  1.00  0.00     0.103 A 
HETATM   34  C   UNL     1     -12.156   2.187 -33.503  1.00  0.00     0.104 A 
HETATM   35  O   UNL     1     -12.635   3.972 -31.915  1.00  0.00    -0.346 OA
HETATM   36  O   UNL     1     -13.465   1.808 -33.657  1.00  0.00    -0.346 OA
HETATM   37  C   UNL     1     -14.280   2.311 -32.592  1.00  0.00     0.202 C 
HETATM   38  C   UNL     1     -13.988   3.784 -32.353  1.00  0.00     0.202 C 
ENDBRANCH  22  23
ENDBRANCH   1  22
TORSDOF 11
ENDMDL
MODEL 9
REMARK VINA RESULT:      -8.2      4.370      8.159
REMARK  11 active torsions:
REMARK  status: ('A' for Active; 'I' for Inactive)
REMARK    1  A    between atoms: C_2  and  N_3 
REMARK    2  A    between atoms: N_3  and  C_5 
REMARK    3  A    between atoms: N_3  and  C_35 
REMARK    4  A    between atoms: C_5  and  C_6 
REMARK    5  A    between atoms: C_6  and  C_7 
REMARK    6  A    between atoms: C_7  and  N_8 
REMARK    7  A    between atoms: N_8  and  C_9 
REMARK    8  A    between atoms: N_8  and  C_19 
REMARK    9  A    between atoms: C_9  and  N_10 
REMARK   10  A    between atoms: N_10  and  C_11 
REMARK   11  A    between atoms: C_19  and  C_20 
ROOT
HETATM    1  N   UNL     1      -9.538   2.294 -33.260  1.00  0.00    -0.255 NA
ENDROOT
BRANCH   1   2
HETATM    2  C   UNL     1      -9.766   1.056 -32.490  1.00  0.00     0.100 C 
BRANCH   2   3
HETATM    3  C   UNL     1      -8.952   0.895 -31.193  1.00  0.00     0.042 C 
BRANCH   3   4
HETATM    4  C   UNL     1      -8.101   2.122 -30.883  1.00  0.00     0.236 C 
BRANCH   4   5
HETATM    5  N   UNL     1      -6.817   1.788 -30.130  1.00  0.00    -0.072 N 
HETATM    6  H   UNL     1      -7.074   1.843 -29.134  1.00  0.00     0.279 HD
BRANCH   5   7
HETATM    7  C   UNL     1      -5.698   2.803 -30.311  1.00  0.00     0.230 C 
HETATM    8  C   UNL     1      -6.155   4.205 -29.956  1.00  0.00     0.034 C 
ENDBRANCH   5   7
BRANCH   5   9
HETATM    9  C   UNL     1      -6.293   0.376 -30.323  1.00  0.00     0.230 C 
HETATM   10  C   UNL     1      -4.778   0.346 -30.412  1.00  0.00     0.034 C 
ENDBRANCH   5   9
ENDBRANCH   4   5
ENDBRANCH   3   4
ENDBRANCH   2   3
ENDBRANCH   1   2
BRANCH   1  11
HETATM   11  C   UNL     1     -10.592   3.191 -33.351  1.00  0.00     0.153 C 
HETATM   12  S   UNL     1     -10.540   4.639 -34.206  1.00  0.00    -0.047 SA
BRANCH  11  13
HETATM   13  N   UNL     1     -11.773   2.886 -32.743  1.00  0.00    -0.338 N 
HETATM   14  H   UNL     1     -11.755   3.149 -31.761  1.00  0.00     0.168 HD
BRANCH  13  15
HETATM   15  C   UNL     1     -12.946   2.222 -33.156  1.00  0.00     0.035 A 
HETATM   16  C   UNL     1     -14.123   2.568 -32.477  1.00  0.00     0.053 A 
HETATM   17  C   UNL     1     -15.341   1.982 -32.820  1.00  0.00     0.036 A 
HETATM   18 CL   UNL     1     -16.773   2.446 -31.988  1.00  0.00    -0.084 Cl
HETATM   19  C   UNL     1     -15.407   1.036 -33.837  1.00  0.00     0.024 A 
HETATM   20  C   UNL     1     -14.242   0.676 -34.510  1.00  0.00     0.004 A 
HETATM   21  C   UNL     1     -13.017   1.266 -34.171  1.00  0.00     0.029 A 
ENDBRANCH  13  15
ENDBRANCH  11  13
ENDBRANCH   1  11
BRANCH   1  22
HETATM   22  C   UNL     1      -8.849   2.089 -34.560  1.00  0.00     0.142 C 
BRANCH  22  23
HETATM   23  C   UNL     1      -7.697   1.129 -34.508  1.00  0.00     0.024 A 
HETATM   24  C   UNL     1      -6.398   1.683 -34.009  1.00  0.00     0.253 A 
HETATM   25  O   UNL     1      -6.239   2.889 -33.838  1.00  0.00    -0.268 OA
HETATM   26  N   UNL     1      -5.387   0.796 -33.769  1.00  0.00    -0.322 N 
HETATM   27  C   UNL     1      -5.492  -0.581 -33.991  1.00  0.00     0.048 A 
HETATM   28  H   UNL     1      -4.525   1.186 -33.406  1.00  0.00     0.169 HD
HETATM   29  C   UNL     1      -6.691  -1.101 -34.498  1.00  0.00    -0.006 A 
HETATM   30  C   UNL     1      -4.413  -1.413 -33.693  1.00  0.00     0.070 A 
HETATM   31  C   UNL     1      -6.797  -2.477 -34.725  1.00  0.00     0.053 A 
HETATM   32  C   UNL     1      -7.815  -0.192 -34.736  1.00  0.00     0.027 A 
HETATM   33  C   UNL     1      -5.718  -3.314 -34.435  1.00  0.00     0.103 A 
HETATM   34  C   UNL     1      -4.539  -2.784 -33.896  1.00  0.00     0.104 A 
HETATM   35  O   UNL     1      -5.892  -4.651 -34.686  1.00  0.00    -0.346 OA
HETATM   36  O   UNL     1      -3.462  -3.557 -33.543  1.00  0.00    -0.346 OA
HETATM   37  C   UNL     1      -3.829  -4.937 -33.427  1.00  0.00     0.202 C 
HETATM   38  C   UNL     1      -4.651  -5.368 -34.631  1.00  0.00     0.202 C 
ENDBRANCH  22  23
ENDBRANCH   1  22
TORSDOF 11
ENDMDL
MODEL 10
REMARK VINA RESULT:      -8.2      1.684      2.345
REMARK  11 active torsions:
REMARK  status: ('A' for Active; 'I' for Inactive)
REMARK    1  A    between atoms: C_2  and  N_3 
REMARK    2  A    between atoms: N_3  and  C_5 
REMARK    3  A    between atoms: N_3  and  C_35 
REMARK    4  A    between atoms: C_5  and  C_6 
REMARK    5  A    between atoms: C_6  and  C_7 
REMARK    6  A    between atoms: C_7  and  N_8 
REMARK    7  A    between atoms: N_8  and  C_9 
REMARK    8  A    between atoms: N_8  and  C_19 
REMARK    9  A    between atoms: C_9  and  N_10 
REMARK   10  A    between atoms: N_10  and  C_11 
REMARK   11  A    between atoms: C_19  and  C_20 
ROOT
HETATM    1  N   UNL     1      -7.574   1.024 -33.089  1.00  0.00    -0.255 NA
ENDROOT
BRANCH   1   2
HETATM    2  C   UNL     1      -8.739   0.530 -33.848  1.00  0.00     0.100 C 
BRANCH   2   3
HETATM    3  C   UNL     1     -10.060   0.397 -33.068  1.00  0.00     0.042 C 
BRANCH   3   4
HETATM    4  C   UNL     1     -11.248   0.972 -33.832  1.00  0.00     0.236 C 
BRANCH   4   5
HETATM    5  N   UNL     1     -12.081   1.945 -33.003  1.00  0.00    -0.072 N 
HETATM    6  H   UNL     1     -11.985   1.615 -32.033  1.00  0.00     0.279 HD
BRANCH   5   7
HETATM    7  C   UNL     1     -13.575   1.903 -33.294  1.00  0.00     0.230 C 
HETATM    8  C   UNL     1     -14.373   2.589 -32.202  1.00  0.00     0.034 C 
ENDBRANCH   5   7
BRANCH   5   9
HETATM    9  C   UNL     1     -11.582   3.380 -32.983  1.00  0.00     0.230 C 
HETATM   10  C   UNL     1     -11.023   3.760 -31.624  1.00  0.00     0.034 C 
ENDBRANCH   5   9
ENDBRANCH   4   5
ENDBRANCH   3   4
ENDBRANCH   2   3
ENDBRANCH   1   2
BRANCH   1  11
HETATM   11  C   UNL     1      -6.623   0.092 -32.703  1.00  0.00     0.153 C 
HETATM   12  S   UNL     1      -6.260  -0.294 -31.105  1.00  0.00    -0.047 SA
BRANCH  11  13
HETATM   13  N   UNL     1      -5.946  -0.597 -33.663  1.00  0.00    -0.338 N 
HETATM   14  H   UNL     1      -5.395   0.031 -34.242  1.00  0.00     0.168 HD
BRANCH  13  15
HETATM   15  C   UNL     1      -5.920  -1.949 -34.066  1.00  0.00     0.035 A 
HETATM   16  C   UNL     1      -4.715  -2.633 -33.851  1.00  0.00     0.053 A 
HETATM   17  C   UNL     1      -4.589  -3.979 -34.198  1.00  0.00     0.036 A 
HETATM   18 CL   UNL     1      -3.108  -4.800 -33.898  1.00  0.00    -0.084 Cl
HETATM   19  C   UNL     1      -5.655  -4.661 -34.772  1.00  0.00     0.024 A 
HETATM   20  C   UNL     1      -6.853  -3.987 -35.002  1.00  0.00     0.004 A 
HETATM   21  C   UNL     1      -6.984  -2.637 -34.650  1.00  0.00     0.029 A 
ENDBRANCH  13  15
ENDBRANCH  11  13
ENDBRANCH   1  11
BRANCH   1  22
HETATM   22  C   UNL     1      -7.912   1.978 -32.002  1.00  0.00     0.142 C 
BRANCH  22  23
HETATM   23  C   UNL     1      -6.902   3.069 -31.796  1.00  0.00     0.024 A 
HETATM   24  C   UNL     1      -6.626   3.454 -30.375  1.00  0.00     0.253 A 
HETATM   25  O   UNL     1      -7.322   3.040 -29.452  1.00  0.00    -0.268 OA
HETATM   26  N   UNL     1      -5.579   4.303 -30.145  1.00  0.00    -0.322 N 
HETATM   27  C   UNL     1      -4.783   4.845 -31.158  1.00  0.00     0.048 A 
HETATM   28  H   UNL     1      -5.392   4.530 -29.177  1.00  0.00     0.169 HD
HETATM   29  C   UNL     1      -5.062   4.523 -32.494  1.00  0.00    -0.006 A 
HETATM   30  C   UNL     1      -3.720   5.684 -30.825  1.00  0.00     0.070 A 
HETATM   31  C   UNL     1      -4.269   5.068 -33.508  1.00  0.00     0.053 A 
HETATM   32  C   UNL     1      -6.152   3.588 -32.785  1.00  0.00     0.027 A 
HETATM   33  C   UNL     1      -3.207   5.914 -33.181  1.00  0.00     0.103 A 
HETATM   34  C   UNL     1      -2.919   6.199 -31.841  1.00  0.00     0.104 A 
HETATM   35  O   UNL     1      -2.475   6.414 -34.227  1.00  0.00    -0.346 OA
HETATM   36  O   UNL     1      -1.862   6.982 -31.450  1.00  0.00    -0.346 OA
HETATM   37  C   UNL     1      -0.908   7.129 -32.509  1.00  0.00     0.202 C 
HETATM   38  C   UNL     1      -1.612   7.481 -33.810  1.00  0.00     0.202 C 
ENDBRANCH  22  23
ENDBRANCH   1  22
TORSDOF 11
ENDMDL
