MODEL 1
REMARK VINA RESULT:      -8.0      0.000      0.000
REMARK  7 active torsions:
REMARK  status: ('A' for Active; 'I' for Inactive)
REMARK    1  A    between atoms: C_2  and  C_3 
REMARK    2  A    between atoms: C_3  and  C_4 
REMARK    3  A    between atoms: C_8  and  C_9 
REMARK       I    between atoms: C_9  and  N_10 
REMARK    4  A    between atoms: N_10  and  C_11 
REMARK    5  A    between atoms: C_12  and  O_13 
REMARK    6  A    between atoms: O_13  and  C_14 
REMARK    7  A    between atoms: C_14  and  C_15 
ROOT
HETATM    1  C   UNL     1      -3.742   2.452 -31.726  1.00  0.00     0.113 C 
HETATM    2  C   UNL     1      -5.177   3.039 -31.784  1.00  0.00     0.144 C 
HETATM    3  C   UNL     1      -5.196   4.454 -31.191  1.00  0.00     0.034 C 
HETATM    4  C   UNL     1      -4.199   5.377 -31.884  1.00  0.00     0.003 C 
HETATM    5  C   UNL     1      -2.792   4.792 -31.884  1.00  0.00     0.002 C 
HETATM    6  C   UNL     1      -2.766   3.381 -32.465  1.00  0.00     0.028 C 
ENDROOT
BRANCH   1   7
HETATM    7  N   UNL     1      -3.730   1.094 -32.275  1.00  0.00    -0.349 N 
HETATM    8  C   UNL     1      -3.018   0.077 -31.681  1.00  0.00     0.270 C 
HETATM    9  O   UNL     1      -2.231   0.261 -30.756  1.00  0.00    -0.266 OA
HETATM   10  H   UNL     1      -4.569   0.822 -32.772  1.00  0.00     0.163 HD
BRANCH   8  11
HETATM   11  C   UNL     1      -3.273  -1.238 -32.204  1.00  0.00     0.119 A 
HETATM   12  N   UNL     1      -2.784  -2.356 -31.580  1.00  0.00    -0.273 N 
HETATM   13  N   UNL     1      -3.112  -3.510 -32.184  1.00  0.00    -0.179 NA
HETATM   14  H   UNL     1      -2.222  -2.381 -30.735  1.00  0.00     0.189 HD
HETATM   15  C   UNL     1      -3.831  -3.126 -33.244  1.00  0.00     0.057 A 
HETATM   16  C   UNL     1      -3.953  -1.717 -33.306  1.00  0.00     0.065 A 
BRANCH  15  17
HETATM   17  C   UNL     1      -4.383  -4.142 -34.188  1.00  0.00     0.061 C 
BRANCH  17  18
HETATM   18  C   UNL     1      -5.445  -3.578 -35.136  1.00  0.00     0.002 C 
HETATM   19  C   UNL     1      -6.707  -4.428 -35.193  1.00  0.00     0.005 C 
ENDBRANCH  17  18
ENDBRANCH  15  17
ENDBRANCH   8  11
ENDBRANCH   1   7
BRANCH   2  20
HETATM   20  O   UNL     1      -6.040   2.149 -31.058  1.00  0.00    -0.379 OA
BRANCH  20  21
HETATM   21  C   UNL     1      -7.357   2.052 -31.604  1.00  0.00     0.206 C 
BRANCH  21  22
HETATM   22  C   UNL     1      -7.383   1.182 -32.839  1.00  0.00    -0.035 A 
HETATM   23  C   UNL     1      -7.220   1.704 -34.129  1.00  0.00     0.009 A 
HETATM   24  C   UNL     1      -7.206   0.860 -35.243  1.00  0.00     0.001 A 
HETATM   25  C   UNL     1      -7.345  -0.517 -35.078  1.00  0.00     0.000 A 
HETATM   26  C   UNL     1      -7.497  -1.052 -33.801  1.00  0.00     0.001 A 
HETATM   27  C   UNL     1      -7.514  -0.209 -32.689  1.00  0.00     0.009 A 
ENDBRANCH  21  22
ENDBRANCH  20  21
ENDBRANCH   2  20
TORSDOF 7
ENDMDL
MODEL 2
REMARK VINA RESULT:      -7.9      2.543      6.333
REMARK  7 active torsions:
REMARK  status: ('A' for Active; 'I' for Inactive)
REMARK    1  A    between atoms: C_2  and  C_3 
REMARK    2  A    between atoms: C_3  and  C_4 
REMARK    3  A    between atoms: C_8  and  C_9 
REMARK       I    between atoms: C_9  and  N_10 
REMARK    4  A    between atoms: N_10  and  C_11 
REMARK    5  A    between atoms: C_12  and  O_13 
REMARK    6  A    between atoms: O_13  and  C_14 
REMARK    7  A    between atoms: C_14  and  C_15 
ROOT
HETATM    1  C   UNL     1      -7.714   2.025 -32.508  1.00  0.00     0.113 C 
HETATM    2  C   UNL     1      -7.720   0.716 -33.341  1.00  0.00     0.144 C 
HETATM    3  C   UNL     1      -9.041  -0.037 -33.138  1.00  0.00     0.034 C 
HETATM    4  C   UNL     1     -10.250   0.830 -33.473  1.00  0.00     0.003 C 
HETATM    5  C   UNL     1     -10.235   2.145 -32.702  1.00  0.00     0.002 C 
HETATM    6  C   UNL     1      -8.920   2.897 -32.893  1.00  0.00     0.028 C 
ENDROOT
BRANCH   1   7
HETATM    7  N   UNL     1      -6.444   2.732 -32.688  1.00  0.00    -0.349 N 
HETATM    8  C   UNL     1      -5.619   3.025 -31.626  1.00  0.00     0.270 C 
HETATM    9  O   UNL     1      -5.948   2.857 -30.455  1.00  0.00    -0.266 OA
HETATM   10  H   UNL     1      -5.990   2.582 -33.580  1.00  0.00     0.163 HD
BRANCH   8  11
HETATM   11  C   UNL     1      -4.318   3.525 -31.980  1.00  0.00     0.119 A 
HETATM   12  N   UNL     1      -3.265   3.438 -31.108  1.00  0.00    -0.273 N 
HETATM   13  N   UNL     1      -2.114   3.942 -31.584  1.00  0.00    -0.179 NA
HETATM   14  H   UNL     1      -3.281   3.038 -30.175  1.00  0.00     0.189 HD
HETATM   15  C   UNL     1      -2.436   4.381 -32.805  1.00  0.00     0.057 A 
HETATM   16  C   UNL     1      -3.803   4.152 -33.097  1.00  0.00     0.065 A 
BRANCH  15  17
HETATM   17  C   UNL     1      -1.405   5.028 -33.670  1.00  0.00     0.061 C 
BRANCH  17  18
HETATM   18  C   UNL     1      -1.824   6.405 -34.191  1.00  0.00     0.002 C 
HETATM   19  C   UNL     1      -1.581   7.524 -33.188  1.00  0.00     0.005 C 
ENDBRANCH  17  18
ENDBRANCH  15  17
ENDBRANCH   8  11
ENDBRANCH   1   7
BRANCH   2  20
HETATM   20  O   UNL     1      -6.593  -0.070 -32.923  1.00  0.00    -0.379 OA
BRANCH  20  21
HETATM   21  C   UNL     1      -5.711  -0.423 -33.990  1.00  0.00     0.206 C 
BRANCH  21  22
HETATM   22  C   UNL     1      -5.670  -1.918 -34.207  1.00  0.00    -0.035 A 
HETATM   23  C   UNL     1      -6.799  -2.650 -34.599  1.00  0.00     0.009 A 
HETATM   24  C   UNL     1      -6.709  -4.025 -34.832  1.00  0.00     0.001 A 
HETATM   25  C   UNL     1      -5.489  -4.682 -34.684  1.00  0.00     0.000 A 
HETATM   26  C   UNL     1      -4.356  -3.965 -34.304  1.00  0.00     0.001 A 
HETATM   27  C   UNL     1      -4.446  -2.593 -34.069  1.00  0.00     0.009 A 
ENDBRANCH  21  22
ENDBRANCH  20  21
ENDBRANCH   2  20
TORSDOF 7
ENDMDL
MODEL 3
REMARK VINA RESULT:      -7.3      4.017      6.595
REMARK  7 active torsions:
REMARK  status: ('A' for Active; 'I' for Inactive)
REMARK    1  A    between atoms: C_2  and  C_3 
REMARK    2  A    between atoms: C_3  and  C_4 
REMARK    3  A    between atoms: C_8  and  C_9 
REMARK       I    between atoms: C_9  and  N_10 
REMARK    4  A    between atoms: N_10  and  C_11 
REMARK    5  A    between atoms: C_12  and  O_13 
REMARK    6  A    between atoms: O_13  and  C_14 
REMARK    7  A    between atoms: C_14  and  C_15 
ROOT
HETATM    1  C   UNL     1      -6.663   1.889 -32.482  1.00  0.00     0.113 C 
HETATM    2  C   UNL     1      -5.835   0.603 -32.743  1.00  0.00     0.144 C 
HETATM    3  C   UNL     1      -4.345   0.873 -32.500  1.00  0.00     0.034 C 
HETATM    4  C   UNL     1      -4.084   1.418 -31.100  1.00  0.00     0.003 C 
HETATM    5  C   UNL     1      -4.928   2.652 -30.806  1.00  0.00     0.002 C 
HETATM    6  C   UNL     1      -6.412   2.394 -31.053  1.00  0.00     0.028 C 
ENDROOT
BRANCH   1   7
HETATM    7  N   UNL     1      -8.084   1.634 -32.734  1.00  0.00    -0.349 N 
HETATM    8  C   UNL     1      -8.829   2.435 -33.569  1.00  0.00     0.270 C 
HETATM    9  O   UNL     1      -8.410   3.491 -34.035  1.00  0.00    -0.266 OA
HETATM   10  H   UNL     1      -8.364   0.663 -32.677  1.00  0.00     0.163 HD
BRANCH   8  11
HETATM   11  C   UNL     1     -10.141   1.940 -33.885  1.00  0.00     0.119 A 
HETATM   12  N   UNL     1     -10.862   2.458 -34.928  1.00  0.00    -0.273 N 
HETATM   13  N   UNL     1     -12.065   1.889 -35.103  1.00  0.00    -0.179 NA
HETATM   14  H   UNL     1     -10.572   3.204 -35.555  1.00  0.00     0.189 HD
HETATM   15  C   UNL     1     -12.132   0.973 -34.131  1.00  0.00     0.057 A 
HETATM   16  C   UNL     1     -10.959   0.971 -33.337  1.00  0.00     0.065 A 
BRANCH  15  17
HETATM   17  C   UNL     1     -13.345   0.116 -33.983  1.00  0.00     0.061 C 
BRANCH  17  18
HETATM   18  C   UNL     1     -14.659   0.892 -34.111  1.00  0.00     0.002 C 
HETATM   19  C   UNL     1     -14.977   1.736 -32.885  1.00  0.00     0.005 C 
ENDBRANCH  17  18
ENDBRANCH  15  17
ENDBRANCH   8  11
ENDBRANCH   1   7
BRANCH   2  20
HETATM   20  O   UNL     1      -6.086   0.191 -34.096  1.00  0.00    -0.379 OA
BRANCH  20  21
HETATM   21  C   UNL     1      -7.007  -0.895 -34.206  1.00  0.00     0.206 C 
BRANCH  21  22
HETATM   22  C   UNL     1      -6.291  -2.220 -34.330  1.00  0.00    -0.035 A 
HETATM   23  C   UNL     1      -6.955  -3.402 -34.687  1.00  0.00     0.009 A 
HETATM   24  C   UNL     1      -6.249  -4.598 -34.835  1.00  0.00     0.001 A 
HETATM   25  C   UNL     1      -4.870  -4.626 -34.637  1.00  0.00     0.000 A 
HETATM   26  C   UNL     1      -4.194  -3.457 -34.293  1.00  0.00     0.001 A 
HETATM   27  C   UNL     1      -4.900  -2.262 -34.142  1.00  0.00     0.009 A 
ENDBRANCH  21  22
ENDBRANCH  20  21
ENDBRANCH   2  20
TORSDOF 7
ENDMDL
MODEL 4
REMARK VINA RESULT:      -7.3      2.246      6.655
REMARK  7 active torsions:
REMARK  status: ('A' for Active; 'I' for Inactive)
REMARK    1  A    between atoms: C_2  and  C_3 
REMARK    2  A    between atoms: C_3  and  C_4 
REMARK    3  A    between atoms: C_8  and  C_9 
REMARK       I    between atoms: C_9  and  N_10 
REMARK    4  A    between atoms: N_10  and  C_11 
REMARK    5  A    between atoms: C_12  and  O_13 
REMARK    6  A    between atoms: O_13  and  C_14 
REMARK    7  A    between atoms: C_14  and  C_15 
ROOT
HETATM    1  C   UNL     1      -5.170  -2.194 -33.600  1.00  0.00     0.113 C 
HETATM    2  C   UNL     1      -3.793  -2.377 -32.908  1.00  0.00     0.144 C 
HETATM    3  C   UNL     1      -3.497  -3.867 -32.700  1.00  0.00     0.034 C 
HETATM    4  C   UNL     1      -3.560  -4.650 -34.007  1.00  0.00     0.003 C 
HETATM    5  C   UNL     1      -4.886  -4.441 -34.728  1.00  0.00     0.002 C 
HETATM    6  C   UNL     1      -5.192  -2.960 -34.932  1.00  0.00     0.028 C 
ENDROOT
BRANCH   1   7
HETATM    7  N   UNL     1      -5.459  -0.769 -33.780  1.00  0.00    -0.349 N 
HETATM    8  C   UNL     1      -6.716  -0.251 -33.566  1.00  0.00     0.270 C 
HETATM    9  O   UNL     1      -7.704  -0.950 -33.364  1.00  0.00    -0.266 OA
HETATM   10  H   UNL     1      -4.681  -0.146 -33.603  1.00  0.00     0.163 HD
BRANCH   8  11
HETATM   11  C   UNL     1      -6.796   1.185 -33.572  1.00  0.00     0.119 A 
HETATM   12  N   UNL     1      -7.833   1.839 -32.960  1.00  0.00    -0.273 N 
HETATM   13  N   UNL     1      -7.766   3.177 -33.045  1.00  0.00    -0.179 NA
HETATM   14  H   UNL     1      -8.612   1.413 -32.467  1.00  0.00     0.189 HD
HETATM   15  C   UNL     1      -6.650   3.400 -33.746  1.00  0.00     0.057 A 
HETATM   16  C   UNL     1      -6.012   2.188 -34.107  1.00  0.00     0.065 A 
BRANCH  15  17
HETATM   17  C   UNL     1      -6.224   4.795 -34.063  1.00  0.00     0.061 C 
BRANCH  17  18
HETATM   18  C   UNL     1      -4.728   5.039 -33.850  1.00  0.00     0.002 C 
HETATM   19  C   UNL     1      -3.951   5.169 -35.153  1.00  0.00     0.005 C 
ENDBRANCH  17  18
ENDBRANCH  15  17
ENDBRANCH   8  11
ENDBRANCH   1   7
BRANCH   2  20
HETATM   20  O   UNL     1      -3.837  -1.666 -31.660  1.00  0.00    -0.379 OA
BRANCH  20  21
HETATM   21  C   UNL     1      -3.026  -0.490 -31.639  1.00  0.00     0.206 C 
BRANCH  21  22
HETATM   22  C   UNL     1      -3.798   0.708 -31.138  1.00  0.00    -0.035 A 
HETATM   23  C   UNL     1      -3.409   2.025 -31.422  1.00  0.00     0.009 A 
HETATM   24  C   UNL     1      -4.175   3.105 -30.977  1.00  0.00     0.001 A 
HETATM   25  C   UNL     1      -5.343   2.882 -30.252  1.00  0.00     0.000 A 
HETATM   26  C   UNL     1      -5.749   1.580 -29.970  1.00  0.00     0.001 A 
HETATM   27  C   UNL     1      -4.982   0.500 -30.412  1.00  0.00     0.009 A 
ENDBRANCH  21  22
ENDBRANCH  20  21
ENDBRANCH   2  20
TORSDOF 7
ENDMDL
MODEL 5
REMARK VINA RESULT:      -7.0      2.983      6.969
REMARK  7 active torsions:
REMARK  status: ('A' for Active; 'I' for Inactive)
REMARK    1  A    between atoms: C_2  and  C_3 
REMARK    2  A    between atoms: C_3  and  C_4 
REMARK    3  A    between atoms: C_8  and  C_9 
REMARK       I    between atoms: C_9  and  N_10 
REMARK    4  A    between atoms: N_10  and  C_11 
REMARK    5  A    between atoms: C_12  and  O_13 
REMARK    6  A    between atoms: O_13  and  C_14 
REMARK    7  A    between atoms: C_14  and  C_15 
ROOT
HETATM    1  C   UNL     1      -7.133   2.334 -32.709  1.00  0.00     0.113 C 
HETATM    2  C   UNL     1      -7.608   1.501 -33.928  1.00  0.00     0.144 C 
HETATM    3  C   UNL     1      -8.835   0.661 -33.552  1.00  0.00     0.034 C 
HETATM    4  C   UNL     1      -9.968   1.520 -33.002  1.00  0.00     0.003 C 
HETATM    5  C   UNL     1      -9.507   2.386 -31.835  1.00  0.00     0.002 C 
HETATM    6  C   UNL     1      -8.282   3.219 -32.199  1.00  0.00     0.028 C 
ENDROOT
BRANCH   1   7
HETATM    7  N   UNL     1      -5.950   3.121 -33.065  1.00  0.00    -0.349 N 
HETATM    8  C   UNL     1      -6.045   4.296 -33.774  1.00  0.00     0.270 C 
HETATM    9  O   UNL     1      -7.090   4.688 -34.285  1.00  0.00    -0.266 OA
HETATM   10  H   UNL     1      -5.174   3.050 -32.418  1.00  0.00     0.163 HD
BRANCH   8  11
HETATM   11  C   UNL     1      -4.830   5.061 -33.861  1.00  0.00     0.119 A 
HETATM   12  N   UNL     1      -4.145   5.169 -35.043  1.00  0.00    -0.273 N 
HETATM   13  N   UNL     1      -3.034   5.921 -34.967  1.00  0.00    -0.179 NA
HETATM   14  H   UNL     1      -4.398   4.748 -35.932  1.00  0.00     0.189 HD
HETATM   15  C   UNL     1      -2.993   6.306 -33.688  1.00  0.00     0.057 A 
HETATM   16  C   UNL     1      -4.087   5.789 -32.953  1.00  0.00     0.065 A 
BRANCH  15  17
HETATM   17  C   UNL     1      -1.879   7.169 -33.196  1.00  0.00     0.061 C 
BRANCH  17  18
HETATM   18  C   UNL     1      -0.711   6.378 -32.601  1.00  0.00     0.002 C 
HETATM   19  C   UNL     1      -0.140   7.012 -31.340  1.00  0.00     0.005 C 
ENDBRANCH  17  18
ENDBRANCH  15  17
ENDBRANCH   8  11
ENDBRANCH   1   7
BRANCH   2  20
HETATM   20  O   UNL     1      -6.508   0.676 -34.345  1.00  0.00    -0.379 OA
BRANCH  20  21
HETATM   21  C   UNL     1      -6.062  -0.239 -33.341  1.00  0.00     0.206 C 
BRANCH  21  22
HETATM   22  C   UNL     1      -5.849  -1.623 -33.906  1.00  0.00    -0.035 A 
HETATM   23  C   UNL     1      -4.588  -2.235 -33.941  1.00  0.00     0.009 A 
HETATM   24  C   UNL     1      -4.441  -3.535 -34.431  1.00  0.00     0.001 A 
HETATM   25  C   UNL     1      -5.552  -4.242 -34.884  1.00  0.00     0.000 A 
HETATM   26  C   UNL     1      -6.814  -3.652 -34.846  1.00  0.00     0.001 A 
HETATM   27  C   UNL     1      -6.962  -2.352 -34.360  1.00  0.00     0.009 A 
ENDBRANCH  21  22
ENDBRANCH  20  21
ENDBRANCH   2  20
TORSDOF 7
ENDMDL
MODEL 6
REMARK VINA RESULT:      -6.9      3.709      6.832
REMARK  7 active torsions:
REMARK  status: ('A' for Active; 'I' for Inactive)
REMARK    1  A    between atoms: C_2  and  C_3 
REMARK    2  A    between atoms: C_3  and  C_4 
REMARK    3  A    between atoms: C_8  and  C_9 
REMARK       I    between atoms: C_9  and  N_10 
REMARK    4  A    between atoms: N_10  and  C_11 
REMARK    5  A    between atoms: C_12  and  O_13 
REMARK    6  A    between atoms: O_13  and  C_14 
REMARK    7  A    between atoms: C_14  and  C_15 
ROOT
HETATM    1  C   UNL     1      -6.800  -1.540 -33.458  1.00  0.00     0.113 C 
HETATM    2  C   UNL     1      -5.440  -0.794 -33.498  1.00  0.00     0.144 C 
HETATM    3  C   UNL     1      -4.287  -1.800 -33.601  1.00  0.00     0.034 C 
HETATM    4  C   UNL     1      -4.440  -2.723 -34.805  1.00  0.00     0.003 C 
HETATM    5  C   UNL     1      -5.793  -3.425 -34.811  1.00  0.00     0.002 C 
HETATM    6  C   UNL     1      -6.946  -2.432 -34.700  1.00  0.00     0.028 C 
ENDROOT
BRANCH   1   7
HETATM    7  N   UNL     1      -7.899  -0.578 -33.339  1.00  0.00    -0.349 N 
HETATM    8  C   UNL     1      -8.217   0.291 -34.358  1.00  0.00     0.270 C 
HETATM    9  O   UNL     1      -7.524   0.430 -35.361  1.00  0.00    -0.266 OA
HETATM   10  H   UNL     1      -8.664  -0.869 -32.743  1.00  0.00     0.163 HD
BRANCH   8  11
HETATM   11  C   UNL     1      -9.445   1.019 -34.182  1.00  0.00     0.119 A 
HETATM   12  N   UNL     1      -9.724   2.128 -34.937  1.00  0.00    -0.273 N 
HETATM   13  N   UNL     1     -10.910   2.696 -34.662  1.00  0.00    -0.179 NA
HETATM   14  H   UNL     1      -9.136   2.535 -35.657  1.00  0.00     0.189 HD
HETATM   15  C   UNL     1     -11.413   1.933 -33.686  1.00  0.00     0.057 A 
HETATM   16  C   UNL     1     -10.533   0.878 -33.344  1.00  0.00     0.065 A 
BRANCH  15  17
HETATM   17  C   UNL     1     -12.746   2.250 -33.093  1.00  0.00     0.061 C 
BRANCH  17  18
HETATM   18  C   UNL     1     -13.923   1.804 -33.965  1.00  0.00     0.002 C 
HETATM   19  C   UNL     1     -14.111   0.294 -33.988  1.00  0.00     0.005 C 
ENDBRANCH  17  18
ENDBRANCH  15  17
ENDBRANCH   8  11
ENDBRANCH   1   7
BRANCH   2  20
HETATM   20  O   UNL     1      -5.345   0.000 -32.304  1.00  0.00    -0.379 OA
BRANCH  20  21
HETATM   21  C   UNL     1      -4.776   1.294 -32.519  1.00  0.00     0.206 C 
BRANCH  21  22
HETATM   22  C   UNL     1      -5.843   2.358 -32.631  1.00  0.00    -0.035 A 
HETATM   23  C   UNL     1      -5.931   3.219 -33.733  1.00  0.00     0.009 A 
HETATM   24  C   UNL     1      -6.960   4.161 -33.819  1.00  0.00     0.001 A 
HETATM   25  C   UNL     1      -7.917   4.246 -32.810  1.00  0.00     0.000 A 
HETATM   26  C   UNL     1      -7.848   3.390 -31.714  1.00  0.00     0.001 A 
HETATM   27  C   UNL     1      -6.820   2.451 -31.625  1.00  0.00     0.009 A 
ENDBRANCH  21  22
ENDBRANCH  20  21
ENDBRANCH   2  20
TORSDOF 7
ENDMDL
MODEL 7
REMARK VINA RESULT:      -6.8     14.213     15.736
REMARK  7 active torsions:
REMARK  status: ('A' for Active; 'I' for Inactive)
REMARK    1  A    between atoms: C_2  and  C_3 
REMARK    2  A    between atoms: C_3  and  C_4 
REMARK    3  A    between atoms: C_8  and  C_9 
REMARK       I    between atoms: C_9  and  N_10 
REMARK    4  A    between atoms: N_10  and  C_11 
REMARK    5  A    between atoms: C_12  and  O_13 
REMARK    6  A    between atoms: O_13  and  C_14 
REMARK    7  A    between atoms: C_14  and  C_15 
ROOT
HETATM    1  C   UNL     1      -2.450 -14.094 -38.698  1.00  0.00     0.113 C 
HETATM    2  C   UNL     1      -3.134 -15.113 -39.647  1.00  0.00     0.144 C 
HETATM    3  C   UNL     1      -2.545 -15.001 -41.059  1.00  0.00     0.034 C 
HETATM    4  C   UNL     1      -1.031 -15.182 -41.062  1.00  0.00     0.003 C 
HETATM    5  C   UNL     1      -0.344 -14.225 -40.096  1.00  0.00     0.002 C 
HETATM    6  C   UNL     1      -0.930 -14.324 -38.690  1.00  0.00     0.028 C 
ENDROOT
BRANCH   1   7
HETATM    7  N   UNL     1      -3.027 -14.189 -37.355  1.00  0.00    -0.349 N 
HETATM    8  C   UNL     1      -3.691 -13.133 -36.774  1.00  0.00     0.270 C 
HETATM    9  O   UNL     1      -3.716 -12.007 -37.261  1.00  0.00    -0.266 OA
HETATM   10  H   UNL     1      -3.331 -15.115 -37.081  1.00  0.00     0.163 HD
BRANCH   8  11
HETATM   11  C   UNL     1      -4.384 -13.442 -35.552  1.00  0.00     0.119 A 
HETATM   12  N   UNL     1      -4.822 -12.449 -34.716  1.00  0.00    -0.273 N 
HETATM   13  N   UNL     1      -5.457 -12.893 -33.619  1.00  0.00    -0.179 NA
HETATM   14  H   UNL     1      -4.712 -11.448 -34.852  1.00  0.00     0.189 HD
HETATM   15  C   UNL     1      -5.422 -14.224 -33.744  1.00  0.00     0.057 A 
HETATM   16  C   UNL     1      -4.756 -14.618 -34.930  1.00  0.00     0.065 A 
BRANCH  15  17
HETATM   17  C   UNL     1      -6.033 -15.096 -32.698  1.00  0.00     0.061 C 
BRANCH  17  18
HETATM   18  C   UNL     1      -7.478 -15.496 -33.006  1.00  0.00     0.002 C 
HETATM   19  C   UNL     1      -7.581 -16.687 -33.950  1.00  0.00     0.005 C 
ENDBRANCH  17  18
ENDBRANCH  15  17
ENDBRANCH   8  11
ENDBRANCH   1   7
BRANCH   2  20
HETATM   20  O   UNL     1      -4.544 -14.837 -39.638  1.00  0.00    -0.379 OA
BRANCH  20  21
HETATM   21  C   UNL     1      -4.889 -13.586 -40.236  1.00  0.00     0.206 C 
BRANCH  21  22
HETATM   22  C   UNL     1      -6.287 -13.157 -39.859  1.00  0.00    -0.035 A 
HETATM   23  C   UNL     1      -7.187 -12.624 -40.793  1.00  0.00     0.009 A 
HETATM   24  C   UNL     1      -8.487 -12.280 -40.414  1.00  0.00     0.001 A 
HETATM   25  C   UNL     1      -8.906 -12.474 -39.099  1.00  0.00     0.000 A 
HETATM   26  C   UNL     1      -8.027 -13.012 -38.162  1.00  0.00     0.001 A 
HETATM   27  C   UNL     1      -6.727 -13.352 -38.539  1.00  0.00     0.009 A 
ENDBRANCH  21  22
ENDBRANCH  20  21
ENDBRANCH   2  20
TORSDOF 7
ENDMDL
MODEL 8
REMARK VINA RESULT:      -6.8      2.563      6.390
REMARK  7 active torsions:
REMARK  status: ('A' for Active; 'I' for Inactive)
REMARK    1  A    between atoms: C_2  and  C_3 
REMARK    2  A    between atoms: C_3  and  C_4 
REMARK    3  A    between atoms: C_8  and  C_9 
REMARK       I    between atoms: C_9  and  N_10 
REMARK    4  A    between atoms: N_10  and  C_11 
REMARK    5  A    between atoms: C_12  and  O_13 
REMARK    6  A    between atoms: O_13  and  C_14 
REMARK    7  A    between atoms: C_14  and  C_15 
ROOT
HETATM    1  C   UNL     1      -7.853   2.435 -32.908  1.00  0.00     0.113 C 
HETATM    2  C   UNL     1      -8.104   1.586 -34.182  1.00  0.00     0.144 C 
HETATM    3  C   UNL     1      -9.479   0.909 -34.106  1.00  0.00     0.034 C 
HETATM    4  C   UNL     1     -10.601   1.918 -33.892  1.00  0.00     0.003 C 
HETATM    5  C   UNL     1     -10.347   2.797 -32.674  1.00  0.00     0.002 C 
HETATM    6  C   UNL     1      -8.978   3.469 -32.738  1.00  0.00     0.028 C 
ENDROOT
BRANCH   1   7
HETATM    7  N   UNL     1      -6.533   3.065 -32.974  1.00  0.00    -0.349 N 
HETATM    8  C   UNL     1      -5.793   3.322 -31.842  1.00  0.00     0.270 C 
HETATM    9  O   UNL     1      -6.238   3.187 -30.706  1.00  0.00    -0.266 OA
HETATM   10  H   UNL     1      -6.008   2.879 -33.820  1.00  0.00     0.163 HD
BRANCH   8  11
HETATM   11  C   UNL     1      -4.437   3.741 -32.077  1.00  0.00     0.119 A 
HETATM   12  N   UNL     1      -3.437   3.433 -31.193  1.00  0.00    -0.273 N 
HETATM   13  N   UNL     1      -2.226   3.888 -31.552  1.00  0.00    -0.179 NA
HETATM   14  H   UNL     1      -3.533   2.909 -30.328  1.00  0.00     0.189 HD
HETATM   15  C   UNL     1      -2.450   4.523 -32.707  1.00  0.00     0.057 A 
HETATM   16  C   UNL     1      -3.817   4.468 -33.074  1.00  0.00     0.065 A 
BRANCH  15  17
HETATM   17  C   UNL     1      -1.327   5.184 -33.434  1.00  0.00     0.061 C 
BRANCH  17  18
HETATM   18  C   UNL     1      -1.690   6.563 -33.992  1.00  0.00     0.002 C 
HETATM   19  C   UNL     1      -1.727   7.648 -32.924  1.00  0.00     0.005 C 
ENDBRANCH  17  18
ENDBRANCH  15  17
ENDBRANCH   8  11
ENDBRANCH   1   7
BRANCH   2  20
HETATM   20  O   UNL     1      -7.043   0.622 -34.278  1.00  0.00    -0.379 OA
BRANCH  20  21
HETATM   21  C   UNL     1      -7.132  -0.429 -33.313  1.00  0.00     0.206 C 
BRANCH  21  22
HETATM   22  C   UNL     1      -5.767  -0.841 -32.814  1.00  0.00    -0.035 A 
HETATM   23  C   UNL     1      -5.013  -1.848 -33.433  1.00  0.00     0.009 A 
HETATM   24  C   UNL     1      -3.736  -2.169 -32.967  1.00  0.00     0.001 A 
HETATM   25  C   UNL     1      -3.193  -1.482 -31.883  1.00  0.00     0.000 A 
HETATM   26  C   UNL     1      -3.925  -0.472 -31.264  1.00  0.00     0.001 A 
HETATM   27  C   UNL     1      -5.203  -0.152 -31.727  1.00  0.00     0.009 A 
ENDBRANCH  21  22
ENDBRANCH  20  21
ENDBRANCH   2  20
TORSDOF 7
ENDMDL
MODEL 9
REMARK VINA RESULT:      -6.7      4.186      7.596
REMARK  7 active torsions:
REMARK  status: ('A' for Active; 'I' for Inactive)
REMARK    1  A    between atoms: C_2  and  C_3 
REMARK    2  A    between atoms: C_3  and  C_4 
REMARK    3  A    between atoms: C_8  and  C_9 
REMARK       I    between atoms: C_9  and  N_10 
REMARK    4  A    between atoms: N_10  and  C_11 
REMARK    5  A    between atoms: C_12  and  O_13 
REMARK    6  A    between atoms: O_13  and  C_14 
REMARK    7  A    between atoms: C_14  and  C_15 
ROOT
HETATM    1  C   UNL     1      -7.482  -0.507 -33.616  1.00  0.00     0.113 C 
HETATM    2  C   UNL     1      -6.440   0.179 -32.694  1.00  0.00     0.144 C 
HETATM    3  C   UNL     1      -5.402  -0.843 -32.212  1.00  0.00     0.034 C 
HETATM    4  C   UNL     1      -4.720  -1.555 -33.375  1.00  0.00     0.003 C 
HETATM    5  C   UNL     1      -5.730  -2.192 -34.321  1.00  0.00     0.002 C 
HETATM    6  C   UNL     1      -6.771  -1.183 -34.799  1.00  0.00     0.028 C 
ENDROOT
BRANCH   1   7
HETATM    7  N   UNL     1      -8.482   0.466 -34.060  1.00  0.00    -0.349 N 
HETATM    8  C   UNL     1      -9.736   0.528 -33.495  1.00  0.00     0.270 C 
HETATM    9  O   UNL     1     -10.156  -0.310 -32.702  1.00  0.00    -0.266 OA
HETATM   10  H   UNL     1      -8.108   1.337 -34.416  1.00  0.00     0.163 HD
BRANCH   8  11
HETATM   11  C   UNL     1     -10.528   1.665 -33.881  1.00  0.00     0.119 A 
HETATM   12  N   UNL     1     -10.124   2.499 -34.890  1.00  0.00    -0.273 N 
HETATM   13  N   UNL     1     -10.971   3.511 -35.139  1.00  0.00    -0.179 NA
HETATM   14  H   UNL     1      -9.277   2.416 -35.443  1.00  0.00     0.189 HD
HETATM   15  C   UNL     1     -11.955   3.333 -34.251  1.00  0.00     0.057 A 
HETATM   16  C   UNL     1     -11.721   2.199 -33.436  1.00  0.00     0.065 A 
BRANCH  15  17
HETATM   17  C   UNL     1     -13.109   4.279 -34.204  1.00  0.00     0.061 C 
BRANCH  17  18
HETATM   18  C   UNL     1     -12.907   5.530 -35.063  1.00  0.00     0.002 C 
HETATM   19  C   UNL     1     -12.526   6.759 -34.250  1.00  0.00     0.005 C 
ENDBRANCH  17  18
ENDBRANCH  15  17
ENDBRANCH   8  11
ENDBRANCH   1   7
BRANCH   2  20
HETATM   20  O   UNL     1      -7.153   0.769 -31.596  1.00  0.00    -0.379 OA
BRANCH  20  21
HETATM   21  C   UNL     1      -6.781   2.122 -31.328  1.00  0.00     0.206 C 
BRANCH  21  22
HETATM   22  C   UNL     1      -7.973   3.049 -31.386  1.00  0.00    -0.035 A 
HETATM   23  C   UNL     1      -9.027   2.973 -30.466  1.00  0.00     0.009 A 
HETATM   24  C   UNL     1     -10.091   3.878 -30.526  1.00  0.00     0.001 A 
HETATM   25  C   UNL     1     -10.108   4.873 -31.501  1.00  0.00     0.000 A 
HETATM   26  C   UNL     1      -9.062   4.967 -32.416  1.00  0.00     0.001 A 
HETATM   27  C   UNL     1      -8.001   4.062 -32.358  1.00  0.00     0.009 A 
ENDBRANCH  21  22
ENDBRANCH  20  21
ENDBRANCH   2  20
TORSDOF 7
ENDMDL
MODEL 10
REMARK VINA RESULT:      -6.7     14.693     16.392
REMARK  7 active torsions:
REMARK  status: ('A' for Active; 'I' for Inactive)
REMARK    1  A    between atoms: C_2  and  C_3 
REMARK    2  A    between atoms: C_3  and  C_4 
REMARK    3  A    between atoms: C_8  and  C_9 
REMARK       I    between atoms: C_9  and  N_10 
REMARK    4  A    between atoms: N_10  and  C_11 
REMARK    5  A    between atoms: C_12  and  O_13 
REMARK    6  A    between atoms: O_13  and  C_14 
REMARK    7  A    between atoms: C_14  and  C_15 
ROOT
HETATM    1  C   UNL     1      -7.488 -13.329 -39.616  1.00  0.00     0.113 C 
HETATM    2  C   UNL     1      -8.243 -14.682 -39.701  1.00  0.00     0.144 C 
HETATM    3  C   UNL     1      -9.681 -14.520 -39.192  1.00  0.00     0.034 C 
HETATM    4  C   UNL     1     -10.433 -13.426 -39.943  1.00  0.00     0.003 C 
HETATM    5  C   UNL     1      -9.681 -12.101 -39.915  1.00  0.00     0.002 C 
HETATM    6  C   UNL     1      -8.246 -12.255 -40.412  1.00  0.00     0.028 C 
ENDROOT
BRANCH   1   7
HETATM    7  N   UNL     1      -6.109 -13.490 -40.084  1.00  0.00    -0.349 N 
HETATM    8  C   UNL     1      -5.036 -13.033 -39.354  1.00  0.00     0.270 C 
HETATM    9  O   UNL     1      -5.156 -12.335 -38.352  1.00  0.00    -0.266 OA
HETATM   10  H   UNL     1      -5.943 -14.303 -40.664  1.00  0.00     0.163 HD
BRANCH   8  11
HETATM   11  C   UNL     1      -3.746 -13.451 -39.832  1.00  0.00     0.119 A 
HETATM   12  N   UNL     1      -3.491 -13.566 -41.174  1.00  0.00    -0.273 N 
HETATM   13  N   UNL     1      -2.240 -13.959 -41.464  1.00  0.00    -0.179 NA
HETATM   14  H   UNL     1      -4.141 -13.383 -41.932  1.00  0.00     0.189 HD
HETATM   15  C   UNL     1      -1.666 -14.114 -40.267  1.00  0.00     0.057 A 
HETATM   16  C   UNL     1      -2.566 -13.818 -39.215  1.00  0.00     0.065 A 
BRANCH  15  17
HETATM   17  C   UNL     1      -0.244 -14.559 -40.164  1.00  0.00     0.061 C 
BRANCH  17  18
HETATM   18  C   UNL     1       0.391 -14.261 -38.804  1.00  0.00     0.002 C 
HETATM   19  C   UNL     1       1.869 -14.624 -38.742  1.00  0.00     0.005 C 
ENDBRANCH  17  18
ENDBRANCH  15  17
ENDBRANCH   8  11
ENDBRANCH   1   7
BRANCH   2  20
HETATM   20  O   UNL     1      -7.509 -15.639 -38.921  1.00  0.00    -0.379 OA
BRANCH  20  21
HETATM   21  C   UNL     1      -7.840 -15.622 -37.531  1.00  0.00     0.206 C 
BRANCH  21  22
HETATM   22  C   UNL     1      -6.688 -15.121 -36.692  1.00  0.00    -0.035 A 
HETATM   23  C   UNL     1      -5.387 -15.627 -36.823  1.00  0.00     0.009 A 
HETATM   24  C   UNL     1      -4.340 -15.105 -36.059  1.00  0.00     0.001 A 
HETATM   25  C   UNL     1      -4.578 -14.067 -35.162  1.00  0.00     0.000 A 
HETATM   26  C   UNL     1      -5.864 -13.546 -35.027  1.00  0.00     0.001 A 
HETATM   27  C   UNL     1      -6.911 -14.068 -35.788  1.00  0.00     0.009 A 
ENDBRANCH  21  22
ENDBRANCH  20  21
ENDBRANCH   2  20
TORSDOF 7
ENDMDL
