MODEL 1
REMARK VINA RESULT:      -9.8      0.000      0.000
REMARK  3 active torsions:
REMARK  status: ('A' for Active; 'I' for Inactive)
REMARK    1  A    between atoms: C_2  and  C_3 
REMARK    2  A    between atoms: C_6  and  N_7 
REMARK    3  A    between atoms: C_14  and  C_15 
REMARK       I    between atoms: C_15  and  N_16 
ROOT
HETATM    1  N   UNL     1     -10.596   1.304 -33.579  1.00  0.00    -0.252 N 
HETATM    2  C   UNL     1      -9.669   2.088 -34.236  1.00  0.00     0.238 C 
HETATM    3  O   UNL     1      -9.774   3.205 -34.722  1.00  0.00    -0.272 OA
HETATM    4  C   UNL     1      -8.319   1.441 -34.136  1.00  0.00     0.135 C 
HETATM    5  C   UNL     1      -8.664   0.022 -33.765  1.00  0.00     0.130 C 
HETATM    6  C   UNL     1      -9.992   0.163 -33.089  1.00  0.00     0.238 C 
HETATM    7  O   UNL     1     -10.371  -0.653 -32.266  1.00  0.00    -0.272 OA
HETATM    8  C   UNL     1      -7.461   2.001 -33.010  1.00  0.00     0.298 C 
HETATM    9  N   UNL     1      -7.073   0.769 -32.158  1.00  0.00    -0.028 N 
HETATM   10  H   UNL     1      -7.626   0.876 -31.279  1.00  0.00     0.287 HD
HETATM   11  C   UNL     1      -7.579  -0.499 -32.829  1.00  0.00     0.242 C 
HETATM   12  C   UNL     1      -5.693   0.800 -31.782  1.00  0.00     0.203 C 
HETATM   13  C   UNL     1      -4.802  -0.010 -32.358  1.00  0.00     0.037 C 
HETATM   14  C   UNL     1      -5.170  -1.033 -33.328  1.00  0.00    -0.026 A 
HETATM   15  C   UNL     1      -6.526  -1.300 -33.562  1.00  0.00    -0.016 A 
HETATM   16  C   UNL     1      -4.182  -1.795 -33.963  1.00  0.00     0.012 A 
HETATM   17  C   UNL     1      -4.539  -2.835 -34.819  1.00  0.00     0.001 A 
HETATM   18  C   UNL     1      -5.881  -3.133 -35.029  1.00  0.00     0.001 A 
HETATM   19  C   UNL     1      -6.870  -2.378 -34.396  1.00  0.00     0.010 A 
ENDROOT
BRANCH   1  20
HETATM   20  C   UNL     1     -11.964   1.666 -33.355  1.00  0.00     0.045 A 
HETATM   21  C   UNL     1     -13.023   0.821 -33.732  1.00  0.00     0.031 A 
HETATM   22  C   UNL     1     -14.365   1.156 -33.480  1.00  0.00     0.017 A 
HETATM   23  C   UNL     1     -14.682   2.354 -32.842  1.00  0.00     0.009 A 
HETATM   24  C   UNL     1     -13.649   3.215 -32.477  1.00  0.00     0.017 A 
HETATM   25  C   UNL     1     -12.312   2.870 -32.721  1.00  0.00     0.031 A 
BRANCH  23  26
HETATM   26  C   UNL     1     -16.082   2.758 -32.538  1.00  0.00     0.155 C 
HETATM   27  C   UNL     1     -16.333   4.075 -31.854  1.00  0.00     0.096 C 
HETATM   28  O   UNL     1     -17.004   2.008 -32.850  1.00  0.00    -0.293 OA
ENDBRANCH  23  26
ENDBRANCH   1  20
BRANCH   8  29
HETATM   29  C   UNL     1      -8.135   3.018 -32.067  1.00  0.00     0.248 C 
HETATM   30  N   UNL     1      -8.085   4.335 -32.376  1.00  0.00    -0.368 N 
HETATM   31  H   UNL     1      -8.015   4.669 -33.338  1.00  0.00     0.159 HD
HETATM   32  H   UNL     1      -8.596   4.967 -31.762  1.00  0.00     0.159 HD
HETATM   33  O   UNL     1      -8.684   2.603 -31.046  1.00  0.00    -0.271 OA
ENDBRANCH   8  29
TORSDOF 3
ENDMDL
MODEL 2
REMARK VINA RESULT:      -9.3      2.857      7.901
REMARK  3 active torsions:
REMARK  status: ('A' for Active; 'I' for Inactive)
REMARK    1  A    between atoms: C_2  and  C_3 
REMARK    2  A    between atoms: C_6  and  N_7 
REMARK    3  A    between atoms: C_14  and  C_15 
REMARK       I    between atoms: C_15  and  N_16 
ROOT
HETATM    1  N   UNL     1      -6.680   0.594 -32.931  1.00  0.00    -0.252 N 
HETATM    2  C   UNL     1      -6.998   1.644 -33.768  1.00  0.00     0.238 C 
HETATM    3  O   UNL     1      -7.009   1.713 -34.988  1.00  0.00    -0.272 OA
HETATM    4  C   UNL     1      -7.558   2.771 -32.951  1.00  0.00     0.135 C 
HETATM    5  C   UNL     1      -7.100   2.424 -31.558  1.00  0.00     0.130 C 
HETATM    6  C   UNL     1      -6.934   0.937 -31.618  1.00  0.00     0.238 C 
HETATM    7  O   UNL     1      -7.026   0.251 -30.614  1.00  0.00    -0.272 OA
HETATM    8  C   UNL     1      -9.081   2.800 -32.926  1.00  0.00     0.298 C 
HETATM    9  N   UNL     1      -9.451   2.775 -31.423  1.00  0.00    -0.028 N 
HETATM   10  H   UNL     1      -9.846   1.821 -31.269  1.00  0.00     0.287 HD
HETATM   11  C   UNL     1      -8.187   2.856 -30.581  1.00  0.00     0.242 C 
HETATM   12  C   UNL     1     -10.496   3.705 -31.121  1.00  0.00     0.203 C 
HETATM   13  C   UNL     1     -10.240   4.843 -30.471  1.00  0.00     0.037 C 
HETATM   14  C   UNL     1      -8.923   5.179 -29.946  1.00  0.00    -0.026 A 
HETATM   15  C   UNL     1      -7.907   4.214 -29.975  1.00  0.00    -0.016 A 
HETATM   16  C   UNL     1      -8.695   6.424 -29.349  1.00  0.00     0.012 A 
HETATM   17  C   UNL     1      -7.462   6.708 -28.764  1.00  0.00     0.001 A 
HETATM   18  C   UNL     1      -6.460   5.744 -28.754  1.00  0.00     0.001 A 
HETATM   19  C   UNL     1      -6.683   4.500 -29.346  1.00  0.00     0.010 A 
ENDROOT
BRANCH   1  20
HETATM   20  C   UNL     1      -6.240  -0.699 -33.367  1.00  0.00     0.045 A 
HETATM   21  C   UNL     1      -4.913  -1.128 -33.185  1.00  0.00     0.031 A 
HETATM   22  C   UNL     1      -4.487  -2.409 -33.578  1.00  0.00     0.017 A 
HETATM   23  C   UNL     1      -5.385  -3.297 -34.169  1.00  0.00     0.009 A 
HETATM   24  C   UNL     1      -6.701  -2.884 -34.377  1.00  0.00     0.017 A 
HETATM   25  C   UNL     1      -7.121  -1.610 -33.972  1.00  0.00     0.031 A 
BRANCH  23  26
HETATM   26  C   UNL     1      -4.997  -4.669 -34.596  1.00  0.00     0.155 C 
HETATM   27  C   UNL     1      -3.704  -5.255 -34.096  1.00  0.00     0.096 C 
HETATM   28  O   UNL     1      -5.741  -5.295 -35.349  1.00  0.00    -0.293 OA
ENDBRANCH  23  26
ENDBRANCH   1  20
BRANCH   8  29
HETATM   29  C   UNL     1      -9.808   1.619 -33.598  1.00  0.00     0.248 C 
HETATM   30  N   UNL     1     -10.127   1.705 -34.911  1.00  0.00    -0.368 N 
HETATM   31  H   UNL     1      -9.589   2.269 -35.569  1.00  0.00     0.159 HD
HETATM   32  H   UNL     1     -10.549   0.878 -35.332  1.00  0.00     0.159 HD
HETATM   33  O   UNL     1     -10.094   0.635 -32.915  1.00  0.00    -0.271 OA
ENDBRANCH   8  29
TORSDOF 3
ENDMDL
MODEL 3
REMARK VINA RESULT:      -9.1      1.664      1.941
REMARK  3 active torsions:
REMARK  status: ('A' for Active; 'I' for Inactive)
REMARK    1  A    between atoms: C_2  and  C_3 
REMARK    2  A    between atoms: C_6  and  N_7 
REMARK    3  A    between atoms: C_14  and  C_15 
REMARK       I    between atoms: C_15  and  N_16 
ROOT
HETATM    1  N   UNL     1      -9.421   2.246 -32.828  1.00  0.00    -0.252 N 
HETATM    2  C   UNL     1      -8.435   2.775 -33.637  1.00  0.00     0.238 C 
HETATM    3  O   UNL     1      -8.312   3.894 -34.113  1.00  0.00    -0.272 OA
HETATM    4  C   UNL     1      -7.311   1.788 -33.750  1.00  0.00     0.135 C 
HETATM    5  C   UNL     1      -7.961   0.501 -33.310  1.00  0.00     0.130 C 
HETATM    6  C   UNL     1      -9.076   0.970 -32.429  1.00  0.00     0.238 C 
HETATM    7  O   UNL     1      -9.524   0.259 -31.546  1.00  0.00    -0.272 OA
HETATM    8  C   UNL     1      -6.165   2.062 -32.785  1.00  0.00     0.298 C 
HETATM    9  N   UNL     1      -5.992   0.744 -31.993  1.00  0.00    -0.028 N 
HETATM   10  H   UNL     1      -6.347   0.966 -31.037  1.00  0.00     0.287 HD
HETATM   11  C   UNL     1      -6.921  -0.321 -32.557  1.00  0.00     0.242 C 
HETATM   12  C   UNL     1      -4.613   0.393 -31.847  1.00  0.00     0.203 C 
HETATM   13  C   UNL     1      -4.076  -0.607 -32.551  1.00  0.00     0.037 C 
HETATM   14  C   UNL     1      -4.856  -1.462 -33.436  1.00  0.00    -0.026 A 
HETATM   15  C   UNL     1      -6.253  -1.350 -33.442  1.00  0.00    -0.016 A 
HETATM   16  C   UNL     1      -4.224  -2.439 -34.214  1.00  0.00     0.012 A 
HETATM   17  C   UNL     1      -4.980  -3.318 -34.988  1.00  0.00     0.001 A 
HETATM   18  C   UNL     1      -6.368  -3.239 -34.973  1.00  0.00     0.001 A 
HETATM   19  C   UNL     1      -7.003  -2.269 -34.196  1.00  0.00     0.010 A 
ENDROOT
BRANCH   1  20
HETATM   20  C   UNL     1     -10.587   2.954 -32.389  1.00  0.00     0.045 A 
HETATM   21  C   UNL     1     -11.809   2.867 -33.081  1.00  0.00     0.031 A 
HETATM   22  C   UNL     1     -12.965   3.529 -32.633  1.00  0.00     0.017 A 
HETATM   23  C   UNL     1     -12.926   4.301 -31.473  1.00  0.00     0.009 A 
HETATM   24  C   UNL     1     -11.721   4.417 -30.782  1.00  0.00     0.017 A 
HETATM   25  C   UNL     1     -10.575   3.745 -31.228  1.00  0.00     0.031 A 
BRANCH  23  26
HETATM   26  C   UNL     1     -14.118   5.017 -30.942  1.00  0.00     0.155 C 
HETATM   27  C   UNL     1     -14.008   5.759 -29.637  1.00  0.00     0.096 C 
HETATM   28  O   UNL     1     -15.169   4.985 -31.578  1.00  0.00    -0.293 OA
ENDBRANCH  23  26
ENDBRANCH   1  20
BRANCH   8  29
HETATM   29  C   UNL     1      -6.381   3.191 -31.757  1.00  0.00     0.248 C 
HETATM   30  N   UNL     1      -6.026   4.455 -32.085  1.00  0.00    -0.368 N 
HETATM   31  H   UNL     1      -6.020   4.789 -33.049  1.00  0.00     0.159 HD
HETATM   32  H   UNL     1      -6.243   5.181 -31.403  1.00  0.00     0.159 HD
HETATM   33  O   UNL     1      -6.854   2.905 -30.657  1.00  0.00    -0.271 OA
ENDBRANCH   8  29
TORSDOF 3
ENDMDL
MODEL 4
REMARK VINA RESULT:      -9.0      4.776      8.148
REMARK  3 active torsions:
REMARK  status: ('A' for Active; 'I' for Inactive)
REMARK    1  A    between atoms: C_2  and  C_3 
REMARK    2  A    between atoms: C_6  and  N_7 
REMARK    3  A    between atoms: C_14  and  C_15 
REMARK       I    between atoms: C_15  and  N_16 
ROOT
HETATM    1  N   UNL     1      -5.196   1.446 -33.035  1.00  0.00    -0.252 N 
HETATM    2  C   UNL     1      -6.267   2.314 -33.113  1.00  0.00     0.238 C 
HETATM    3  O   UNL     1      -7.412   2.131 -33.498  1.00  0.00    -0.272 OA
HETATM    4  C   UNL     1      -5.901   3.606 -32.443  1.00  0.00     0.135 C 
HETATM    5  C   UNL     1      -4.397   3.535 -32.395  1.00  0.00     0.130 C 
HETATM    6  C   UNL     1      -4.128   2.063 -32.414  1.00  0.00     0.238 C 
HETATM    7  O   UNL     1      -3.105   1.602 -31.934  1.00  0.00    -0.272 OA
HETATM    8  C   UNL     1      -6.390   3.701 -31.004  1.00  0.00     0.298 C 
HETATM    9  N   UNL     1      -5.119   4.000 -30.174  1.00  0.00    -0.028 N 
HETATM   10  H   UNL     1      -4.935   3.115 -29.652  1.00  0.00     0.287 HD
HETATM   11  C   UNL     1      -3.933   4.202 -31.105  1.00  0.00     0.242 C 
HETATM   12  C   UNL     1      -5.356   5.014 -29.192  1.00  0.00     0.203 C 
HETATM   13  C   UNL     1      -4.875   6.250 -29.346  1.00  0.00     0.037 C 
HETATM   14  C   UNL     1      -4.011   6.633 -30.455  1.00  0.00    -0.026 A 
HETATM   15  C   UNL     1      -3.525   5.643 -31.319  1.00  0.00    -0.016 A 
HETATM   16  C   UNL     1      -3.608   7.964 -30.611  1.00  0.00     0.012 A 
HETATM   17  C   UNL     1      -2.707   8.313 -31.616  1.00  0.00     0.001 A 
HETATM   18  C   UNL     1      -2.190   7.332 -32.455  1.00  0.00     0.001 A 
HETATM   19  C   UNL     1      -2.587   6.003 -32.302  1.00  0.00     0.010 A 
ENDROOT
BRANCH   1  20
HETATM   20  C   UNL     1      -5.220   0.075 -33.451  1.00  0.00     0.045 A 
HETATM   21  C   UNL     1      -4.225  -0.836 -33.050  1.00  0.00     0.031 A 
HETATM   22  C   UNL     1      -4.265  -2.190 -33.425  1.00  0.00     0.017 A 
HETATM   23  C   UNL     1      -5.306  -2.669 -34.218  1.00  0.00     0.009 A 
HETATM   24  C   UNL     1      -6.292  -1.778 -34.643  1.00  0.00     0.017 A 
HETATM   25  C   UNL     1      -6.252  -0.432 -34.256  1.00  0.00     0.031 A 
BRANCH  23  26
HETATM   26  C   UNL     1      -5.410  -4.093 -34.639  1.00  0.00     0.155 C 
HETATM   27  C   UNL     1      -6.596  -4.533 -35.454  1.00  0.00     0.096 C 
HETATM   28  O   UNL     1      -4.526  -4.880 -34.310  1.00  0.00    -0.293 OA
ENDBRANCH  23  26
ENDBRANCH   1  20
BRANCH   8  29
HETATM   29  C   UNL     1      -7.041   2.437 -30.409  1.00  0.00     0.248 C 
HETATM   30  N   UNL     1      -8.378   2.263 -30.536  1.00  0.00    -0.368 N 
HETATM   31  H   UNL     1      -8.910   2.658 -31.312  1.00  0.00     0.159 HD
HETATM   32  H   UNL     1      -8.758   1.385 -30.185  1.00  0.00     0.159 HD
HETATM   33  O   UNL     1      -6.327   1.627 -29.817  1.00  0.00    -0.271 OA
ENDBRANCH   8  29
TORSDOF 3
ENDMDL
MODEL 5
REMARK VINA RESULT:      -9.0      3.676      7.891
REMARK  3 active torsions:
REMARK  status: ('A' for Active; 'I' for Inactive)
REMARK    1  A    between atoms: C_2  and  C_3 
REMARK    2  A    between atoms: C_6  and  N_7 
REMARK    3  A    between atoms: C_14  and  C_15 
REMARK       I    between atoms: C_15  and  N_16 
ROOT
HETATM    1  N   UNL     1      -7.290   0.720 -33.225  1.00  0.00    -0.252 N 
HETATM    2  C   UNL     1      -8.075   0.942 -32.111  1.00  0.00     0.238 C 
HETATM    3  O   UNL     1      -8.384   0.195 -31.194  1.00  0.00    -0.272 OA
HETATM    4  C   UNL     1      -8.413   2.402 -32.032  1.00  0.00     0.135 C 
HETATM    5  C   UNL     1      -8.129   2.879 -33.433  1.00  0.00     0.130 C 
HETATM    6  C   UNL     1      -7.113   1.896 -33.925  1.00  0.00     0.238 C 
HETATM    7  O   UNL     1      -6.319   2.196 -34.801  1.00  0.00    -0.272 OA
HETATM    8  C   UNL     1      -7.497   3.184 -31.100  1.00  0.00     0.298 C 
HETATM    9  N   UNL     1      -6.927   4.327 -31.974  1.00  0.00    -0.028 N 
HETATM   10  H   UNL     1      -5.926   4.068 -32.120  1.00  0.00     0.287 HD
HETATM   11  C   UNL     1      -7.581   4.300 -33.347  1.00  0.00     0.242 C 
HETATM   12  C   UNL     1      -6.930   5.577 -31.276  1.00  0.00     0.203 C 
HETATM   13  C   UNL     1      -7.812   6.533 -31.577  1.00  0.00     0.037 C 
HETATM   14  C   UNL     1      -8.761   6.420 -32.678  1.00  0.00    -0.026 A 
HETATM   15  C   UNL     1      -8.655   5.342 -33.566  1.00  0.00    -0.016 A 
HETATM   16  C   UNL     1      -9.719   7.418 -32.891  1.00  0.00     0.012 A 
HETATM   17  C   UNL     1     -10.563   7.356 -33.998  1.00  0.00     0.001 A 
HETATM   18  C   UNL     1     -10.442   6.310 -34.906  1.00  0.00     0.001 A 
HETATM   19  C   UNL     1      -9.486   5.314 -34.699  1.00  0.00     0.010 A 
ENDROOT
BRANCH   1  20
HETATM   20  C   UNL     1      -6.670  -0.530 -33.555  1.00  0.00     0.045 A 
HETATM   21  C   UNL     1      -5.322  -0.789 -33.248  1.00  0.00     0.031 A 
HETATM   22  C   UNL     1      -4.720  -2.027 -33.536  1.00  0.00     0.017 A 
HETATM   23  C   UNL     1      -5.457  -3.041 -34.145  1.00  0.00     0.009 A 
HETATM   24  C   UNL     1      -6.790  -2.798 -34.476  1.00  0.00     0.017 A 
HETATM   25  C   UNL     1      -7.387  -1.566 -34.175  1.00  0.00     0.031 A 
BRANCH  23  26
HETATM   26  C   UNL     1      -4.880  -4.375 -34.464  1.00  0.00     0.155 C 
HETATM   27  C   UNL     1      -3.492  -4.708 -33.985  1.00  0.00     0.096 C 
HETATM   28  O   UNL     1      -5.547  -5.177 -35.114  1.00  0.00    -0.293 OA
ENDBRANCH  23  26
ENDBRANCH   1  20
BRANCH   8  29
HETATM   29  C   UNL     1      -6.299   2.420 -30.504  1.00  0.00     0.248 C 
HETATM   30  N   UNL     1      -6.463   1.739 -29.345  1.00  0.00    -0.368 N 
HETATM   31  H   UNL     1      -7.364   1.353 -29.060  1.00  0.00     0.159 HD
HETATM   32  H   UNL     1      -5.665   1.196 -29.019  1.00  0.00     0.159 HD
HETATM   33  O   UNL     1      -5.217   2.466 -31.091  1.00  0.00    -0.271 OA
ENDBRANCH   8  29
TORSDOF 3
ENDMDL
MODEL 6
REMARK VINA RESULT:      -8.8      2.453      2.687
REMARK  3 active torsions:
REMARK  status: ('A' for Active; 'I' for Inactive)
REMARK    1  A    between atoms: C_2  and  C_3 
REMARK    2  A    between atoms: C_6  and  N_7 
REMARK    3  A    between atoms: C_14  and  C_15 
REMARK       I    between atoms: C_15  and  N_16 
ROOT
HETATM    1  N   UNL     1      -9.126   3.046 -33.962  1.00  0.00    -0.252 N 
HETATM    2  C   UNL     1      -7.836   3.536 -34.019  1.00  0.00     0.238 C 
HETATM    3  O   UNL     1      -7.425   4.678 -34.164  1.00  0.00    -0.272 OA
HETATM    4  C   UNL     1      -6.877   2.435 -33.674  1.00  0.00     0.135 C 
HETATM    5  C   UNL     1      -7.716   1.199 -33.867  1.00  0.00     0.130 C 
HETATM    6  C   UNL     1      -9.110   1.700 -33.656  1.00  0.00     0.238 C 
HETATM    7  O   UNL     1      -9.998   0.954 -33.279  1.00  0.00    -0.272 OA
HETATM    8  C   UNL     1      -6.436   2.452 -32.216  1.00  0.00     0.298 C 
HETATM    9  N   UNL     1      -6.781   1.041 -31.683  1.00  0.00    -0.028 N 
HETATM   10  H   UNL     1      -7.592   1.195 -31.044  1.00  0.00     0.287 HD
HETATM   11  C   UNL     1      -7.294   0.172 -32.822  1.00  0.00     0.242 C 
HETATM   12  C   UNL     1      -5.723   0.505 -30.882  1.00  0.00     0.203 C 
HETATM   13  C   UNL     1      -4.931  -0.467 -31.343  1.00  0.00     0.037 C 
HETATM   14  C   UNL     1      -5.136  -1.111 -32.634  1.00  0.00    -0.026 A 
HETATM   15  C   UNL     1      -6.295  -0.824 -33.368  1.00  0.00    -0.016 A 
HETATM   16  C   UNL     1      -4.223  -2.064 -33.102  1.00  0.00     0.012 A 
HETATM   17  C   UNL     1      -4.469  -2.747 -34.292  1.00  0.00     0.001 A 
HETATM   18  C   UNL     1      -5.634  -2.497 -35.008  1.00  0.00     0.001 A 
HETATM   19  C   UNL     1      -6.549  -1.550 -34.545  1.00  0.00     0.010 A 
ENDROOT
BRANCH   1  20
HETATM   20  C   UNL     1     -10.311   3.839 -34.104  1.00  0.00     0.045 A 
HETATM   21  C   UNL     1     -10.806   4.625 -33.047  1.00  0.00     0.031 A 
HETATM   22  C   UNL     1     -11.947   5.433 -33.195  1.00  0.00     0.017 A 
HETATM   23  C   UNL     1     -12.627   5.472 -34.410  1.00  0.00     0.009 A 
HETATM   24  C   UNL     1     -12.165   4.686 -35.465  1.00  0.00     0.017 A 
HETATM   25  C   UNL     1     -11.020   3.892 -35.315  1.00  0.00     0.031 A 
BRANCH  23  26
HETATM   26  C   UNL     1     -13.833   6.316 -34.631  1.00  0.00     0.155 C 
HETATM   27  C   UNL     1     -14.102   6.866 -36.006  1.00  0.00     0.096 C 
HETATM   28  O   UNL     1     -14.584   6.548 -33.686  1.00  0.00    -0.293 OA
ENDBRANCH  23  26
ENDBRANCH   1  20
BRANCH   8  29
HETATM   29  C   UNL     1      -7.130   3.474 -31.294  1.00  0.00     0.248 C 
HETATM   30  N   UNL     1      -6.605   4.716 -31.176  1.00  0.00    -0.368 N 
HETATM   31  H   UNL     1      -6.065   5.155 -31.921  1.00  0.00     0.159 HD
HETATM   32  H   UNL     1      -7.129   5.380 -30.607  1.00  0.00     0.159 HD
HETATM   33  O   UNL     1      -8.136   3.123 -30.675  1.00  0.00    -0.271 OA
ENDBRANCH   8  29
TORSDOF 3
ENDMDL
MODEL 7
REMARK VINA RESULT:      -8.7      3.416      4.029
REMARK  3 active torsions:
REMARK  status: ('A' for Active; 'I' for Inactive)
REMARK    1  A    between atoms: C_2  and  C_3 
REMARK    2  A    between atoms: C_6  and  N_7 
REMARK    3  A    between atoms: C_14  and  C_15 
REMARK       I    between atoms: C_15  and  N_16 
ROOT
HETATM    1  N   UNL     1      -7.654   3.136 -32.231  1.00  0.00    -0.252 N 
HETATM    2  C   UNL     1      -6.483   3.373 -32.922  1.00  0.00     0.238 C 
HETATM    3  O   UNL     1      -5.940   4.423 -33.232  1.00  0.00    -0.272 OA
HETATM    4  C   UNL     1      -5.766   2.071 -33.134  1.00  0.00     0.135 C 
HETATM    5  C   UNL     1      -6.856   1.057 -32.902  1.00  0.00     0.130 C 
HETATM    6  C   UNL     1      -7.808   1.784 -32.003  1.00  0.00     0.238 C 
HETATM    7  O   UNL     1      -8.546   1.178 -31.244  1.00  0.00    -0.272 OA
HETATM    8  C   UNL     1      -4.681   1.804 -32.100  1.00  0.00     0.298 C 
HETATM    9  N   UNL     1      -5.042   0.426 -31.495  1.00  0.00    -0.028 N 
HETATM   10  H   UNL     1      -5.375   0.645 -30.530  1.00  0.00     0.287 HD
HETATM   11  C   UNL     1      -6.233  -0.164 -32.236  1.00  0.00     0.242 C 
HETATM   12  C   UNL     1      -3.887  -0.406 -31.352  1.00  0.00     0.203 C 
HETATM   13  C   UNL     1      -3.675  -1.441 -32.170  1.00  0.00     0.037 C 
HETATM   14  C   UNL     1      -4.628  -1.851 -33.193  1.00  0.00    -0.026 A 
HETATM   15  C   UNL     1      -5.893  -1.250 -33.232  1.00  0.00    -0.016 A 
HETATM   16  C   UNL     1      -4.313  -2.889 -34.078  1.00  0.00     0.012 A 
HETATM   17  C   UNL     1      -5.260  -3.344 -34.993  1.00  0.00     0.001 A 
HETATM   18  C   UNL     1      -6.531  -2.779 -35.016  1.00  0.00     0.001 A 
HETATM   19  C   UNL     1      -6.851  -1.746 -34.134  1.00  0.00     0.010 A 
ENDROOT
BRANCH   1  20
HETATM   20  C   UNL     1      -8.534   4.154 -31.737  1.00  0.00     0.045 A 
HETATM   21  C   UNL     1      -9.592   4.657 -32.517  1.00  0.00     0.031 A 
HETATM   22  C   UNL     1     -10.481   5.629 -32.023  1.00  0.00     0.017 A 
HETATM   23  C   UNL     1     -10.330   6.125 -30.729  1.00  0.00     0.009 A 
HETATM   24  C   UNL     1      -9.276   5.655 -29.947  1.00  0.00     0.017 A 
HETATM   25  C   UNL     1      -8.401   4.678 -30.441  1.00  0.00     0.031 A 
BRANCH  23  26
HETATM   26  C   UNL     1     -11.244   7.145 -30.146  1.00  0.00     0.155 C 
HETATM   27  C   UNL     1     -10.709   8.517 -29.835  1.00  0.00     0.096 C 
HETATM   28  O   UNL     1     -12.416   6.846 -29.930  1.00  0.00    -0.293 OA
ENDBRANCH  23  26
ENDBRANCH   1  20
BRANCH   8  29
HETATM   29  C   UNL     1      -4.574   2.805 -30.932  1.00  0.00     0.248 C 
HETATM   30  N   UNL     1      -3.723   3.852 -31.039  1.00  0.00    -0.368 N 
HETATM   31  H   UNL     1      -3.468   4.260 -31.938  1.00  0.00     0.159 HD
HETATM   32  H   UNL     1      -3.730   4.524 -30.273  1.00  0.00     0.159 HD
HETATM   33  O   UNL     1      -5.256   2.612 -29.925  1.00  0.00    -0.271 OA
ENDBRANCH   8  29
TORSDOF 3
ENDMDL
MODEL 8
REMARK VINA RESULT:      -8.7      4.050      6.131
REMARK  3 active torsions:
REMARK  status: ('A' for Active; 'I' for Inactive)
REMARK    1  A    between atoms: C_2  and  C_3 
REMARK    2  A    between atoms: C_6  and  N_7 
REMARK    3  A    between atoms: C_14  and  C_15 
REMARK       I    between atoms: C_15  and  N_16 
ROOT
HETATM    1  N   UNL     1      -6.076   2.052 -31.403  1.00  0.00    -0.252 N 
HETATM    2  C   UNL     1      -7.117   1.150 -31.304  1.00  0.00     0.238 C 
HETATM    3  O   UNL     1      -8.257   1.294 -30.886  1.00  0.00    -0.272 OA
HETATM    4  C   UNL     1      -6.730  -0.125 -31.994  1.00  0.00     0.135 C 
HETATM    5  C   UNL     1      -5.230  -0.005 -32.083  1.00  0.00     0.130 C 
HETATM    6  C   UNL     1      -5.007   1.475 -32.058  1.00  0.00     0.238 C 
HETATM    7  O   UNL     1      -4.013   1.971 -32.561  1.00  0.00    -0.272 OA
HETATM    8  C   UNL     1      -7.255  -0.224 -33.420  1.00  0.00     0.298 C 
HETATM    9  N   UNL     1      -5.998  -0.477 -34.287  1.00  0.00    -0.028 N 
HETATM   10  H   UNL     1      -5.856   0.418 -34.806  1.00  0.00     0.287 HD
HETATM   11  C   UNL     1      -4.781  -0.648 -33.390  1.00  0.00     0.242 C 
HETATM   12  C   UNL     1      -6.230  -1.490 -35.270  1.00  0.00     0.203 C 
HETATM   13  C   UNL     1      -5.706  -2.711 -35.140  1.00  0.00     0.037 C 
HETATM   14  C   UNL     1      -4.800  -3.075 -34.058  1.00  0.00    -0.026 A 
HETATM   15  C   UNL     1      -4.322  -2.077 -33.199  1.00  0.00    -0.016 A 
HETATM   16  C   UNL     1      -4.352  -4.394 -33.924  1.00  0.00     0.012 A 
HETATM   17  C   UNL     1      -3.413  -4.721 -32.947  1.00  0.00     0.001 A 
HETATM   18  C   UNL     1      -2.904  -3.731 -32.114  1.00  0.00     0.001 A 
HETATM   19  C   UNL     1      -3.346  -2.414 -32.245  1.00  0.00     0.010 A 
ENDROOT
BRANCH   1  20
HETATM   20  C   UNL     1      -6.132   3.418 -30.975  1.00  0.00     0.045 A 
HETATM   21  C   UNL     1      -6.606   4.438 -31.820  1.00  0.00     0.031 A 
HETATM   22  C   UNL     1      -6.698   5.774 -31.391  1.00  0.00     0.017 A 
HETATM   23  C   UNL     1      -6.312   6.125 -30.099  1.00  0.00     0.009 A 
HETATM   24  C   UNL     1      -5.821   5.132 -29.251  1.00  0.00     0.017 A 
HETATM   25  C   UNL     1      -5.743   3.801 -29.681  1.00  0.00     0.031 A 
BRANCH  23  26
HETATM   26  C   UNL     1      -6.396   7.519 -29.583  1.00  0.00     0.155 C 
HETATM   27  C   UNL     1      -6.732   7.746 -28.134  1.00  0.00     0.096 C 
HETATM   28  O   UNL     1      -6.190   8.455 -30.352  1.00  0.00    -0.293 OA
ENDBRANCH  23  26
ENDBRANCH   1  20
BRANCH   8  29
HETATM   29  C   UNL     1      -7.961   1.023 -33.986  1.00  0.00     0.248 C 
HETATM   30  N   UNL     1      -9.304   1.135 -33.856  1.00  0.00    -0.368 N 
HETATM   31  H   UNL     1      -9.818   0.699 -33.090  1.00  0.00     0.159 HD
HETATM   32  H   UNL     1      -9.723   2.002 -34.187  1.00  0.00     0.159 HD
HETATM   33  O   UNL     1      -7.283   1.877 -34.559  1.00  0.00    -0.271 OA
ENDBRANCH   8  29
TORSDOF 3
ENDMDL
MODEL 9
REMARK VINA RESULT:      -8.3      4.150      7.710
REMARK  3 active torsions:
REMARK  status: ('A' for Active; 'I' for Inactive)
REMARK    1  A    between atoms: C_2  and  C_3 
REMARK    2  A    between atoms: C_6  and  N_7 
REMARK    3  A    between atoms: C_14  and  C_15 
REMARK       I    between atoms: C_15  and  N_16 
ROOT
HETATM    1  N   UNL     1      -4.637   3.475 -31.500  1.00  0.00    -0.252 N 
HETATM    2  C   UNL     1      -5.248   2.679 -30.552  1.00  0.00     0.238 C 
HETATM    3  O   UNL     1      -5.457   2.876 -29.364  1.00  0.00    -0.272 OA
HETATM    4  C   UNL     1      -5.855   1.486 -31.230  1.00  0.00     0.135 C 
HETATM    5  C   UNL     1      -5.138   1.464 -32.555  1.00  0.00     0.130 C 
HETATM    6  C   UNL     1      -4.740   2.894 -32.748  1.00  0.00     0.238 C 
HETATM    7  O   UNL     1      -4.563   3.355 -33.864  1.00  0.00    -0.272 OA
HETATM    8  C   UNL     1      -7.339   1.650 -31.529  1.00  0.00     0.298 C 
HETATM    9  N   UNL     1      -7.466   1.400 -33.051  1.00  0.00    -0.028 N 
HETATM   10  H   UNL     1      -7.670   2.342 -33.453  1.00  0.00     0.287 HD
HETATM   11  C   UNL     1      -6.118   0.977 -33.616  1.00  0.00     0.242 C 
HETATM   12  C   UNL     1      -8.590   0.571 -33.358  1.00  0.00     0.203 C 
HETATM   13  C   UNL     1      -8.429  -0.704 -33.723  1.00  0.00     0.037 C 
HETATM   14  C   UNL     1      -7.120  -1.312 -33.924  1.00  0.00    -0.026 A 
HETATM   15  C   UNL     1      -5.976  -0.503 -33.892  1.00  0.00    -0.016 A 
HETATM   16  C   UNL     1      -7.012  -2.675 -34.222  1.00  0.00     0.012 A 
HETATM   17  C   UNL     1      -5.768  -3.235 -34.507  1.00  0.00     0.001 A 
HETATM   18  C   UNL     1      -4.631  -2.435 -34.514  1.00  0.00     0.001 A 
HETATM   19  C   UNL     1      -4.734  -1.074 -34.220  1.00  0.00     0.010 A 
ENDROOT
BRANCH   1  20
HETATM   20  C   UNL     1      -4.063   4.763 -31.243  1.00  0.00     0.045 A 
HETATM   21  C   UNL     1      -2.674   4.978 -31.301  1.00  0.00     0.031 A 
HETATM   22  C   UNL     1      -2.110   6.248 -31.086  1.00  0.00     0.017 A 
HETATM   23  C   UNL     1      -2.927   7.340 -30.803  1.00  0.00     0.009 A 
HETATM   24  C   UNL     1      -4.306   7.146 -30.721  1.00  0.00     0.017 A 
HETATM   25  C   UNL     1      -4.862   5.879 -30.948  1.00  0.00     0.031 A 
BRANCH  23  26
HETATM   26  C   UNL     1      -2.391   8.710 -30.577  1.00  0.00     0.155 C 
HETATM   27  C   UNL     1      -1.810   9.059 -29.233  1.00  0.00     0.096 C 
HETATM   28  O   UNL     1      -2.435   9.530 -31.492  1.00  0.00    -0.293 OA
ENDBRANCH  23  26
ENDBRANCH   1  20
BRANCH   8  29
HETATM   29  C   UNL     1      -7.956   3.032 -31.237  1.00  0.00     0.248 C 
HETATM   30  N   UNL     1      -8.485   3.271 -30.014  1.00  0.00    -0.368 N 
HETATM   31  H   UNL     1      -8.158   2.795 -29.173  1.00  0.00     0.159 HD
HETATM   32  H   UNL     1      -8.825   4.216 -29.841  1.00  0.00     0.159 HD
HETATM   33  O   UNL     1      -7.965   3.877 -32.134  1.00  0.00    -0.271 OA
ENDBRANCH   8  29
TORSDOF 3
ENDMDL
MODEL 10
REMARK VINA RESULT:      -8.3      3.568      6.302
REMARK  3 active torsions:
REMARK  status: ('A' for Active; 'I' for Inactive)
REMARK    1  A    between atoms: C_2  and  C_3 
REMARK    2  A    between atoms: C_6  and  N_7 
REMARK    3  A    between atoms: C_14  and  C_15 
REMARK       I    between atoms: C_15  and  N_16 
ROOT
HETATM    1  N   UNL     1      -6.658   3.381 -30.794  1.00  0.00    -0.252 N 
HETATM    2  C   UNL     1      -7.720   2.502 -30.716  1.00  0.00     0.238 C 
HETATM    3  O   UNL     1      -8.789   2.597 -30.129  1.00  0.00    -0.272 OA
HETATM    4  C   UNL     1      -7.487   1.363 -31.665  1.00  0.00     0.135 C 
HETATM    5  C   UNL     1      -6.008   1.459 -31.932  1.00  0.00     0.130 C 
HETATM    6  C   UNL     1      -5.711   2.904 -31.679  1.00  0.00     0.238 C 
HETATM    7  O   UNL     1      -4.767   3.458 -32.216  1.00  0.00    -0.272 OA
HETATM    8  C   UNL     1      -8.195   1.537 -33.002  1.00  0.00     0.298 C 
HETATM    9  N   UNL     1      -7.073   1.413 -34.061  1.00  0.00    -0.028 N 
HETATM   10  H   UNL     1      -6.955   2.383 -34.429  1.00  0.00     0.287 HD
HETATM   11  C   UNL     1      -5.761   1.052 -33.381  1.00  0.00     0.242 C 
HETATM   12  C   UNL     1      -7.478   0.601 -35.167  1.00  0.00     0.203 C 
HETATM   13  C   UNL     1      -7.002  -0.637 -35.325  1.00  0.00     0.037 C 
HETATM   14  C   UNL     1      -5.985  -1.213 -34.456  1.00  0.00    -0.026 A 
HETATM   15  C   UNL     1      -5.352  -0.398 -33.507  1.00  0.00    -0.016 A 
HETATM   16  C   UNL     1      -5.588  -2.545 -34.618  1.00  0.00     0.012 A 
HETATM   17  C   UNL     1      -4.549  -3.067 -33.849  1.00  0.00     0.001 A 
HETATM   18  C   UNL     1      -3.890  -2.257 -32.931  1.00  0.00     0.001 A 
HETATM   19  C   UNL     1      -4.280  -0.927 -32.767  1.00  0.00     0.010 A 
ENDROOT
BRANCH   1  20
HETATM   20  C   UNL     1      -6.592   4.648 -30.129  1.00  0.00     0.045 A 
HETATM   21  C   UNL     1      -7.330   5.758 -30.579  1.00  0.00     0.031 A 
HETATM   22  C   UNL     1      -7.297   6.993 -29.908  1.00  0.00     0.017 A 
HETATM   23  C   UNL     1      -6.517   7.149 -28.763  1.00  0.00     0.009 A 
HETATM   24  C   UNL     1      -5.762   6.067 -28.311  1.00  0.00     0.017 A 
HETATM   25  C   UNL     1      -5.809   4.836 -28.979  1.00  0.00     0.031 A 
BRANCH  23  26
HETATM   26  C   UNL     1      -6.449   8.427 -28.003  1.00  0.00     0.155 C 
HETATM   27  C   UNL     1      -5.454   9.477 -28.419  1.00  0.00     0.096 C 
HETATM   28  O   UNL     1      -7.206   8.598 -27.050  1.00  0.00    -0.293 OA
ENDBRANCH  23  26
ENDBRANCH   1  20
BRANCH   8  29
HETATM   29  C   UNL     1      -8.906   2.883 -33.241  1.00  0.00     0.248 C 
HETATM   30  N   UNL     1     -10.197   3.023 -32.856  1.00  0.00    -0.368 N 
HETATM   31  H   UNL     1     -10.598   2.491 -32.083  1.00  0.00     0.159 HD
HETATM   32  H   UNL     1     -10.610   3.947 -32.973  1.00  0.00     0.159 HD
HETATM   33  O   UNL     1      -8.283   3.791 -33.792  1.00  0.00    -0.271 OA
ENDBRANCH   8  29
TORSDOF 3
ENDMDL
