MODEL 1
REMARK VINA RESULT:      -9.1      0.000      0.000
REMARK  7 active torsions:
REMARK  status: ('A' for Active; 'I' for Inactive)
REMARK    1  A    between atoms: O_2  and  C_3 
REMARK    2  A    between atoms: C_6  and  C_7 
REMARK    3  A    between atoms: C_11  and  C_12 
REMARK       I    between atoms: C_12  and  N_13 
REMARK    4  A    between atoms: N_13  and  N_14 
REMARK       I    between atoms: N_14  and  C_15 
REMARK    5  A    between atoms: C_15  and  C_16 
REMARK    6  A    between atoms: C_16  and  C_17 
REMARK    7  A    between atoms: C_17  and  C_18 
ROOT
HETATM    1  C   UNL     1      -2.170   4.398 -32.262  1.00  0.00     0.288 C 
HETATM    2  N   UNL     1      -2.937   3.443 -31.631  1.00  0.00    -0.262 N 
HETATM    3  O   UNL     1      -2.016   4.401 -33.482  1.00  0.00    -0.264 OA
HETATM    4  H   UNL     1      -3.115   3.421 -30.630  1.00  0.00     0.190 HD
ENDROOT
BRANCH   1   5
HETATM    5  C   UNL     1      -1.579   5.387 -31.404  1.00  0.00     0.121 A 
HETATM    6  N   UNL     1      -1.754   6.723 -31.624  1.00  0.00    -0.272 N 
HETATM    7  N   UNL     1      -1.178   7.512 -30.707  1.00  0.00    -0.174 NA
HETATM    8  H   UNL     1      -2.276   7.153 -32.382  1.00  0.00     0.189 HD
HETATM    9  C   UNL     1      -0.579   6.664 -29.856  1.00  0.00     0.089 A 
HETATM   10  C   UNL     1      -0.798   5.319 -30.267  1.00  0.00     0.071 A 
BRANCH   9  11
HETATM   11  C   UNL     1       0.148   7.141 -28.676  1.00  0.00    -0.005 A 
HETATM   12  C   UNL     1      -0.023   6.509 -27.436  1.00  0.00     0.016 A 
HETATM   13  C   UNL     1       0.697   6.923 -26.308  1.00  0.00     0.037 A 
HETATM   14  C   UNL     1       1.597   7.981 -26.403  1.00  0.00     0.068 A 
HETATM   15  C   UNL     1       1.753   8.635 -27.628  1.00  0.00     0.037 A 
HETATM   16  C   UNL     1       1.039   8.219 -28.757  1.00  0.00     0.016 A 
BRANCH  14  17
HETATM   17  O   UNL     1       2.368   8.475 -25.388  1.00  0.00    -0.356 OA
HETATM   18  C   UNL     1       1.741   9.392 -24.500  1.00  0.00     0.210 C 
ENDBRANCH  14  17
ENDBRANCH   9  11
ENDBRANCH   1   5
BRANCH   2  19
HETATM   19  N   UNL     1      -3.600   2.488 -32.407  1.00  0.00    -0.267 N 
HETATM   20  C   UNL     1      -3.534   1.171 -32.014  1.00  0.00     0.236 C 
HETATM   21  O   UNL     1      -2.844   0.791 -31.069  1.00  0.00    -0.272 OA
HETATM   22  H   UNL     1      -4.265   2.841 -33.094  1.00  0.00     0.190 HD
BRANCH  20  23
HETATM   23  C   UNL     1      -4.371   0.231 -32.846  1.00  0.00     0.109 C 
BRANCH  23  24
HETATM   24  C   UNL     1      -3.671  -1.113 -33.021  1.00  0.00     0.048 C 
BRANCH  24  25
HETATM   25  C   UNL     1      -4.567  -2.131 -33.685  1.00  0.00    -0.058 A 
HETATM   26  C   UNL     1      -4.117  -3.442 -33.903  1.00  0.00     0.010 A 
HETATM   27  C   UNL     1      -4.945  -4.377 -34.526  1.00  0.00     0.043 A 
HETATM   28  C   UNL     1      -6.219  -4.001 -34.934  1.00  0.00     0.116 A 
HETATM   29  F   UNL     1      -7.012  -4.899 -35.532  1.00  0.00    -0.206 F 
HETATM   30  C   UNL     1      -6.683  -2.707 -34.729  1.00  0.00     0.043 A 
HETATM   31  C   UNL     1      -5.858  -1.771 -34.104  1.00  0.00     0.010 A 
ENDBRANCH  24  25
ENDBRANCH  23  24
ENDBRANCH  20  23
ENDBRANCH   2  19
TORSDOF 7
ENDMDL
MODEL 2
REMARK VINA RESULT:      -8.9      4.171     11.636
REMARK  7 active torsions:
REMARK  status: ('A' for Active; 'I' for Inactive)
REMARK    1  A    between atoms: O_2  and  C_3 
REMARK    2  A    between atoms: C_6  and  C_7 
REMARK    3  A    between atoms: C_11  and  C_12 
REMARK       I    between atoms: C_12  and  N_13 
REMARK    4  A    between atoms: N_13  and  N_14 
REMARK       I    between atoms: N_14  and  C_15 
REMARK    5  A    between atoms: C_15  and  C_16 
REMARK    6  A    between atoms: C_16  and  C_17 
REMARK    7  A    between atoms: C_17  and  C_18 
ROOT
HETATM    1  C   UNL     1      -3.713   4.150 -31.173  1.00  0.00     0.288 C 
HETATM    2  N   UNL     1      -2.336   4.196 -31.152  1.00  0.00    -0.262 N 
HETATM    3  O   UNL     1      -4.396   5.153 -30.967  1.00  0.00    -0.264 OA
HETATM    4  H   UNL     1      -1.734   3.398 -31.346  1.00  0.00     0.190 HD
ENDROOT
BRANCH   1   5
HETATM    5  C   UNL     1      -4.289   2.867 -31.462  1.00  0.00     0.121 A 
HETATM    6  N   UNL     1      -5.409   2.423 -30.819  1.00  0.00    -0.272 N 
HETATM    7  N   UNL     1      -5.846   1.228 -31.238  1.00  0.00    -0.174 NA
HETATM    8  H   UNL     1      -5.928   2.907 -30.092  1.00  0.00     0.189 HD
HETATM    9  C   UNL     1      -4.969   0.855 -32.182  1.00  0.00     0.089 A 
HETATM   10  C   UNL     1      -3.967   1.854 -32.344  1.00  0.00     0.071 A 
BRANCH   9  11
HETATM   11  C   UNL     1      -5.116  -0.403 -32.919  1.00  0.00    -0.005 A 
HETATM   12  C   UNL     1      -6.322  -0.707 -33.567  1.00  0.00     0.016 A 
HETATM   13  C   UNL     1      -6.466  -1.884 -34.313  1.00  0.00     0.037 A 
HETATM   14  C   UNL     1      -5.404  -2.779 -34.417  1.00  0.00     0.068 A 
HETATM   15  C   UNL     1      -4.208  -2.497 -33.753  1.00  0.00     0.037 A 
HETATM   16  C   UNL     1      -4.060  -1.319 -33.012  1.00  0.00     0.016 A 
BRANCH  14  17
HETATM   17  O   UNL     1      -5.406  -3.952 -35.120  1.00  0.00    -0.356 OA
HETATM   18  C   UNL     1      -6.673  -4.562 -35.336  1.00  0.00     0.210 C 
ENDBRANCH  14  17
ENDBRANCH   9  11
ENDBRANCH   1   5
BRANCH   2  19
HETATM   19  N   UNL     1      -1.703   5.424 -30.946  1.00  0.00    -0.267 N 
HETATM   20  C   UNL     1      -0.340   5.429 -30.751  1.00  0.00     0.236 C 
HETATM   21  O   UNL     1       0.323   4.397 -30.660  1.00  0.00    -0.272 OA
HETATM   22  H   UNL     1      -2.246   6.259 -31.160  1.00  0.00     0.190 HD
BRANCH  20  23
HETATM   23  C   UNL     1       0.269   6.806 -30.650  1.00  0.00     0.109 C 
BRANCH  23  24
HETATM   24  C   UNL     1      -0.494   7.668 -29.649  1.00  0.00     0.048 C 
BRANCH  24  25
HETATM   25  C   UNL     1       0.225   7.760 -28.325  1.00  0.00    -0.058 A 
HETATM   26  C   UNL     1      -0.199   6.992 -27.229  1.00  0.00     0.010 A 
HETATM   27  C   UNL     1       0.463   7.087 -26.004  1.00  0.00     0.043 A 
HETATM   28  C   UNL     1       1.544   7.952 -25.873  1.00  0.00     0.116 A 
HETATM   29  F   UNL     1       2.176   8.043 -24.697  1.00  0.00    -0.206 F 
HETATM   30  C   UNL     1       1.977   8.722 -26.945  1.00  0.00     0.043 A 
HETATM   31  C   UNL     1       1.319   8.626 -28.173  1.00  0.00     0.010 A 
ENDBRANCH  24  25
ENDBRANCH  23  24
ENDBRANCH  20  23
ENDBRANCH   2  19
TORSDOF 7
ENDMDL
MODEL 3
REMARK VINA RESULT:      -8.6      8.566     12.273
REMARK  7 active torsions:
REMARK  status: ('A' for Active; 'I' for Inactive)
REMARK    1  A    between atoms: O_2  and  C_3 
REMARK    2  A    between atoms: C_6  and  C_7 
REMARK    3  A    between atoms: C_11  and  C_12 
REMARK       I    between atoms: C_12  and  N_13 
REMARK    4  A    between atoms: N_13  and  N_14 
REMARK       I    between atoms: N_14  and  C_15 
REMARK    5  A    between atoms: C_15  and  C_16 
REMARK    6  A    between atoms: C_16  and  C_17 
REMARK    7  A    between atoms: C_17  and  C_18 
ROOT
HETATM    1  C   UNL     1     -10.802   1.293 -33.601  1.00  0.00     0.288 C 
HETATM    2  N   UNL     1     -10.200   0.345 -32.804  1.00  0.00    -0.262 N 
HETATM    3  O   UNL     1     -10.180   1.890 -34.478  1.00  0.00    -0.264 OA
HETATM    4  H   UNL     1     -10.684  -0.193 -32.089  1.00  0.00     0.190 HD
ENDROOT
BRANCH   1   5
HETATM    5  C   UNL     1     -12.197   1.524 -33.348  1.00  0.00     0.121 A 
HETATM    6  N   UNL     1     -13.122   0.526 -33.464  1.00  0.00    -0.272 N 
HETATM    7  N   UNL     1     -14.371   0.893 -33.147  1.00  0.00    -0.174 NA
HETATM    8  H   UNL     1     -12.949  -0.436 -33.742  1.00  0.00     0.189 HD
HETATM    9  C   UNL     1     -14.273   2.193 -32.829  1.00  0.00     0.089 A 
HETATM   10  C   UNL     1     -12.924   2.630 -32.954  1.00  0.00     0.071 A 
BRANCH   9  11
HETATM   11  C   UNL     1     -15.437   2.968 -32.389  1.00  0.00    -0.005 A 
HETATM   12  C   UNL     1     -16.696   2.360 -32.289  1.00  0.00     0.016 A 
HETATM   13  C   UNL     1     -17.810   3.073 -31.828  1.00  0.00     0.037 A 
HETATM   14  C   UNL     1     -17.681   4.411 -31.464  1.00  0.00     0.068 A 
HETATM   15  C   UNL     1     -16.436   5.033 -31.587  1.00  0.00     0.037 A 
HETATM   16  C   UNL     1     -15.321   4.320 -32.041  1.00  0.00     0.016 A 
BRANCH  14  17
HETATM   17  O   UNL     1     -18.679   5.216 -30.990  1.00  0.00    -0.356 OA
HETATM   18  C   UNL     1     -18.497   5.754 -29.686  1.00  0.00     0.210 C 
ENDBRANCH  14  17
ENDBRANCH   9  11
ENDBRANCH   1   5
BRANCH   2  19
HETATM   19  N   UNL     1      -8.861   0.016 -33.038  1.00  0.00    -0.267 N 
HETATM   20  C   UNL     1      -7.914   0.482 -32.154  1.00  0.00     0.236 C 
HETATM   21  O   UNL     1      -8.185   1.244 -31.227  1.00  0.00    -0.272 OA
HETATM   22  H   UNL     1      -8.685  -0.717 -33.722  1.00  0.00     0.190 HD
BRANCH  20  23
HETATM   23  C   UNL     1      -6.515  -0.016 -32.423  1.00  0.00     0.109 C 
BRANCH  23  24
HETATM   24  C   UNL     1      -6.313  -0.298 -33.909  1.00  0.00     0.048 C 
BRANCH  24  25
HETATM   25  C   UNL     1      -5.948  -1.740 -34.162  1.00  0.00    -0.058 A 
HETATM   26  C   UNL     1      -4.634  -2.189 -33.960  1.00  0.00     0.010 A 
HETATM   27  C   UNL     1      -4.299  -3.521 -34.205  1.00  0.00     0.043 A 
HETATM   28  C   UNL     1      -5.274  -4.403 -34.654  1.00  0.00     0.116 A 
HETATM   29  F   UNL     1      -4.950  -5.681 -34.889  1.00  0.00    -0.206 F 
HETATM   30  C   UNL     1      -6.581  -3.978 -34.863  1.00  0.00     0.043 A 
HETATM   31  C   UNL     1      -6.919  -2.646 -34.616  1.00  0.00     0.010 A 
ENDBRANCH  24  25
ENDBRANCH  23  24
ENDBRANCH  20  23
ENDBRANCH   2  19
TORSDOF 7
ENDMDL
MODEL 4
REMARK VINA RESULT:      -8.6      3.848     11.332
REMARK  7 active torsions:
REMARK  status: ('A' for Active; 'I' for Inactive)
REMARK    1  A    between atoms: O_2  and  C_3 
REMARK    2  A    between atoms: C_6  and  C_7 
REMARK    3  A    between atoms: C_11  and  C_12 
REMARK       I    between atoms: C_12  and  N_13 
REMARK    4  A    between atoms: N_13  and  N_14 
REMARK       I    between atoms: N_14  and  C_15 
REMARK    5  A    between atoms: C_15  and  C_16 
REMARK    6  A    between atoms: C_16  and  C_17 
REMARK    7  A    between atoms: C_17  and  C_18 
ROOT
HETATM    1  C   UNL     1      -3.395   3.782 -31.477  1.00  0.00     0.288 C 
HETATM    2  N   UNL     1      -2.097   4.045 -31.097  1.00  0.00    -0.262 N 
HETATM    3  O   UNL     1      -4.238   4.675 -31.557  1.00  0.00    -0.264 OA
HETATM    4  H   UNL     1      -1.362   3.343 -31.048  1.00  0.00     0.190 HD
ENDROOT
BRANCH   1   5
HETATM    5  C   UNL     1      -3.688   2.410 -31.785  1.00  0.00     0.121 A 
HETATM    6  N   UNL     1      -3.122   1.382 -31.087  1.00  0.00    -0.272 N 
HETATM    7  N   UNL     1      -3.536   0.166 -31.466  1.00  0.00    -0.174 NA
HETATM    8  H   UNL     1      -2.454   1.457 -30.325  1.00  0.00     0.189 HD
HETATM    9  C   UNL     1      -4.395   0.396 -32.471  1.00  0.00     0.089 A 
HETATM   10  C   UNL     1      -4.509   1.795 -32.710  1.00  0.00     0.071 A 
BRANCH   9  11
HETATM   11  C   UNL     1      -5.100  -0.695 -33.148  1.00  0.00    -0.005 A 
HETATM   12  C   UNL     1      -6.478  -0.604 -33.393  1.00  0.00     0.016 A 
HETATM   13  C   UNL     1      -7.160  -1.618 -34.079  1.00  0.00     0.037 A 
HETATM   14  C   UNL     1      -6.472  -2.743 -34.526  1.00  0.00     0.068 A 
HETATM   15  C   UNL     1      -5.105  -2.855 -34.262  1.00  0.00     0.037 A 
HETATM   16  C   UNL     1      -4.421  -1.841 -33.583  1.00  0.00     0.016 A 
BRANCH  14  17
HETATM   17  O   UNL     1      -7.011  -3.794 -35.215  1.00  0.00    -0.356 OA
HETATM   18  C   UNL     1      -6.154  -4.903 -35.457  1.00  0.00     0.210 C 
ENDBRANCH  14  17
ENDBRANCH   9  11
ENDBRANCH   1   5
BRANCH   2  19
HETATM   19  N   UNL     1      -1.720   5.368 -30.848  1.00  0.00    -0.267 N 
HETATM   20  C   UNL     1      -0.378   5.675 -30.865  1.00  0.00     0.236 C 
HETATM   21  O   UNL     1       0.499   4.823 -30.998  1.00  0.00    -0.272 OA
HETATM   22  H   UNL     1      -2.461   6.067 -30.878  1.00  0.00     0.190 HD
BRANCH  20  23
HETATM   23  C   UNL     1      -0.075   7.144 -30.699  1.00  0.00     0.109 C 
BRANCH  23  24
HETATM   24  C   UNL     1       0.715   7.397 -29.419  1.00  0.00     0.048 C 
BRANCH  24  25
HETATM   25  C   UNL     1      -0.162   7.318 -28.193  1.00  0.00    -0.058 A 
HETATM   26  C   UNL     1      -0.014   6.264 -27.278  1.00  0.00     0.010 A 
HETATM   27  C   UNL     1      -0.834   6.190 -26.151  1.00  0.00     0.043 A 
HETATM   28  C   UNL     1      -1.802   7.165 -25.940  1.00  0.00     0.116 A 
HETATM   29  F   UNL     1      -2.588   7.092 -24.859  1.00  0.00    -0.206 F 
HETATM   30  C   UNL     1      -1.965   8.215 -26.836  1.00  0.00     0.043 A 
HETATM   31  C   UNL     1      -1.145   8.293 -27.963  1.00  0.00     0.010 A 
ENDBRANCH  24  25
ENDBRANCH  23  24
ENDBRANCH  20  23
ENDBRANCH   2  19
TORSDOF 7
ENDMDL
MODEL 5
REMARK VINA RESULT:      -8.3      1.697      2.143
REMARK  7 active torsions:
REMARK  status: ('A' for Active; 'I' for Inactive)
REMARK    1  A    between atoms: O_2  and  C_3 
REMARK    2  A    between atoms: C_6  and  C_7 
REMARK    3  A    between atoms: C_11  and  C_12 
REMARK       I    between atoms: C_12  and  N_13 
REMARK    4  A    between atoms: N_13  and  N_14 
REMARK       I    between atoms: N_14  and  C_15 
REMARK    5  A    between atoms: C_15  and  C_16 
REMARK    6  A    between atoms: C_16  and  C_17 
REMARK    7  A    between atoms: C_17  and  C_18 
ROOT
HETATM    1  C   UNL     1      -2.376   4.568 -32.355  1.00  0.00     0.288 C 
HETATM    2  N   UNL     1      -2.983   3.463 -31.799  1.00  0.00    -0.262 N 
HETATM    3  O   UNL     1      -2.561   4.884 -33.530  1.00  0.00    -0.264 OA
HETATM    4  H   UNL     1      -2.881   3.184 -30.826  1.00  0.00     0.190 HD
ENDROOT
BRANCH   1   5
HETATM    5  C   UNL     1      -1.532   5.325 -31.474  1.00  0.00     0.121 A 
HETATM    6  N   UNL     1      -0.172   5.212 -31.511  1.00  0.00    -0.272 N 
HETATM    7  N   UNL     1       0.471   6.021 -30.658  1.00  0.00    -0.174 NA
HETATM    8  H   UNL     1       0.373   4.605 -32.116  1.00  0.00     0.189 HD
HETATM    9  C   UNL     1      -0.504   6.682 -30.014  1.00  0.00     0.089 A 
HETATM   10  C   UNL     1      -1.779   6.264 -30.491  1.00  0.00     0.071 A 
BRANCH   9  11
HETATM   11  C   UNL     1      -0.208   7.700 -29.003  1.00  0.00    -0.005 A 
HETATM   12  C   UNL     1       1.080   7.803 -28.458  1.00  0.00     0.016 A 
HETATM   13  C   UNL     1       1.393   8.799 -27.524  1.00  0.00     0.037 A 
HETATM   14  C   UNL     1       0.418   9.706 -27.117  1.00  0.00     0.068 A 
HETATM   15  C   UNL     1      -0.875   9.595 -27.634  1.00  0.00     0.037 A 
HETATM   16  C   UNL     1      -1.187   8.604 -28.572  1.00  0.00     0.016 A 
BRANCH  14  17
HETATM   17  O   UNL     1       0.592  10.729 -26.226  1.00  0.00    -0.356 OA
HETATM   18  C   UNL     1       0.227  10.466 -24.876  1.00  0.00     0.210 C 
ENDBRANCH  14  17
ENDBRANCH   9  11
ENDBRANCH   1   5
BRANCH   2  19
HETATM   19  N   UNL     1      -3.873   2.717 -32.576  1.00  0.00    -0.267 N 
HETATM   20  C   UNL     1      -5.178   2.614 -32.152  1.00  0.00     0.236 C 
HETATM   21  O   UNL     1      -5.568   3.072 -31.079  1.00  0.00    -0.272 OA
HETATM   22  H   UNL     1      -3.561   2.468 -33.514  1.00  0.00     0.190 HD
BRANCH  20  23
HETATM   23  C   UNL     1      -6.088   1.886 -33.111  1.00  0.00     0.109 C 
BRANCH  23  24
HETATM   24  C   UNL     1      -6.660   0.626 -32.470  1.00  0.00     0.048 C 
BRANCH  24  25
HETATM   25  C   UNL     1      -6.223  -0.622 -33.197  1.00  0.00    -0.058 A 
HETATM   26  C   UNL     1      -7.155  -1.398 -33.903  1.00  0.00     0.010 A 
HETATM   27  C   UNL     1      -6.749  -2.557 -34.567  1.00  0.00     0.043 A 
HETATM   28  C   UNL     1      -5.414  -2.942 -34.522  1.00  0.00     0.116 A 
HETATM   29  F   UNL     1      -5.026  -4.054 -35.158  1.00  0.00    -0.206 F 
HETATM   30  C   UNL     1      -4.476  -2.188 -33.826  1.00  0.00     0.043 A 
HETATM   31  C   UNL     1      -4.880  -1.027 -33.164  1.00  0.00     0.010 A 
ENDBRANCH  24  25
ENDBRANCH  23  24
ENDBRANCH  20  23
ENDBRANCH   2  19
TORSDOF 7
ENDMDL
MODEL 6
REMARK VINA RESULT:      -8.3      4.408     11.633
REMARK  7 active torsions:
REMARK  status: ('A' for Active; 'I' for Inactive)
REMARK    1  A    between atoms: O_2  and  C_3 
REMARK    2  A    between atoms: C_6  and  C_7 
REMARK    3  A    between atoms: C_11  and  C_12 
REMARK       I    between atoms: C_12  and  N_13 
REMARK    4  A    between atoms: N_13  and  N_14 
REMARK       I    between atoms: N_14  and  C_15 
REMARK    5  A    between atoms: C_15  and  C_16 
REMARK    6  A    between atoms: C_16  and  C_17 
REMARK    7  A    between atoms: C_17  and  C_18 
ROOT
HETATM    1  C   UNL     1      -5.701   3.879 -29.872  1.00  0.00     0.288 C 
HETATM    2  N   UNL     1      -4.456   4.447 -30.035  1.00  0.00    -0.262 N 
HETATM    3  O   UNL     1      -6.626   4.490 -29.339  1.00  0.00    -0.264 OA
HETATM    4  H   UNL     1      -3.674   3.989 -30.497  1.00  0.00     0.190 HD
ENDROOT
BRANCH   1   5
HETATM    5  C   UNL     1      -5.845   2.541 -30.377  1.00  0.00     0.121 A 
HETATM    6  N   UNL     1      -6.451   1.561 -29.645  1.00  0.00    -0.272 N 
HETATM    7  N   UNL     1      -6.548   0.383 -30.277  1.00  0.00    -0.174 NA
HETATM    8  H   UNL     1      -6.833   1.647 -28.708  1.00  0.00     0.189 HD
HETATM    9  C   UNL     1      -5.964   0.586 -31.468  1.00  0.00     0.089 A 
HETATM   10  C   UNL     1      -5.498   1.928 -31.565  1.00  0.00     0.071 A 
BRANCH   9  11
HETATM   11  C   UNL     1      -5.891  -0.470 -32.482  1.00  0.00    -0.005 A 
HETATM   12  C   UNL     1      -7.036  -0.839 -33.203  1.00  0.00     0.016 A 
HETATM   13  C   UNL     1      -6.975  -1.814 -34.206  1.00  0.00     0.037 A 
HETATM   14  C   UNL     1      -5.767  -2.441 -34.500  1.00  0.00     0.068 A 
HETATM   15  C   UNL     1      -4.627  -2.099 -33.767  1.00  0.00     0.037 A 
HETATM   16  C   UNL     1      -4.685  -1.120 -32.769  1.00  0.00     0.016 A 
BRANCH  14  17
HETATM   17  O   UNL     1      -5.567  -3.396 -35.458  1.00  0.00    -0.356 OA
HETATM   18  C   UNL     1      -6.383  -4.558 -35.378  1.00  0.00     0.210 C 
ENDBRANCH  14  17
ENDBRANCH   9  11
ENDBRANCH   1   5
BRANCH   2  19
HETATM   19  N   UNL     1      -4.259   5.771 -29.632  1.00  0.00    -0.267 N 
HETATM   20  C   UNL     1      -3.300   6.512 -30.282  1.00  0.00     0.236 C 
HETATM   21  O   UNL     1      -2.552   6.035 -31.134  1.00  0.00    -0.272 OA
HETATM   22  H   UNL     1      -4.974   6.174 -29.028  1.00  0.00     0.190 HD
BRANCH  20  23
HETATM   23  C   UNL     1      -3.237   7.959 -29.856  1.00  0.00     0.109 C 
BRANCH  23  24
HETATM   24  C   UNL     1      -1.872   8.563 -30.171  1.00  0.00     0.048 C 
BRANCH  24  25
HETATM   25  C   UNL     1      -0.893   8.358 -29.042  1.00  0.00    -0.058 A 
HETATM   26  C   UNL     1       0.090   7.359 -29.124  1.00  0.00     0.010 A 
HETATM   27  C   UNL     1       0.988   7.167 -28.072  1.00  0.00     0.043 A 
HETATM   28  C   UNL     1       0.901   7.969 -26.940  1.00  0.00     0.116 A 
HETATM   29  F   UNL     1       1.763   7.782 -25.933  1.00  0.00    -0.206 F 
HETATM   30  C   UNL     1      -0.067   8.961 -26.839  1.00  0.00     0.043 A 
HETATM   31  C   UNL     1      -0.964   9.157 -27.891  1.00  0.00     0.010 A 
ENDBRANCH  24  25
ENDBRANCH  23  24
ENDBRANCH  20  23
ENDBRANCH   2  19
TORSDOF 7
ENDMDL
MODEL 7
REMARK VINA RESULT:      -7.8      2.534      3.091
REMARK  7 active torsions:
REMARK  status: ('A' for Active; 'I' for Inactive)
REMARK    1  A    between atoms: O_2  and  C_3 
REMARK    2  A    between atoms: C_6  and  C_7 
REMARK    3  A    between atoms: C_11  and  C_12 
REMARK       I    between atoms: C_12  and  N_13 
REMARK    4  A    between atoms: N_13  and  N_14 
REMARK       I    between atoms: N_14  and  C_15 
REMARK    5  A    between atoms: C_15  and  C_16 
REMARK    6  A    between atoms: C_16  and  C_17 
REMARK    7  A    between atoms: C_17  and  C_18 
ROOT
HETATM    1  C   UNL     1      -2.275   4.428 -31.932  1.00  0.00     0.288 C 
HETATM    2  N   UNL     1      -2.767   3.426 -31.125  1.00  0.00    -0.262 N 
HETATM    3  O   UNL     1      -2.199   4.295 -33.153  1.00  0.00    -0.264 OA
HETATM    4  H   UNL     1      -2.875   3.505 -30.116  1.00  0.00     0.190 HD
ENDROOT
BRANCH   1   5
HETATM    5  C   UNL     1      -1.875   5.631 -31.258  1.00  0.00     0.121 A 
HETATM    6  N   UNL     1      -2.391   6.849 -31.596  1.00  0.00    -0.272 N 
HETATM    7  N   UNL     1      -1.950   7.863 -30.840  1.00  0.00    -0.174 NA
HETATM    8  H   UNL     1      -3.065   7.042 -32.332  1.00  0.00     0.189 HD
HETATM    9  C   UNL     1      -1.091   7.297 -29.978  1.00  0.00     0.089 A 
HETATM   10  C   UNL     1      -1.007   5.896 -30.216  1.00  0.00     0.071 A 
BRANCH   9  11
HETATM   11  C   UNL     1      -0.407   8.080 -28.946  1.00  0.00    -0.005 A 
HETATM   12  C   UNL     1      -1.088   9.095 -28.259  1.00  0.00     0.016 A 
HETATM   13  C   UNL     1      -0.463   9.823 -27.238  1.00  0.00     0.037 A 
HETATM   14  C   UNL     1       0.858   9.550 -26.893  1.00  0.00     0.068 A 
HETATM   15  C   UNL     1       1.553   8.559 -27.590  1.00  0.00     0.037 A 
HETATM   16  C   UNL     1       0.928   7.826 -28.606  1.00  0.00     0.016 A 
BRANCH  14  17
HETATM   17  O   UNL     1       1.579  10.174 -25.913  1.00  0.00    -0.356 OA
HETATM   18  C   UNL     1       2.007   9.365 -24.824  1.00  0.00     0.210 C 
ENDBRANCH  14  17
ENDBRANCH   9  11
ENDBRANCH   1   5
BRANCH   2  19
HETATM   19  N   UNL     1      -3.241   2.251 -31.716  1.00  0.00    -0.267 N 
HETATM   20  C   UNL     1      -4.458   1.761 -31.302  1.00  0.00     0.236 C 
HETATM   21  O   UNL     1      -5.097   2.258 -30.376  1.00  0.00    -0.272 OA
HETATM   22  H   UNL     1      -2.764   1.943 -32.562  1.00  0.00     0.190 HD
BRANCH  20  23
HETATM   23  C   UNL     1      -4.938   0.556 -32.075  1.00  0.00     0.109 C 
BRANCH  23  24
HETATM   24  C   UNL     1      -6.230   0.005 -31.479  1.00  0.00     0.048 C 
BRANCH  24  25
HETATM   25  C   UNL     1      -7.421   0.288 -32.360  1.00  0.00    -0.058 A 
HETATM   26  C   UNL     1      -8.668   0.599 -31.796  1.00  0.00     0.010 A 
HETATM   27  C   UNL     1      -9.769   0.851 -32.615  1.00  0.00     0.043 A 
HETATM   28  C   UNL     1      -9.626   0.788 -33.996  1.00  0.00     0.116 A 
HETATM   29  F   UNL     1     -10.684   1.029 -34.781  1.00  0.00    -0.206 F 
HETATM   30  C   UNL     1      -8.401   0.479 -34.575  1.00  0.00     0.043 A 
HETATM   31  C   UNL     1      -7.297   0.230 -33.757  1.00  0.00     0.010 A 
ENDBRANCH  24  25
ENDBRANCH  23  24
ENDBRANCH  20  23
ENDBRANCH   2  19
TORSDOF 7
ENDMDL
MODEL 8
REMARK VINA RESULT:      -7.6      9.604     12.450
REMARK  7 active torsions:
REMARK  status: ('A' for Active; 'I' for Inactive)
REMARK    1  A    between atoms: O_2  and  C_3 
REMARK    2  A    between atoms: C_6  and  C_7 
REMARK    3  A    between atoms: C_11  and  C_12 
REMARK       I    between atoms: C_12  and  N_13 
REMARK    4  A    between atoms: N_13  and  N_14 
REMARK       I    between atoms: N_14  and  C_15 
REMARK    5  A    between atoms: C_15  and  C_16 
REMARK    6  A    between atoms: C_16  and  C_17 
REMARK    7  A    between atoms: C_17  and  C_18 
ROOT
HETATM    1  C   UNL     1     -12.623   1.384 -33.645  1.00  0.00     0.288 C 
HETATM    2  N   UNL     1     -11.444   1.336 -32.933  1.00  0.00    -0.262 N 
HETATM    3  O   UNL     1     -12.749   0.809 -34.725  1.00  0.00    -0.264 OA
HETATM    4  H   UNL     1     -11.306   1.770 -32.023  1.00  0.00     0.190 HD
ENDROOT
BRANCH   1   5
HETATM    5  C   UNL     1     -13.687   2.133 -33.036  1.00  0.00     0.121 A 
HETATM    6  N   UNL     1     -14.707   1.517 -32.370  1.00  0.00    -0.272 N 
HETATM    7  N   UNL     1     -15.593   2.358 -31.820  1.00  0.00    -0.174 NA
HETATM    8  H   UNL     1     -14.839   0.517 -32.247  1.00  0.00     0.189 HD
HETATM    9  C   UNL     1     -15.152   3.582 -32.153  1.00  0.00     0.089 A 
HETATM   10  C   UNL     1     -13.962   3.482 -32.928  1.00  0.00     0.071 A 
BRANCH   9  11
HETATM   11  C   UNL     1     -15.841   4.797 -31.709  1.00  0.00    -0.005 A 
HETATM   12  C   UNL     1     -17.224   4.934 -31.892  1.00  0.00     0.016 A 
HETATM   13  C   UNL     1     -17.906   6.068 -31.433  1.00  0.00     0.037 A 
HETATM   14  C   UNL     1     -17.211   7.087 -30.787  1.00  0.00     0.068 A 
HETATM   15  C   UNL     1     -15.829   6.971 -30.624  1.00  0.00     0.037 A 
HETATM   16  C   UNL     1     -15.147   5.836 -31.076  1.00  0.00     0.016 A 
BRANCH  14  17
HETATM   17  O   UNL     1     -17.754   8.236 -30.281  1.00  0.00    -0.356 OA
HETATM   18  C   UNL     1     -18.460   8.120 -29.052  1.00  0.00     0.210 C 
ENDBRANCH  14  17
ENDBRANCH   9  11
ENDBRANCH   1   5
BRANCH   2  19
HETATM   19  N   UNL     1     -10.386   0.569 -33.428  1.00  0.00    -0.267 N 
HETATM   20  C   UNL     1      -9.388   1.211 -34.125  1.00  0.00     0.236 C 
HETATM   21  O   UNL     1      -9.435   2.407 -34.407  1.00  0.00    -0.272 OA
HETATM   22  H   UNL     1     -10.304  -0.381 -33.069  1.00  0.00     0.190 HD
BRANCH  20  23
HETATM   23  C   UNL     1      -8.235   0.321 -34.522  1.00  0.00     0.109 C 
BRANCH  23  24
HETATM   24  C   UNL     1      -7.823  -0.585 -33.367  1.00  0.00     0.048 C 
BRANCH  24  25
HETATM   25  C   UNL     1      -6.672  -1.486 -33.743  1.00  0.00    -0.058 A 
HETATM   26  C   UNL     1      -5.376  -1.220 -33.272  1.00  0.00     0.010 A 
HETATM   27  C   UNL     1      -4.313  -2.051 -33.630  1.00  0.00     0.043 A 
HETATM   28  C   UNL     1      -4.543  -3.142 -34.460  1.00  0.00     0.116 A 
HETATM   29  F   UNL     1      -3.521  -3.936 -34.803  1.00  0.00    -0.206 F 
HETATM   30  C   UNL     1      -5.818  -3.420 -34.938  1.00  0.00     0.043 A 
HETATM   31  C   UNL     1      -6.883  -2.593 -34.579  1.00  0.00     0.010 A 
ENDBRANCH  24  25
ENDBRANCH  23  24
ENDBRANCH  20  23
ENDBRANCH   2  19
TORSDOF 7
ENDMDL
MODEL 9
REMARK VINA RESULT:      -7.6      8.829     11.787
REMARK  7 active torsions:
REMARK  status: ('A' for Active; 'I' for Inactive)
REMARK    1  A    between atoms: O_2  and  C_3 
REMARK    2  A    between atoms: C_6  and  C_7 
REMARK    3  A    between atoms: C_11  and  C_12 
REMARK       I    between atoms: C_12  and  N_13 
REMARK    4  A    between atoms: N_13  and  N_14 
REMARK       I    between atoms: N_14  and  C_15 
REMARK    5  A    between atoms: C_15  and  C_16 
REMARK    6  A    between atoms: C_16  and  C_17 
REMARK    7  A    between atoms: C_17  and  C_18 
ROOT
HETATM    1  C   UNL     1     -10.296   3.104 -32.945  1.00  0.00     0.288 C 
HETATM    2  N   UNL     1     -10.459   2.028 -33.790  1.00  0.00    -0.262 N 
HETATM    3  O   UNL     1      -9.207   3.659 -32.809  1.00  0.00    -0.264 OA
HETATM    4  H   UNL     1     -11.348   1.560 -33.955  1.00  0.00     0.190 HD
ENDROOT
BRANCH   1   5
HETATM    5  C   UNL     1     -11.478   3.537 -32.253  1.00  0.00     0.121 A 
HETATM    6  N   UNL     1     -11.481   3.752 -30.904  1.00  0.00    -0.272 N 
HETATM    7  N   UNL     1     -12.648   4.199 -30.421  1.00  0.00    -0.174 NA
HETATM    8  H   UNL     1     -10.702   3.623 -30.265  1.00  0.00     0.189 HD
HETATM    9  C   UNL     1     -13.457   4.264 -31.489  1.00  0.00     0.089 A 
HETATM   10  C   UNL     1     -12.762   3.844 -32.659  1.00  0.00     0.071 A 
BRANCH   9  11
HETATM   11  C   UNL     1     -14.838   4.744 -31.383  1.00  0.00    -0.005 A 
HETATM   12  C   UNL     1     -15.121   5.940 -30.709  1.00  0.00     0.016 A 
HETATM   13  C   UNL     1     -16.428   6.438 -30.637  1.00  0.00     0.037 A 
HETATM   14  C   UNL     1     -17.475   5.740 -31.234  1.00  0.00     0.068 A 
HETATM   15  C   UNL     1     -17.206   4.534 -31.884  1.00  0.00     0.037 A 
HETATM   16  C   UNL     1     -15.900   4.039 -31.963  1.00  0.00     0.016 A 
BRANCH  14  17
HETATM   17  O   UNL     1     -18.789   6.118 -31.248  1.00  0.00    -0.356 OA
HETATM   18  C   UNL     1     -19.095   7.332 -31.923  1.00  0.00     0.210 C 
ENDBRANCH  14  17
ENDBRANCH   9  11
ENDBRANCH   1   5
BRANCH   2  19
HETATM   19  N   UNL     1      -9.370   1.594 -34.550  1.00  0.00    -0.267 N 
HETATM   20  C   UNL     1      -8.760   0.412 -34.195  1.00  0.00     0.236 C 
HETATM   21  O   UNL     1      -9.074  -0.225 -33.191  1.00  0.00    -0.272 OA
HETATM   22  H   UNL     1      -9.221   2.062 -35.442  1.00  0.00     0.190 HD
BRANCH  20  23
HETATM   23  C   UNL     1      -7.669  -0.032 -35.139  1.00  0.00     0.109 C 
BRANCH  23  24
HETATM   24  C   UNL     1      -6.351  -0.227 -34.395  1.00  0.00     0.048 C 
BRANCH  24  25
HETATM   25  C   UNL     1      -5.904  -1.668 -34.413  1.00  0.00    -0.058 A 
HETATM   26  C   UNL     1      -4.609  -2.018 -34.000  1.00  0.00     0.010 A 
HETATM   27  C   UNL     1      -4.197  -3.351 -34.027  1.00  0.00     0.043 A 
HETATM   28  C   UNL     1      -5.076  -4.333 -34.471  1.00  0.00     0.116 A 
HETATM   29  F   UNL     1      -4.678  -5.611 -34.497  1.00  0.00    -0.206 F 
HETATM   30  C   UNL     1      -6.361  -4.006 -34.887  1.00  0.00     0.043 A 
HETATM   31  C   UNL     1      -6.777  -2.674 -34.857  1.00  0.00     0.010 A 
ENDBRANCH  24  25
ENDBRANCH  23  24
ENDBRANCH  20  23
ENDBRANCH   2  19
TORSDOF 7
ENDMDL
MODEL 10
REMARK VINA RESULT:      -7.5      9.086     12.533
REMARK  7 active torsions:
REMARK  status: ('A' for Active; 'I' for Inactive)
REMARK    1  A    between atoms: O_2  and  C_3 
REMARK    2  A    between atoms: C_6  and  C_7 
REMARK    3  A    between atoms: C_11  and  C_12 
REMARK       I    between atoms: C_12  and  N_13 
REMARK    4  A    between atoms: N_13  and  N_14 
REMARK       I    between atoms: N_14  and  C_15 
REMARK    5  A    between atoms: C_15  and  C_16 
REMARK    6  A    between atoms: C_16  and  C_17 
REMARK    7  A    between atoms: C_17  and  C_18 
ROOT
HETATM    1  C   UNL     1     -10.574   2.451 -34.329  1.00  0.00     0.288 C 
HETATM    2  N   UNL     1      -9.984   3.658 -34.637  1.00  0.00    -0.262 N 
HETATM    3  O   UNL     1     -11.795   2.302 -34.359  1.00  0.00    -0.264 OA
HETATM    4  H   UNL     1      -8.979   3.815 -34.654  1.00  0.00     0.190 HD
ENDROOT
BRANCH   1   5
HETATM    5  C   UNL     1      -9.672   1.386 -33.989  1.00  0.00     0.121 A 
HETATM    6  N   UNL     1      -9.892   0.578 -32.910  1.00  0.00    -0.272 N 
HETATM    7  N   UNL     1      -8.984  -0.396 -32.758  1.00  0.00    -0.174 NA
HETATM    8  H   UNL     1     -10.661   0.638 -32.250  1.00  0.00     0.189 HD
HETATM    9  C   UNL     1      -8.116  -0.213 -33.765  1.00  0.00     0.089 A 
HETATM   10  C   UNL     1      -8.507   0.906 -34.555  1.00  0.00     0.071 A 
BRANCH   9  11
HETATM   11  C   UNL     1      -6.973  -1.107 -33.970  1.00  0.00    -0.005 A 
HETATM   12  C   UNL     1      -5.709  -0.768 -33.468  1.00  0.00     0.016 A 
HETATM   13  C   UNL     1      -4.616  -1.631 -33.615  1.00  0.00     0.037 A 
HETATM   14  C   UNL     1      -4.771  -2.848 -34.274  1.00  0.00     0.068 A 
HETATM   15  C   UNL     1      -6.020  -3.182 -34.802  1.00  0.00     0.037 A 
HETATM   16  C   UNL     1      -7.115  -2.324 -34.650  1.00  0.00     0.016 A 
BRANCH  14  17
HETATM   17  O   UNL     1      -3.794  -3.784 -34.475  1.00  0.00    -0.356 OA
HETATM   18  C   UNL     1      -3.457  -4.601 -33.361  1.00  0.00     0.210 C 
ENDBRANCH  14  17
ENDBRANCH   9  11
ENDBRANCH   1   5
BRANCH   2  19
HETATM   19  N   UNL     1     -10.793   4.721 -35.045  1.00  0.00    -0.267 N 
HETATM   20  C   UNL     1     -10.915   5.805 -34.206  1.00  0.00     0.236 C 
HETATM   21  O   UNL     1     -10.419   5.836 -33.081  1.00  0.00    -0.272 OA
HETATM   22  H   UNL     1     -11.077   4.729 -36.024  1.00  0.00     0.190 HD
BRANCH  20  23
HETATM   23  C   UNL     1     -11.716   6.949 -34.779  1.00  0.00     0.109 C 
BRANCH  23  24
HETATM   24  C   UNL     1     -10.849   7.826 -35.677  1.00  0.00     0.048 C 
BRANCH  24  25
HETATM   25  C   UNL     1     -11.570   8.221 -36.942  1.00  0.00    -0.058 A 
HETATM   26  C   UNL     1     -12.897   7.818 -37.161  1.00  0.00     0.010 A 
HETATM   27  C   UNL     1     -13.557   8.178 -38.337  1.00  0.00     0.043 A 
HETATM   28  C   UNL     1     -12.891   8.935 -39.294  1.00  0.00     0.116 A 
HETATM   29  F   UNL     1     -13.526   9.278 -40.422  1.00  0.00    -0.206 F 
HETATM   30  C   UNL     1     -11.577   9.341 -39.097  1.00  0.00     0.043 A 
HETATM   31  C   UNL     1     -10.916   8.985 -37.921  1.00  0.00     0.010 A 
ENDBRANCH  24  25
ENDBRANCH  23  24
ENDBRANCH  20  23
ENDBRANCH   2  19
TORSDOF 7
ENDMDL
