MODEL 1
REMARK VINA RESULT:      -9.2      0.000      0.000
REMARK  3 active torsions:
REMARK  status: ('A' for Active; 'I' for Inactive)
REMARK    1  A    between atoms: C_4  and  C_5 
REMARK    2  A    between atoms: C_11  and  N_12 
REMARK    3  A    between atoms: C_14  and  C_15 
ROOT
HETATM    1  C   UNL     1      -9.729   1.138 -33.066  1.00  0.00    -0.006 A 
HETATM    2  C   UNL     1      -9.260   1.987 -32.009  1.00  0.00     0.063 A 
HETATM    3  C   UNL     1      -7.957   1.777 -31.547  1.00  0.00     0.165 A 
HETATM    4  N   UNL     1      -7.405   2.506 -30.591  1.00  0.00    -0.222 NA
HETATM    5  C   UNL     1      -8.138   3.474 -30.049  1.00  0.00     0.237 A 
HETATM    6  N   UNL     1      -9.392   3.775 -30.374  1.00  0.00    -0.229 NA
HETATM    7  C   UNL     1      -9.941   3.028 -31.339  1.00  0.00     0.117 A 
HETATM    8  N   UNL     1      -7.176   0.819 -32.035  1.00  0.00    -0.228 NA
HETATM    9  C   UNL     1      -7.615  -0.007 -33.008  1.00  0.00     0.070 A 
HETATM   10  C   UNL     1      -8.877   0.137 -33.551  1.00  0.00     0.046 A 
ENDROOT
BRANCH   9  11
HETATM   11  C   UNL     1      -6.666  -1.057 -33.431  1.00  0.00    -0.004 A 
HETATM   12  C   UNL     1      -7.097  -2.212 -34.115  1.00  0.00     0.053 A 
HETATM   13  C   UNL     1      -6.163  -3.167 -34.464  1.00  0.00     0.106 A 
HETATM   14  C   UNL     1      -4.829  -3.025 -34.170  1.00  0.00     0.105 A 
HETATM   15  O   UNL     1      -6.431  -4.333 -35.113  1.00  0.00    -0.323 OA
HETATM   16  O   UNL     1      -4.087  -4.080 -34.597  1.00  0.00    -0.323 OA
HETATM   17  C   UNL     1      -4.355  -1.920 -33.506  1.00  0.00     0.040 A 
HETATM   18  C   UNL     1      -5.110  -4.915 -35.177  1.00  0.00     0.352 A 
HETATM   19  C   UNL     1      -5.282  -0.938 -33.133  1.00  0.00     0.017 A 
ENDBRANCH   9  11
BRANCH   1  20
HETATM   20  C   UNL     1     -11.060   1.242 -33.684  1.00  0.00    -0.025 A 
HETATM   21  C   UNL     1     -11.334   2.224 -34.650  1.00  0.00     0.012 A 
HETATM   22  C   UNL     1     -12.594   2.307 -35.247  1.00  0.00     0.001 A 
HETATM   23  C   UNL     1     -13.593   1.401 -34.898  1.00  0.00     0.000 A 
HETATM   24  C   UNL     1     -13.335   0.413 -33.951  1.00  0.00     0.001 A 
HETATM   25  C   UNL     1     -12.078   0.334 -33.349  1.00  0.00     0.012 A 
ENDBRANCH   1  20
BRANCH   7  26
HETATM   26  N   UNL     1     -11.243   3.417 -31.646  1.00  0.00    -0.286 NA
HETATM   27  H   UNL     1     -11.543   2.894 -32.464  1.00  0.00     0.125 HD
HETATM   28  H   UNL     1     -11.338   4.419 -31.774  1.00  0.00     0.125 HD
ENDBRANCH   7  26
TORSDOF 3
ENDMDL
MODEL 2
REMARK VINA RESULT:      -8.9      4.021      6.176
REMARK  3 active torsions:
REMARK  status: ('A' for Active; 'I' for Inactive)
REMARK    1  A    between atoms: C_4  and  C_5 
REMARK    2  A    between atoms: C_11  and  N_12 
REMARK    3  A    between atoms: C_14  and  C_15 
ROOT
HETATM    1  C   UNL     1      -4.061   3.168 -32.216  1.00  0.00    -0.006 A 
HETATM    2  C   UNL     1      -5.141   3.436 -31.310  1.00  0.00     0.063 A 
HETATM    3  C   UNL     1      -5.990   2.371 -30.991  1.00  0.00     0.165 A 
HETATM    4  N   UNL     1      -7.009   2.486 -30.155  1.00  0.00    -0.222 NA
HETATM    5  C   UNL     1      -7.227   3.677 -29.606  1.00  0.00     0.237 A 
HETATM    6  N   UNL     1      -6.517   4.779 -29.830  1.00  0.00    -0.229 NA
HETATM    7  C   UNL     1      -5.492   4.651 -30.681  1.00  0.00     0.117 A 
HETATM    8  N   UNL     1      -5.837   1.158 -31.515  1.00  0.00    -0.228 NA
HETATM    9  C   UNL     1      -4.844   0.901 -32.392  1.00  0.00     0.070 A 
HETATM   10  C   UNL     1      -3.935   1.879 -32.749  1.00  0.00     0.046 A 
ENDROOT
BRANCH   9  11
HETATM   11  C   UNL     1      -4.809  -0.473 -32.933  1.00  0.00    -0.004 A 
HETATM   12  C   UNL     1      -3.940  -1.452 -32.412  1.00  0.00     0.053 A 
HETATM   13  C   UNL     1      -3.939  -2.712 -32.977  1.00  0.00     0.106 A 
HETATM   14  C   UNL     1      -4.761  -3.041 -34.027  1.00  0.00     0.105 A 
HETATM   15  O   UNL     1      -3.150  -3.751 -32.590  1.00  0.00    -0.323 OA
HETATM   16  O   UNL     1      -4.598  -4.328 -34.433  1.00  0.00    -0.323 OA
HETATM   17  C   UNL     1      -5.628  -2.125 -34.573  1.00  0.00     0.040 A 
HETATM   18  C   UNL     1      -3.561  -4.767 -33.531  1.00  0.00     0.352 A 
HETATM   19  C   UNL     1      -5.644  -0.837 -34.023  1.00  0.00     0.017 A 
ENDBRANCH   9  11
BRANCH   1  20
HETATM   20  C   UNL     1      -3.065   4.167 -32.633  1.00  0.00    -0.025 A 
HETATM   21  C   UNL     1      -1.921   4.416 -31.857  1.00  0.00     0.012 A 
HETATM   22  C   UNL     1      -0.969   5.351 -32.267  1.00  0.00     0.001 A 
HETATM   23  C   UNL     1      -1.137   6.040 -33.466  1.00  0.00     0.000 A 
HETATM   24  C   UNL     1      -2.259   5.796 -34.255  1.00  0.00     0.001 A 
HETATM   25  C   UNL     1      -3.215   4.866 -33.842  1.00  0.00     0.012 A 
ENDBRANCH   1  20
BRANCH   7  26
HETATM   26  N   UNL     1      -4.777   5.835 -30.844  1.00  0.00    -0.286 NA
HETATM   27  H   UNL     1      -5.069   6.262 -31.718  1.00  0.00     0.125 HD
HETATM   28  H   UNL     1      -3.773   5.702 -30.798  1.00  0.00     0.125 HD
ENDBRANCH   7  26
TORSDOF 3
ENDMDL
MODEL 3
REMARK VINA RESULT:      -8.8      2.787      4.795
REMARK  3 active torsions:
REMARK  status: ('A' for Active; 'I' for Inactive)
REMARK    1  A    between atoms: C_4  and  C_5 
REMARK    2  A    between atoms: C_11  and  N_12 
REMARK    3  A    between atoms: C_14  and  C_15 
ROOT
HETATM    1  C   UNL     1      -6.636   2.299 -33.699  1.00  0.00    -0.006 A 
HETATM    2  C   UNL     1      -8.051   2.433 -33.892  1.00  0.00     0.063 A 
HETATM    3  C   UNL     1      -8.784   1.261 -34.109  1.00  0.00     0.165 A 
HETATM    4  N   UNL     1     -10.095   1.252 -34.283  1.00  0.00    -0.222 NA
HETATM    5  C   UNL     1     -10.731   2.419 -34.254  1.00  0.00     0.237 A 
HETATM    6  N   UNL     1     -10.165   3.610 -34.076  1.00  0.00    -0.229 NA
HETATM    7  C   UNL     1      -8.838   3.606 -33.907  1.00  0.00     0.117 A 
HETATM    8  N   UNL     1      -8.209   0.064 -34.164  1.00  0.00    -0.228 NA
HETATM    9  C   UNL     1      -6.875  -0.074 -34.014  1.00  0.00     0.070 A 
HETATM   10  C   UNL     1      -6.067   1.021 -33.767  1.00  0.00     0.046 A 
ENDROOT
BRANCH   9  11
HETATM   11  C   UNL     1      -6.356  -1.451 -34.140  1.00  0.00    -0.004 A 
HETATM   12  C   UNL     1      -5.074  -1.804 -33.672  1.00  0.00     0.053 A 
HETATM   13  C   UNL     1      -4.638  -3.104 -33.839  1.00  0.00     0.106 A 
HETATM   14  C   UNL     1      -5.415  -4.062 -34.443  1.00  0.00     0.105 A 
HETATM   15  O   UNL     1      -3.426  -3.587 -33.451  1.00  0.00    -0.323 OA
HETATM   16  O   UNL     1      -4.794  -5.269 -34.510  1.00  0.00    -0.323 OA
HETATM   17  C   UNL     1      -6.672  -3.772 -34.917  1.00  0.00     0.040 A 
HETATM   18  C   UNL     1      -3.526  -4.957 -33.897  1.00  0.00     0.352 A 
HETATM   19  C   UNL     1      -7.136  -2.459 -34.766  1.00  0.00     0.017 A 
ENDBRANCH   9  11
BRANCH   1  20
HETATM   20  C   UNL     1      -5.727   3.424 -33.434  1.00  0.00    -0.025 A 
HETATM   21  C   UNL     1      -5.229   4.215 -34.483  1.00  0.00     0.012 A 
HETATM   22  C   UNL     1      -4.381   5.293 -34.224  1.00  0.00     0.001 A 
HETATM   23  C   UNL     1      -4.030   5.607 -32.913  1.00  0.00     0.000 A 
HETATM   24  C   UNL     1      -4.524   4.842 -31.859  1.00  0.00     0.001 A 
HETATM   25  C   UNL     1      -5.367   3.759 -32.118  1.00  0.00     0.012 A 
ENDBRANCH   1  20
BRANCH   7  26
HETATM   26  N   UNL     1      -8.319   4.882 -33.698  1.00  0.00    -0.286 NA
HETATM   27  H   UNL     1      -7.426   4.942 -34.179  1.00  0.00     0.125 HD
HETATM   28  H   UNL     1      -8.244   5.124 -32.716  1.00  0.00     0.125 HD
ENDBRANCH   7  26
TORSDOF 3
ENDMDL
MODEL 4
REMARK VINA RESULT:      -8.6      5.387      7.256
REMARK  3 active torsions:
REMARK  status: ('A' for Active; 'I' for Inactive)
REMARK    1  A    between atoms: C_4  and  C_5 
REMARK    2  A    between atoms: C_11  and  N_12 
REMARK    3  A    between atoms: C_14  and  C_15 
ROOT
HETATM    1  C   UNL     1      -7.045   2.428 -33.947  1.00  0.00    -0.006 A 
HETATM    2  C   UNL     1      -8.274   3.169 -33.962  1.00  0.00     0.063 A 
HETATM    3  C   UNL     1      -8.182   4.564 -33.947  1.00  0.00     0.165 A 
HETATM    4  N   UNL     1      -9.241   5.357 -33.977  1.00  0.00    -0.222 NA
HETATM    5  C   UNL     1     -10.441   4.785 -34.016  1.00  0.00     0.237 A 
HETATM    6  N   UNL     1     -10.680   3.477 -34.017  1.00  0.00    -0.229 NA
HETATM    7  C   UNL     1      -9.601   2.686 -33.981  1.00  0.00     0.117 A 
HETATM    8  N   UNL     1      -7.015   5.199 -33.893  1.00  0.00    -0.228 NA
HETATM    9  C   UNL     1      -5.853   4.514 -33.847  1.00  0.00     0.070 A 
HETATM   10  C   UNL     1      -5.836   3.133 -33.887  1.00  0.00     0.046 A 
ENDROOT
BRANCH   9  11
HETATM   11  C   UNL     1      -4.630   5.336 -33.746  1.00  0.00    -0.004 A 
HETATM   12  C   UNL     1      -4.416   6.215 -32.665  1.00  0.00     0.053 A 
HETATM   13  C   UNL     1      -3.262   6.973 -32.640  1.00  0.00     0.106 A 
HETATM   14  C   UNL     1      -2.316   6.894 -33.632  1.00  0.00     0.105 A 
HETATM   15  O   UNL     1      -2.926   7.868 -31.672  1.00  0.00    -0.323 OA
HETATM   16  O   UNL     1      -1.264   7.726 -33.415  1.00  0.00    -0.323 OA
HETATM   17  C   UNL     1      -2.474   6.054 -34.709  1.00  0.00     0.040 A 
HETATM   18  C   UNL     1      -1.666   8.356 -32.181  1.00  0.00     0.352 A 
HETATM   19  C   UNL     1      -3.640   5.279 -34.762  1.00  0.00     0.017 A 
ENDBRANCH   9  11
BRANCH   1  20
HETATM   20  C   UNL     1      -6.964   0.960 -33.986  1.00  0.00    -0.025 A 
HETATM   21  C   UNL     1      -7.080   0.261 -35.199  1.00  0.00     0.012 A 
HETATM   22  C   UNL     1      -6.982  -1.131 -35.234  1.00  0.00     0.001 A 
HETATM   23  C   UNL     1      -6.753  -1.845 -34.060  1.00  0.00     0.000 A 
HETATM   24  C   UNL     1      -6.623  -1.168 -32.850  1.00  0.00     0.001 A 
HETATM   25  C   UNL     1      -6.727   0.224 -32.813  1.00  0.00     0.012 A 
ENDBRANCH   1  20
BRANCH   7  26
HETATM   26  N   UNL     1      -9.926   1.332 -34.014  1.00  0.00    -0.286 NA
HETATM   27  H   UNL     1     -10.689   1.207 -34.673  1.00  0.00     0.125 HD
HETATM   28  H   UNL     1     -10.143   0.953 -33.099  1.00  0.00     0.125 HD
ENDBRANCH   7  26
TORSDOF 3
ENDMDL
MODEL 5
REMARK VINA RESULT:      -8.4      4.918      6.767
REMARK  3 active torsions:
REMARK  status: ('A' for Active; 'I' for Inactive)
REMARK    1  A    between atoms: C_4  and  C_5 
REMARK    2  A    between atoms: C_11  and  N_12 
REMARK    3  A    between atoms: C_14  and  C_15 
ROOT
HETATM    1  C   UNL     1      -6.533   2.222 -32.537  1.00  0.00    -0.006 A 
HETATM    2  C   UNL     1      -7.548   2.805 -31.707  1.00  0.00     0.063 A 
HETATM    3  C   UNL     1      -7.239   4.009 -31.066  1.00  0.00     0.165 A 
HETATM    4  N   UNL     1      -8.095   4.653 -30.290  1.00  0.00    -0.222 NA
HETATM    5  C   UNL     1      -9.298   4.114 -30.114  1.00  0.00     0.237 A 
HETATM    6  N   UNL     1      -9.722   2.969 -30.643  1.00  0.00    -0.229 NA
HETATM    7  C   UNL     1      -8.846   2.325 -31.422  1.00  0.00     0.117 A 
HETATM    8  N   UNL     1      -6.052   4.595 -31.187  1.00  0.00    -0.228 NA
HETATM    9  C   UNL     1      -5.079   4.042 -31.941  1.00  0.00     0.070 A 
HETATM   10  C   UNL     1      -5.294   2.867 -32.637  1.00  0.00     0.046 A 
ENDROOT
BRANCH   9  11
HETATM   11  C   UNL     1      -3.793   4.768 -31.958  1.00  0.00    -0.004 A 
HETATM   12  C   UNL     1      -2.631   4.231 -31.368  1.00  0.00     0.053 A 
HETATM   13  C   UNL     1      -1.465   4.970 -31.398  1.00  0.00     0.106 A 
HETATM   14  C   UNL     1      -1.401   6.209 -31.988  1.00  0.00     0.105 A 
HETATM   15  O   UNL     1      -0.274   4.589 -30.862  1.00  0.00    -0.323 OA
HETATM   16  O   UNL     1      -0.163   6.763 -31.901  1.00  0.00    -0.323 OA
HETATM   17  C   UNL     1      -2.503   6.780 -32.578  1.00  0.00     0.040 A 
HETATM   18  C   UNL     1       0.542   5.740 -31.169  1.00  0.00     0.352 A 
HETATM   19  C   UNL     1      -3.701   6.054 -32.556  1.00  0.00     0.017 A 
ENDBRANCH   9  11
BRANCH   1  20
HETATM   20  C   UNL     1      -6.703   0.976 -33.301  1.00  0.00    -0.025 A 
HETATM   21  C   UNL     1      -7.269   0.987 -34.586  1.00  0.00     0.012 A 
HETATM   22  C   UNL     1      -7.411  -0.197 -35.314  1.00  0.00     0.001 A 
HETATM   23  C   UNL     1      -6.976  -1.405 -34.775  1.00  0.00     0.000 A 
HETATM   24  C   UNL     1      -6.401  -1.432 -33.506  1.00  0.00     0.001 A 
HETATM   25  C   UNL     1      -6.265  -0.251 -32.775  1.00  0.00     0.012 A 
ENDBRANCH   1  20
BRANCH   7  26
HETATM   26  N   UNL     1      -9.367   1.153 -31.963  1.00  0.00    -0.286 NA
HETATM   27  H   UNL     1      -8.834   0.371 -31.594  1.00  0.00     0.125 HD
HETATM   28  H   UNL     1      -9.390   1.158 -32.977  1.00  0.00     0.125 HD
ENDBRANCH   7  26
TORSDOF 3
ENDMDL
MODEL 6
REMARK VINA RESULT:      -8.3      3.473      6.985
REMARK  3 active torsions:
REMARK  status: ('A' for Active; 'I' for Inactive)
REMARK    1  A    between atoms: C_4  and  C_5 
REMARK    2  A    between atoms: C_11  and  N_12 
REMARK    3  A    between atoms: C_14  and  C_15 
ROOT
HETATM    1  C   UNL     1      -6.396   1.642 -33.157  1.00  0.00    -0.006 A 
HETATM    2  C   UNL     1      -5.955   2.999 -33.302  1.00  0.00     0.063 A 
HETATM    3  C   UNL     1      -6.918   3.955 -33.643  1.00  0.00     0.165 A 
HETATM    4  N   UNL     1      -6.640   5.240 -33.788  1.00  0.00    -0.222 NA
HETATM    5  C   UNL     1      -5.379   5.624 -33.605  1.00  0.00     0.237 A 
HETATM    6  N   UNL     1      -4.360   4.828 -33.298  1.00  0.00    -0.229 NA
HETATM    7  C   UNL     1      -4.653   3.530 -33.159  1.00  0.00     0.117 A 
HETATM    8  N   UNL     1      -8.191   3.636 -33.853  1.00  0.00    -0.228 NA
HETATM    9  C   UNL     1      -8.614   2.359 -33.750  1.00  0.00     0.070 A 
HETATM   10  C   UNL     1      -7.745   1.346 -33.390  1.00  0.00     0.046 A 
ENDROOT
BRANCH   9  11
HETATM   11  C   UNL     1     -10.042   2.131 -34.051  1.00  0.00    -0.004 A 
HETATM   12  C   UNL     1     -10.748   1.039 -33.508  1.00  0.00     0.053 A 
HETATM   13  C   UNL     1     -12.076   0.869 -33.846  1.00  0.00     0.106 A 
HETATM   14  C   UNL     1     -12.730   1.732 -34.690  1.00  0.00     0.105 A 
HETATM   15  O   UNL     1     -12.879  -0.140 -33.411  1.00  0.00    -0.323 OA
HETATM   16  O   UNL     1     -14.027   1.380 -34.893  1.00  0.00    -0.323 OA
HETATM   17  C   UNL     1     -12.090   2.813 -35.248  1.00  0.00     0.040 A 
HETATM   18  C   UNL     1     -14.110   0.181 -34.095  1.00  0.00     0.352 A 
HETATM   19  C   UNL     1     -10.740   3.005 -34.927  1.00  0.00     0.017 A 
ENDBRANCH   9  11
BRANCH   1  20
HETATM   20  C   UNL     1      -5.520   0.523 -32.778  1.00  0.00    -0.025 A 
HETATM   21  C   UNL     1      -5.079  -0.407 -33.734  1.00  0.00     0.012 A 
HETATM   22  C   UNL     1      -4.232  -1.457 -33.372  1.00  0.00     0.001 A 
HETATM   23  C   UNL     1      -3.801  -1.584 -32.054  1.00  0.00     0.000 A 
HETATM   24  C   UNL     1      -4.218  -0.663 -31.095  1.00  0.00     0.001 A 
HETATM   25  C   UNL     1      -5.070   0.382 -31.454  1.00  0.00     0.012 A 
ENDBRANCH   1  20
BRANCH   7  26
HETATM   26  N   UNL     1      -3.545   2.762 -32.809  1.00  0.00    -0.286 NA
HETATM   27  H   UNL     1      -2.969   2.643 -33.638  1.00  0.00     0.125 HD
HETATM   28  H   UNL     1      -3.793   1.876 -32.383  1.00  0.00     0.125 HD
ENDBRANCH   7  26
TORSDOF 3
ENDMDL
MODEL 7
REMARK VINA RESULT:      -8.2      2.660      3.853
REMARK  3 active torsions:
REMARK  status: ('A' for Active; 'I' for Inactive)
REMARK    1  A    between atoms: C_4  and  C_5 
REMARK    2  A    between atoms: C_11  and  N_12 
REMARK    3  A    between atoms: C_14  and  C_15 
ROOT
HETATM    1  C   UNL     1     -11.689   2.646 -33.950  1.00  0.00    -0.006 A 
HETATM    2  C   UNL     1     -11.323   3.961 -34.392  1.00  0.00     0.063 A 
HETATM    3  C   UNL     1      -9.976   4.186 -34.689  1.00  0.00     0.165 A 
HETATM    4  N   UNL     1      -9.517   5.349 -35.122  1.00  0.00    -0.222 NA
HETATM    5  C   UNL     1     -10.389   6.342 -35.270  1.00  0.00     0.237 A 
HETATM    6  N   UNL     1     -11.692   6.278 -35.009  1.00  0.00    -0.229 NA
HETATM    7  C   UNL     1     -12.143   5.099 -34.567  1.00  0.00     0.117 A 
HETATM    8  N   UNL     1      -9.050   3.242 -34.550  1.00  0.00    -0.228 NA
HETATM    9  C   UNL     1      -9.375   2.010 -34.106  1.00  0.00     0.070 A 
HETATM   10  C   UNL     1     -10.685   1.679 -33.813  1.00  0.00     0.046 A 
ENDROOT
BRANCH   9  11
HETATM   11  C   UNL     1      -8.249   1.067 -33.955  1.00  0.00    -0.004 A 
HETATM   12  C   UNL     1      -7.486   1.008 -32.771  1.00  0.00     0.053 A 
HETATM   13  C   UNL     1      -6.431   0.120 -32.700  1.00  0.00     0.106 A 
HETATM   14  C   UNL     1      -6.106  -0.710 -33.744  1.00  0.00     0.105 A 
HETATM   15  O   UNL     1      -5.603  -0.039 -31.633  1.00  0.00    -0.323 OA
HETATM   16  O   UNL     1      -5.034  -1.499 -33.468  1.00  0.00    -0.323 OA
HETATM   17  C   UNL     1      -6.816  -0.695 -34.921  1.00  0.00     0.040 A 
HETATM   18  C   UNL     1      -4.707  -1.055 -32.135  1.00  0.00     0.352 A 
HETATM   19  C   UNL     1      -7.887   0.202 -35.022  1.00  0.00     0.017 A 
ENDBRANCH   9  11
BRANCH   1  20
HETATM   20  C   UNL     1     -13.064   2.235 -33.623  1.00  0.00    -0.025 A 
HETATM   21  C   UNL     1     -13.702   2.705 -32.464  1.00  0.00     0.012 A 
HETATM   22  C   UNL     1     -15.014   2.327 -32.167  1.00  0.00     0.001 A 
HETATM   23  C   UNL     1     -15.711   1.487 -33.032  1.00  0.00     0.000 A 
HETATM   24  C   UNL     1     -15.098   1.022 -34.194  1.00  0.00     0.001 A 
HETATM   25  C   UNL     1     -13.784   1.393 -34.487  1.00  0.00     0.012 A 
ENDBRANCH   1  20
BRANCH   7  26
HETATM   26  N   UNL     1     -13.517   5.097 -34.344  1.00  0.00    -0.286 NA
HETATM   27  H   UNL     1     -13.674   5.024 -33.342  1.00  0.00     0.125 HD
HETATM   28  H   UNL     1     -14.004   4.374 -34.862  1.00  0.00     0.125 HD
ENDBRANCH   7  26
TORSDOF 3
ENDMDL
MODEL 8
REMARK VINA RESULT:      -8.1      3.239      7.180
REMARK  3 active torsions:
REMARK  status: ('A' for Active; 'I' for Inactive)
REMARK    1  A    between atoms: C_4  and  C_5 
REMARK    2  A    between atoms: C_11  and  N_12 
REMARK    3  A    between atoms: C_14  and  C_15 
ROOT
HETATM    1  C   UNL     1      -5.414  -0.513 -32.792  1.00  0.00    -0.006 A 
HETATM    2  C   UNL     1      -4.773   0.656 -32.264  1.00  0.00     0.063 A 
HETATM    3  C   UNL     1      -5.560   1.800 -32.099  1.00  0.00     0.165 A 
HETATM    4  N   UNL     1      -5.090   2.934 -31.604  1.00  0.00    -0.222 NA
HETATM    5  C   UNL     1      -3.806   2.973 -31.260  1.00  0.00     0.237 A 
HETATM    6  N   UNL     1      -2.938   1.973 -31.378  1.00  0.00    -0.229 NA
HETATM    7  C   UNL     1      -3.424   0.833 -31.883  1.00  0.00     0.117 A 
HETATM    8  N   UNL     1      -6.846   1.833 -32.435  1.00  0.00    -0.228 NA
HETATM    9  C   UNL     1      -7.454   0.750 -32.962  1.00  0.00     0.070 A 
HETATM   10  C   UNL     1      -6.769  -0.438 -33.138  1.00  0.00     0.046 A 
ENDROOT
BRANCH   9  11
HETATM   11  C   UNL     1      -8.872   0.930 -33.334  1.00  0.00    -0.004 A 
HETATM   12  C   UNL     1      -9.299   2.021 -34.118  1.00  0.00     0.053 A 
HETATM   13  C   UNL     1     -10.642   2.145 -34.412  1.00  0.00     0.106 A 
HETATM   14  C   UNL     1     -11.573   1.237 -33.969  1.00  0.00     0.105 A 
HETATM   15  O   UNL     1     -11.201   3.146 -35.144  1.00  0.00    -0.323 OA
HETATM   16  O   UNL     1     -12.834   1.549 -34.367  1.00  0.00    -0.323 OA
HETATM   17  C   UNL     1     -11.212   0.156 -33.202  1.00  0.00     0.040 A 
HETATM   18  C   UNL     1     -12.595   2.771 -35.095  1.00  0.00     0.352 A 
HETATM   19  C   UNL     1      -9.855   0.009 -32.883  1.00  0.00     0.017 A 
ENDBRANCH   9  11
BRANCH   1  20
HETATM   20  C   UNL     1      -4.739  -1.804 -33.003  1.00  0.00    -0.025 A 
HETATM   21  C   UNL     1      -4.801  -2.458 -34.244  1.00  0.00     0.012 A 
HETATM   22  C   UNL     1      -4.143  -3.674 -34.444  1.00  0.00     0.001 A 
HETATM   23  C   UNL     1      -3.402  -4.245 -33.413  1.00  0.00     0.000 A 
HETATM   24  C   UNL     1      -3.319  -3.603 -32.179  1.00  0.00     0.001 A 
HETATM   25  C   UNL     1      -3.982  -2.392 -31.976  1.00  0.00     0.012 A 
ENDBRANCH   1  20
BRANCH   7  26
HETATM   26  N   UNL     1      -2.468  -0.177 -31.950  1.00  0.00    -0.286 NA
HETATM   27  H   UNL     1      -2.835  -0.920 -32.537  1.00  0.00     0.125 HD
HETATM   28  H   UNL     1      -2.181  -0.514 -31.038  1.00  0.00     0.125 HD
ENDBRANCH   7  26
TORSDOF 3
ENDMDL
MODEL 9
REMARK VINA RESULT:      -8.1      2.542      4.084
REMARK  3 active torsions:
REMARK  status: ('A' for Active; 'I' for Inactive)
REMARK    1  A    between atoms: C_4  and  C_5 
REMARK    2  A    between atoms: C_11  and  N_12 
REMARK    3  A    between atoms: C_14  and  C_15 
ROOT
HETATM    1  C   UNL     1     -10.541   2.948 -33.803  1.00  0.00    -0.006 A 
HETATM    2  C   UNL     1     -11.724   2.136 -33.781  1.00  0.00     0.063 A 
HETATM    3  C   UNL     1     -11.558   0.766 -33.556  1.00  0.00     0.165 A 
HETATM    4  N   UNL     1     -12.571  -0.083 -33.496  1.00  0.00    -0.222 NA
HETATM    5  C   UNL     1     -13.797   0.404 -33.666  1.00  0.00     0.237 A 
HETATM    6  N   UNL     1     -14.103   1.676 -33.905  1.00  0.00    -0.229 NA
HETATM    7  C   UNL     1     -13.070   2.523 -33.969  1.00  0.00     0.117 A 
HETATM    8  N   UNL     1     -10.360   0.212 -33.393  1.00  0.00    -0.228 NA
HETATM    9  C   UNL     1      -9.238   0.959 -33.441  1.00  0.00     0.070 A 
HETATM   10  C   UNL     1      -9.297   2.327 -33.630  1.00  0.00     0.046 A 
ENDROOT
BRANCH   9  11
HETATM   11  C   UNL     1      -7.969   0.218 -33.288  1.00  0.00    -0.004 A 
HETATM   12  C   UNL     1      -7.487  -0.640 -34.297  1.00  0.00     0.053 A 
HETATM   13  C   UNL     1      -6.305  -1.322 -34.083  1.00  0.00     0.106 A 
HETATM   14  C   UNL     1      -5.585  -1.187 -32.921  1.00  0.00     0.105 A 
HETATM   15  O   UNL     1      -5.725  -2.190 -34.956  1.00  0.00    -0.323 OA
HETATM   16  O   UNL     1      -4.460  -1.949 -32.916  1.00  0.00    -0.323 OA
HETATM   17  C   UNL     1      -6.009  -0.364 -31.906  1.00  0.00     0.040 A 
HETATM   18  C   UNL     1      -4.564  -2.598 -34.200  1.00  0.00     0.352 A 
HETATM   19  C   UNL     1      -7.209   0.334 -32.093  1.00  0.00     0.017 A 
ENDBRANCH   9  11
BRANCH   1  20
HETATM   20  C   UNL     1     -10.541   4.406 -34.000  1.00  0.00    -0.025 A 
HETATM   21  C   UNL     1     -10.652   5.283 -32.908  1.00  0.00     0.012 A 
HETATM   22  C   UNL     1     -10.632   6.666 -33.099  1.00  0.00     0.001 A 
HETATM   23  C   UNL     1     -10.487   7.193 -34.380  1.00  0.00     0.000 A 
HETATM   24  C   UNL     1     -10.363   6.338 -35.473  1.00  0.00     0.001 A 
HETATM   25  C   UNL     1     -10.389   4.955 -35.284  1.00  0.00     0.012 A 
ENDBRANCH   1  20
BRANCH   7  26
HETATM   26  N   UNL     1     -13.466   3.839 -34.192  1.00  0.00    -0.286 NA
HETATM   27  H   UNL     1     -13.425   4.016 -35.192  1.00  0.00     0.125 HD
HETATM   28  H   UNL     1     -12.927   4.513 -33.661  1.00  0.00     0.125 HD
ENDBRANCH   7  26
TORSDOF 3
ENDMDL
MODEL 10
REMARK VINA RESULT:      -8.1      5.479      7.571
REMARK  3 active torsions:
REMARK  status: ('A' for Active; 'I' for Inactive)
REMARK    1  A    between atoms: C_4  and  C_5 
REMARK    2  A    between atoms: C_11  and  N_12 
REMARK    3  A    between atoms: C_14  and  C_15 
ROOT
HETATM    1  C   UNL     1      -5.668   1.687 -32.904  1.00  0.00    -0.006 A 
HETATM    2  C   UNL     1      -4.752   0.655 -32.514  1.00  0.00     0.063 A 
HETATM    3  C   UNL     1      -3.453   1.045 -32.173  1.00  0.00     0.165 A 
HETATM    4  N   UNL     1      -2.522   0.190 -31.780  1.00  0.00    -0.222 NA
HETATM    5  C   UNL     1      -2.852  -1.098 -31.719  1.00  0.00     0.237 A 
HETATM    6  N   UNL     1      -4.038  -1.613 -32.030  1.00  0.00    -0.229 NA
HETATM    7  C   UNL     1      -4.968  -0.739 -32.430  1.00  0.00     0.117 A 
HETATM    8  N   UNL     1      -3.054   2.312 -32.226  1.00  0.00    -0.228 NA
HETATM    9  C   UNL     1      -3.897   3.289 -32.621  1.00  0.00     0.070 A 
HETATM   10  C   UNL     1      -5.210   3.010 -32.951  1.00  0.00     0.046 A 
ENDROOT
BRANCH   9  11
HETATM   11  C   UNL     1      -3.319   4.647 -32.678  1.00  0.00    -0.004 A 
HETATM   12  C   UNL     1      -3.388   5.528 -31.580  1.00  0.00     0.053 A 
HETATM   13  C   UNL     1      -2.848   6.793 -31.705  1.00  0.00     0.106 A 
HETATM   14  C   UNL     1      -2.243   7.216 -32.863  1.00  0.00     0.105 A 
HETATM   15  O   UNL     1      -2.851   7.752 -30.740  1.00  0.00    -0.323 OA
HETATM   16  O   UNL     1      -1.786   8.493 -32.774  1.00  0.00    -0.323 OA
HETATM   17  C   UNL     1      -2.148   6.399 -33.963  1.00  0.00     0.040 A 
HETATM   18  C   UNL     1      -2.192   8.834 -31.432  1.00  0.00     0.352 A 
HETATM   19  C   UNL     1      -2.694   5.112 -33.866  1.00  0.00     0.017 A 
ENDBRANCH   9  11
BRANCH   1  20
HETATM   20  C   UNL     1      -7.075   1.452 -33.267  1.00  0.00    -0.025 A 
HETATM   21  C   UNL     1      -7.432   1.080 -34.573  1.00  0.00     0.012 A 
HETATM   22  C   UNL     1      -8.767   0.839 -34.907  1.00  0.00     0.001 A 
HETATM   23  C   UNL     1      -9.761   0.953 -33.939  1.00  0.00     0.000 A 
HETATM   24  C   UNL     1      -9.423   1.309 -32.635  1.00  0.00     0.001 A 
HETATM   25  C   UNL     1      -8.090   1.556 -32.301  1.00  0.00     0.012 A 
ENDBRANCH   1  20
BRANCH   7  26
HETATM   26  N   UNL     1      -6.191  -1.345 -32.710  1.00  0.00    -0.286 NA
HETATM   27  H   UNL     1      -6.846  -0.620 -32.987  1.00  0.00     0.125 HD
HETATM   28  H   UNL     1      -6.541  -1.907 -31.942  1.00  0.00     0.125 HD
ENDBRANCH   7  26
TORSDOF 3
ENDMDL
