MODEL 1
REMARK VINA RESULT:      -8.3      0.000      0.000
REMARK  5 active torsions:
REMARK  status: ('A' for Active; 'I' for Inactive)
REMARK    1  A    between atoms: C_2  and  C_3 
REMARK    2  A    between atoms: C_3  and  N_4 
REMARK       I    between atoms: N_4  and  C_5 
REMARK    3  A    between atoms: C_5  and  C_6 
REMARK    4  A    between atoms: C_19  and  O_20 
REMARK    5  A    between atoms: O_20  and  C_21 
ROOT
HETATM    1  N   UNL     1      -3.837   2.042 -32.272  1.00  0.00    -0.353 N 
HETATM    2  C   UNL     1      -5.178   1.761 -32.402  1.00  0.00     0.254 C 
HETATM    3  O   UNL     1      -6.053   2.430 -31.860  1.00  0.00    -0.268 OA
HETATM    4  H   UNL     1      -3.157   1.406 -32.688  1.00  0.00     0.163 HD
ENDROOT
BRANCH   1   5
HETATM    5  C   UNL     1      -3.400   3.096 -31.396  1.00  0.00     0.161 C 
BRANCH   5   6
HETATM    6  C   UNL     1      -2.491   4.075 -32.080  1.00  0.00    -0.035 A 
HETATM    7  C   UNL     1      -2.605   4.327 -33.450  1.00  0.00     0.028 A 
HETATM    8  C   UNL     1      -1.785   5.290 -34.020  1.00  0.00     0.120 A 
HETATM    9  N   UNL     1      -0.877   6.012 -33.330  1.00  0.00    -0.237 NA
HETATM   10  C   UNL     1      -0.772   5.738 -32.015  1.00  0.00     0.164 A 
HETATM   11  C   UNL     1      -1.526   4.782 -31.355  1.00  0.00     0.066 A 
BRANCH  10  12
HETATM   12  O   UNL     1       0.134   6.449 -31.252  1.00  0.00    -0.329 OA
BRANCH  12  13
HETATM   13  C   UNL     1      -0.144   6.487 -29.836  1.00  0.00     0.130 C 
HETATM   14  C   UNL     1       0.733   5.530 -28.984  1.00  0.00     0.032 C 
HETATM   15  C   UNL     1       0.733   6.611 -27.890  1.00  0.00     0.005 C 
HETATM   16  C   UNL     1       0.480   7.641 -29.007  1.00  0.00     0.032 C 
ENDBRANCH  12  13
ENDBRANCH  10  12
ENDBRANCH   5   6
ENDBRANCH   1   5
BRANCH   2  17
HETATM   17  C   UNL     1      -5.554   0.589 -33.228  1.00  0.00     0.066 A 
HETATM   18  C   UNL     1      -4.879  -0.645 -33.140  1.00  0.00     0.100 A 
HETATM   19  C   UNL     1      -5.297  -1.704 -33.947  1.00  0.00     0.066 A 
HETATM   20  N   UNL     1      -3.813  -1.038 -32.354  1.00  0.00    -0.241 NA
HETATM   21  N   UNL     1      -4.453  -2.738 -33.626  1.00  0.00    -0.349 N 
HETATM   22  C   UNL     1      -6.360  -1.610 -34.847  1.00  0.00     0.074 A 
HETATM   23  H   UNL     1      -4.468  -3.666 -34.024  1.00  0.00     0.167 HD
HETATM   24  C   UNL     1      -3.583  -2.291 -32.670  1.00  0.00     0.208 A 
HETATM   25  C   UNL     1      -7.011  -0.378 -34.913  1.00  0.00     0.119 A 
HETATM   26  F   UNL     1      -8.040  -0.237 -35.760  1.00  0.00    -0.206 F 
HETATM   27  C   UNL     1      -6.628   0.704 -34.129  1.00  0.00     0.061 A 
ENDBRANCH   2  17
TORSDOF 5
ENDMDL
MODEL 2
REMARK VINA RESULT:      -8.3      1.742      2.353
REMARK  5 active torsions:
REMARK  status: ('A' for Active; 'I' for Inactive)
REMARK    1  A    between atoms: C_2  and  C_3 
REMARK    2  A    between atoms: C_3  and  N_4 
REMARK       I    between atoms: N_4  and  C_5 
REMARK    3  A    between atoms: C_5  and  C_6 
REMARK    4  A    between atoms: C_19  and  O_20 
REMARK    5  A    between atoms: O_20  and  C_21 
ROOT
HETATM    1  N   UNL     1      -4.430   2.070 -32.257  1.00  0.00    -0.353 N 
HETATM    2  C   UNL     1      -4.506   0.717 -32.021  1.00  0.00     0.254 C 
HETATM    3  O   UNL     1      -4.039   0.190 -31.016  1.00  0.00    -0.268 OA
HETATM    4  H   UNL     1      -4.774   2.437 -33.145  1.00  0.00     0.163 HD
ENDROOT
BRANCH   1   5
HETATM    5  C   UNL     1      -3.698   2.922 -31.358  1.00  0.00     0.161 C 
BRANCH   5   6
HETATM    6  C   UNL     1      -2.746   3.836 -32.074  1.00  0.00    -0.035 A 
HETATM    7  C   UNL     1      -2.910   4.123 -33.432  1.00  0.00     0.028 A 
HETATM    8  C   UNL     1      -2.044   5.027 -34.030  1.00  0.00     0.120 A 
HETATM    9  N   UNL     1      -1.044   5.657 -33.380  1.00  0.00    -0.237 NA
HETATM   10  C   UNL     1      -0.893   5.349 -32.076  1.00  0.00     0.164 A 
HETATM   11  C   UNL     1      -1.690   4.446 -31.392  1.00  0.00     0.066 A 
BRANCH  10  12
HETATM   12  O   UNL     1       0.107   5.968 -31.352  1.00  0.00    -0.329 OA
BRANCH  12  13
HETATM   13  C   UNL     1      -0.167   6.149 -29.947  1.00  0.00     0.130 C 
HETATM   14  C   UNL     1       0.780   5.362 -29.001  1.00  0.00     0.032 C 
HETATM   15  C   UNL     1       0.706   6.560 -28.038  1.00  0.00     0.005 C 
HETATM   16  C   UNL     1       0.375   7.432 -29.264  1.00  0.00     0.032 C 
ENDBRANCH  12  13
ENDBRANCH  10  12
ENDBRANCH   5   6
ENDBRANCH   1   5
BRANCH   2  17
HETATM   17  C   UNL     1      -5.175  -0.119 -33.045  1.00  0.00     0.066 A 
HETATM   18  C   UNL     1      -6.303   0.324 -33.764  1.00  0.00     0.100 A 
HETATM   19  C   UNL     1      -6.874  -0.521 -34.717  1.00  0.00     0.066 A 
HETATM   20  N   UNL     1      -7.001   1.515 -33.705  1.00  0.00    -0.241 NA
HETATM   21  N   UNL     1      -7.930   0.194 -35.225  1.00  0.00    -0.349 N 
HETATM   22  C   UNL     1      -6.382  -1.795 -35.005  1.00  0.00     0.074 A 
HETATM   23  H   UNL     1      -8.570  -0.116 -35.942  1.00  0.00     0.167 HD
HETATM   24  C   UNL     1      -7.966   1.404 -34.589  1.00  0.00     0.208 A 
HETATM   25  C   UNL     1      -5.264  -2.208 -34.281  1.00  0.00     0.119 A 
HETATM   26  F   UNL     1      -4.753  -3.423 -34.522  1.00  0.00    -0.206 F 
HETATM   27  C   UNL     1      -4.665  -1.401 -33.321  1.00  0.00     0.061 A 
ENDBRANCH   2  17
TORSDOF 5
ENDMDL
MODEL 3
REMARK VINA RESULT:      -8.3      1.823      2.498
REMARK  5 active torsions:
REMARK  status: ('A' for Active; 'I' for Inactive)
REMARK    1  A    between atoms: C_2  and  C_3 
REMARK    2  A    between atoms: C_3  and  N_4 
REMARK       I    between atoms: N_4  and  C_5 
REMARK    3  A    between atoms: C_5  and  C_6 
REMARK    4  A    between atoms: C_19  and  O_20 
REMARK    5  A    between atoms: O_20  and  C_21 
ROOT
HETATM    1  N   UNL     1      -5.315   0.872 -33.011  1.00  0.00    -0.353 N 
HETATM    2  C   UNL     1      -6.241  -0.039 -33.462  1.00  0.00     0.254 C 
HETATM    3  O   UNL     1      -7.425   0.240 -33.620  1.00  0.00    -0.268 OA
HETATM    4  H   UNL     1      -4.360   0.560 -32.831  1.00  0.00     0.163 HD
ENDROOT
BRANCH   1   5
HETATM    5  C   UNL     1      -5.732   2.189 -32.607  1.00  0.00     0.161 C 
BRANCH   5   6
HETATM    6  C   UNL     1      -4.768   3.257 -33.037  1.00  0.00    -0.035 A 
HETATM    7  C   UNL     1      -5.149   4.242 -33.953  1.00  0.00     0.028 A 
HETATM    8  C   UNL     1      -4.243   5.245 -34.265  1.00  0.00     0.120 A 
HETATM    9  N   UNL     1      -3.006   5.337 -33.734  1.00  0.00    -0.237 NA
HETATM   10  C   UNL     1      -2.655   4.365 -32.869  1.00  0.00     0.164 A 
HETATM   11  C   UNL     1      -3.476   3.309 -32.507  1.00  0.00     0.066 A 
BRANCH  10  12
HETATM   12  O   UNL     1      -1.404   4.408 -32.284  1.00  0.00    -0.329 OA
BRANCH  12  13
HETATM   13  C   UNL     1      -1.185   5.503 -31.369  1.00  0.00     0.130 C 
HETATM   14  C   UNL     1      -0.050   5.261 -30.339  1.00  0.00     0.032 C 
HETATM   15  C   UNL     1       0.297   6.755 -30.470  1.00  0.00     0.005 C 
HETATM   16  C   UNL     1      -0.344   6.706 -31.870  1.00  0.00     0.032 C 
ENDBRANCH  12  13
ENDBRANCH  10  12
ENDBRANCH   5   6
ENDBRANCH   1   5
BRANCH   2  17
HETATM   17  C   UNL     1      -5.764  -1.412 -33.751  1.00  0.00     0.066 A 
HETATM   18  C   UNL     1      -4.649  -1.977 -33.100  1.00  0.00     0.100 A 
HETATM   19  C   UNL     1      -4.265  -3.280 -33.423  1.00  0.00     0.066 A 
HETATM   20  N   UNL     1      -3.806  -1.458 -32.137  1.00  0.00    -0.241 NA
HETATM   21  N   UNL     1      -3.171  -3.524 -32.631  1.00  0.00    -0.349 N 
HETATM   22  C   UNL     1      -4.933  -4.066 -34.363  1.00  0.00     0.074 A 
HETATM   23  H   UNL     1      -2.632  -4.379 -32.604  1.00  0.00     0.167 HD
HETATM   24  C   UNL     1      -2.934  -2.406 -31.881  1.00  0.00     0.208 A 
HETATM   25  C   UNL     1      -6.033  -3.483 -34.990  1.00  0.00     0.119 A 
HETATM   26  F   UNL     1      -6.710  -4.197 -35.901  1.00  0.00    -0.206 F 
HETATM   27  C   UNL     1      -6.450  -2.188 -34.702  1.00  0.00     0.061 A 
ENDBRANCH   2  17
TORSDOF 5
ENDMDL
MODEL 4
REMARK VINA RESULT:      -8.2      3.063      4.278
REMARK  5 active torsions:
REMARK  status: ('A' for Active; 'I' for Inactive)
REMARK    1  A    between atoms: C_2  and  C_3 
REMARK    2  A    between atoms: C_3  and  N_4 
REMARK       I    between atoms: N_4  and  C_5 
REMARK    3  A    between atoms: C_5  and  C_6 
REMARK    4  A    between atoms: C_19  and  O_20 
REMARK    5  A    between atoms: O_20  and  C_21 
ROOT
HETATM    1  N   UNL     1      -6.791   1.153 -33.249  1.00  0.00    -0.353 N 
HETATM    2  C   UNL     1      -6.453   0.280 -34.258  1.00  0.00     0.254 C 
HETATM    3  O   UNL     1      -6.867   0.402 -35.407  1.00  0.00    -0.268 OA
HETATM    4  H   UNL     1      -6.473   0.957 -32.299  1.00  0.00     0.163 HD
ENDROOT
BRANCH   1   5
HETATM    5  C   UNL     1      -7.740   2.207 -33.490  1.00  0.00     0.161 C 
BRANCH   5   6
HETATM    6  C   UNL     1      -7.123   3.572 -33.400  1.00  0.00    -0.035 A 
HETATM    7  C   UNL     1      -7.649   4.545 -32.546  1.00  0.00     0.028 A 
HETATM    8  C   UNL     1      -7.000   5.767 -32.450  1.00  0.00     0.120 A 
HETATM    9  N   UNL     1      -5.879   6.082 -33.131  1.00  0.00    -0.237 NA
HETATM   10  C   UNL     1      -5.402   5.135 -33.964  1.00  0.00     0.164 A 
HETATM   11  C   UNL     1      -5.986   3.893 -34.148  1.00  0.00     0.066 A 
BRANCH  10  12
HETATM   12  O   UNL     1      -4.251   5.394 -34.683  1.00  0.00    -0.329 OA
BRANCH  12  13
HETATM   13  C   UNL     1      -3.107   5.791 -33.899  1.00  0.00     0.130 C 
HETATM   14  C   UNL     1      -2.593   4.705 -32.916  1.00  0.00     0.032 C 
HETATM   15  C   UNL     1      -1.168   5.199 -33.218  1.00  0.00     0.005 C 
HETATM   16  C   UNL     1      -1.708   5.710 -34.567  1.00  0.00     0.032 C 
ENDBRANCH  12  13
ENDBRANCH  10  12
ENDBRANCH   5   6
ENDBRANCH   1   5
BRANCH   2  17
HETATM   17  C   UNL     1      -5.561  -0.852 -33.913  1.00  0.00     0.066 A 
HETATM   18  C   UNL     1      -4.573  -0.757 -32.913  1.00  0.00     0.100 A 
HETATM   19  C   UNL     1      -3.775  -1.870 -32.643  1.00  0.00     0.066 A 
HETATM   20  N   UNL     1      -4.217   0.295 -32.091  1.00  0.00    -0.241 NA
HETATM   21  N   UNL     1      -2.933  -1.456 -31.640  1.00  0.00    -0.349 N 
HETATM   22  C   UNL     1      -3.904  -3.088 -33.313  1.00  0.00     0.074 A 
HETATM   23  H   UNL     1      -2.215  -2.012 -31.197  1.00  0.00     0.167 HD
HETATM   24  C   UNL     1      -3.234  -0.156 -31.345  1.00  0.00     0.208 A 
HETATM   25  C   UNL     1      -4.891  -3.154 -34.295  1.00  0.00     0.119 A 
HETATM   26  F   UNL     1      -5.056  -4.302 -34.967  1.00  0.00    -0.206 F 
HETATM   27  C   UNL     1      -5.707  -2.070 -34.600  1.00  0.00     0.061 A 
ENDBRANCH   2  17
TORSDOF 5
ENDMDL
MODEL 5
REMARK VINA RESULT:      -8.1      3.312      8.599
REMARK  5 active torsions:
REMARK  status: ('A' for Active; 'I' for Inactive)
REMARK    1  A    between atoms: C_2  and  C_3 
REMARK    2  A    between atoms: C_3  and  N_4 
REMARK       I    between atoms: N_4  and  C_5 
REMARK    3  A    between atoms: C_5  and  C_6 
REMARK    4  A    between atoms: C_19  and  O_20 
REMARK    5  A    between atoms: O_20  and  C_21 
ROOT
HETATM    1  N   UNL     1      -4.741   2.775 -32.096  1.00  0.00    -0.353 N 
HETATM    2  C   UNL     1      -3.410   2.766 -31.747  1.00  0.00     0.254 C 
HETATM    3  O   UNL     1      -2.887   1.831 -31.148  1.00  0.00    -0.268 OA
HETATM    4  H   UNL     1      -5.132   3.612 -32.529  1.00  0.00     0.163 HD
ENDROOT
BRANCH   1   5
HETATM    5  C   UNL     1      -5.607   1.706 -31.675  1.00  0.00     0.161 C 
BRANCH   5   6
HETATM    6  C   UNL     1      -6.439   1.160 -32.799  1.00  0.00    -0.035 A 
HETATM    7  C   UNL     1      -7.621   1.793 -33.192  1.00  0.00     0.028 A 
HETATM    8  C   UNL     1      -8.317   1.286 -34.281  1.00  0.00     0.120 A 
HETATM    9  N   UNL     1      -7.920   0.214 -34.996  1.00  0.00    -0.237 NA
HETATM   10  C   UNL     1      -6.788  -0.391 -34.586  1.00  0.00     0.164 A 
HETATM   11  C   UNL     1      -6.033   0.021 -33.501  1.00  0.00     0.066 A 
BRANCH  10  12
HETATM   12  O   UNL     1      -6.324  -1.490 -35.283  1.00  0.00    -0.329 OA
BRANCH  12  13
HETATM   13  C   UNL     1      -6.051  -2.661 -34.484  1.00  0.00     0.130 C 
HETATM   14  C   UNL     1      -6.637  -3.980 -35.056  1.00  0.00     0.032 C 
HETATM   15  C   UNL     1      -5.374  -4.689 -34.535  1.00  0.00     0.005 C 
HETATM   16  C   UNL     1      -4.659  -3.329 -34.631  1.00  0.00     0.032 C 
ENDBRANCH  12  13
ENDBRANCH  10  12
ENDBRANCH   5   6
ENDBRANCH   1   5
BRANCH   2  17
HETATM   17  C   UNL     1      -2.599   3.951 -32.111  1.00  0.00     0.066 A 
HETATM   18  C   UNL     1      -2.836   4.697 -33.283  1.00  0.00     0.100 A 
HETATM   19  C   UNL     1      -2.031   5.805 -33.554  1.00  0.00     0.066 A 
HETATM   20  N   UNL     1      -3.775   4.535 -34.283  1.00  0.00    -0.241 NA
HETATM   21  N   UNL     1      -2.512   6.299 -34.741  1.00  0.00    -0.349 N 
HETATM   22  C   UNL     1      -0.994   6.224 -32.718  1.00  0.00     0.074 A 
HETATM   23  H   UNL     1      -2.161   7.107 -35.237  1.00  0.00     0.167 HD
HETATM   24  C   UNL     1      -3.553   5.507 -35.138  1.00  0.00     0.208 A 
HETATM   25  C   UNL     1      -0.784   5.469 -31.565  1.00  0.00     0.119 A 
HETATM   26  F   UNL     1       0.200   5.830 -30.729  1.00  0.00    -0.206 F 
HETATM   27  C   UNL     1      -1.558   4.356 -31.256  1.00  0.00     0.061 A 
ENDBRANCH   2  17
TORSDOF 5
ENDMDL
MODEL 6
REMARK VINA RESULT:      -8.0      3.210      8.452
REMARK  5 active torsions:
REMARK  status: ('A' for Active; 'I' for Inactive)
REMARK    1  A    between atoms: C_2  and  C_3 
REMARK    2  A    between atoms: C_3  and  N_4 
REMARK       I    between atoms: N_4  and  C_5 
REMARK    3  A    between atoms: C_5  and  C_6 
REMARK    4  A    between atoms: C_19  and  O_20 
REMARK    5  A    between atoms: O_20  and  C_21 
ROOT
HETATM    1  N   UNL     1      -4.529   3.888 -31.188  1.00  0.00    -0.353 N 
HETATM    2  C   UNL     1      -3.215   3.726 -31.564  1.00  0.00     0.254 C 
HETATM    3  O   UNL     1      -2.568   2.718 -31.298  1.00  0.00    -0.268 OA
HETATM    4  H   UNL     1      -4.990   4.778 -31.377  1.00  0.00     0.163 HD
ENDROOT
BRANCH   1   5
HETATM    5  C   UNL     1      -5.175   2.899 -30.367  1.00  0.00     0.161 C 
BRANCH   5   6
HETATM    6  C   UNL     1      -6.095   2.009 -31.151  1.00  0.00    -0.035 A 
HETATM    7  C   UNL     1      -7.466   1.977 -30.881  1.00  0.00     0.028 A 
HETATM    8  C   UNL     1      -8.283   1.189 -31.679  1.00  0.00     0.120 A 
HETATM    9  N   UNL     1      -7.838   0.447 -32.714  1.00  0.00    -0.237 NA
HETATM   10  C   UNL     1      -6.510   0.479 -32.942  1.00  0.00     0.164 A 
HETATM   11  C   UNL     1      -5.607   1.214 -32.191  1.00  0.00     0.066 A 
BRANCH  10  12
HETATM   12  O   UNL     1      -5.992  -0.254 -33.993  1.00  0.00    -0.329 OA
BRANCH  12  13
HETATM   13  C   UNL     1      -5.865  -1.672 -33.756  1.00  0.00     0.130 C 
HETATM   14  C   UNL     1      -6.695  -2.561 -34.720  1.00  0.00     0.032 C 
HETATM   15  C   UNL     1      -5.536  -3.572 -34.680  1.00  0.00     0.005 C 
HETATM   16  C   UNL     1      -4.613  -2.391 -34.325  1.00  0.00     0.032 C 
ENDBRANCH  12  13
ENDBRANCH  10  12
ENDBRANCH   5   6
ENDBRANCH   1   5
BRANCH   2  17
HETATM   17  C   UNL     1      -2.575   4.835 -32.310  1.00  0.00     0.066 A 
HETATM   18  C   UNL     1      -2.546   6.156 -31.821  1.00  0.00     0.100 A 
HETATM   19  C   UNL     1      -1.919   7.145 -32.580  1.00  0.00     0.066 A 
HETATM   20  N   UNL     1      -3.050   6.699 -30.655  1.00  0.00    -0.241 NA
HETATM   21  N   UNL     1      -2.063   8.292 -31.840  1.00  0.00    -0.349 N 
HETATM   22  C   UNL     1      -1.308   6.896 -33.811  1.00  0.00     0.074 A 
HETATM   23  H   UNL     1      -1.725   9.211 -32.092  1.00  0.00     0.167 HD
HETATM   24  C   UNL     1      -2.746   7.976 -30.699  1.00  0.00     0.208 A 
HETATM   25  C   UNL     1      -1.350   5.580 -34.269  1.00  0.00     0.119 A 
HETATM   26  F   UNL     1      -0.777   5.289 -35.446  1.00  0.00    -0.206 F 
HETATM   27  C   UNL     1      -1.966   4.564 -33.548  1.00  0.00     0.061 A 
ENDBRANCH   2  17
TORSDOF 5
ENDMDL
MODEL 7
REMARK VINA RESULT:      -7.9      3.419      5.191
REMARK  5 active torsions:
REMARK  status: ('A' for Active; 'I' for Inactive)
REMARK    1  A    between atoms: C_2  and  C_3 
REMARK    2  A    between atoms: C_3  and  N_4 
REMARK       I    between atoms: N_4  and  C_5 
REMARK    3  A    between atoms: C_5  and  C_6 
REMARK    4  A    between atoms: C_19  and  O_20 
REMARK    5  A    between atoms: O_20  and  C_21 
ROOT
HETATM    1  N   UNL     1      -7.824  -0.217 -32.846  1.00  0.00    -0.353 N 
HETATM    2  C   UNL     1      -7.393  -0.639 -34.082  1.00  0.00     0.254 C 
HETATM    3  O   UNL     1      -7.810  -0.156 -35.131  1.00  0.00    -0.268 OA
HETATM    4  H   UNL     1      -7.492  -0.707 -32.014  1.00  0.00     0.163 HD
ENDROOT
BRANCH   1   5
HETATM    5  C   UNL     1      -8.874   0.760 -32.739  1.00  0.00     0.161 C 
BRANCH   5   6
HETATM    6  C   UNL     1      -8.527   1.882 -31.804  1.00  0.00    -0.035 A 
HETATM    7  C   UNL     1      -9.526   2.650 -31.199  1.00  0.00     0.028 A 
HETATM    8  C   UNL     1      -9.153   3.630 -30.291  1.00  0.00     0.120 A 
HETATM    9  N   UNL     1      -7.875   3.892 -29.945  1.00  0.00    -0.237 NA
HETATM   10  C   UNL     1      -6.929   3.152 -30.556  1.00  0.00     0.164 A 
HETATM   11  C   UNL     1      -7.194   2.166 -31.492  1.00  0.00     0.066 A 
BRANCH  10  12
HETATM   12  O   UNL     1      -5.602   3.366 -30.238  1.00  0.00    -0.329 OA
BRANCH  12  13
HETATM   13  C   UNL     1      -4.704   3.465 -31.364  1.00  0.00     0.130 C 
HETATM   14  C   UNL     1      -3.746   4.686 -31.316  1.00  0.00     0.032 C 
HETATM   15  C   UNL     1      -2.673   3.786 -31.952  1.00  0.00     0.005 C 
HETATM   16  C   UNL     1      -3.426   2.585 -31.350  1.00  0.00     0.032 C 
ENDBRANCH  12  13
ENDBRANCH  10  12
ENDBRANCH   5   6
ENDBRANCH   1   5
BRANCH   2  17
HETATM   17  C   UNL     1      -6.392  -1.731 -34.122  1.00  0.00     0.066 A 
HETATM   18  C   UNL     1      -5.201  -1.692 -33.369  1.00  0.00     0.100 A 
HETATM   19  C   UNL     1      -4.310  -2.762 -33.457  1.00  0.00     0.066 A 
HETATM   20  N   UNL     1      -4.712  -0.735 -32.500  1.00  0.00    -0.241 NA
HETATM   21  N   UNL     1      -3.276  -2.421 -32.620  1.00  0.00    -0.349 N 
HETATM   22  C   UNL     1      -4.535  -3.885 -34.255  1.00  0.00     0.074 A 
HETATM   23  H   UNL     1      -2.448  -2.972 -32.439  1.00  0.00     0.167 HD
HETATM   24  C   UNL     1      -3.561  -1.201 -32.073  1.00  0.00     0.208 A 
HETATM   25  C   UNL     1      -5.721  -3.898 -34.988  1.00  0.00     0.119 A 
HETATM   26  F   UNL     1      -5.985  -4.955 -35.769  1.00  0.00    -0.206 F 
HETATM   27  C   UNL     1      -6.636  -2.853 -34.934  1.00  0.00     0.061 A 
ENDBRANCH   2  17
TORSDOF 5
ENDMDL
MODEL 8
REMARK VINA RESULT:      -7.9      6.459      9.451
REMARK  5 active torsions:
REMARK  status: ('A' for Active; 'I' for Inactive)
REMARK    1  A    between atoms: C_2  and  C_3 
REMARK    2  A    between atoms: C_3  and  N_4 
REMARK       I    between atoms: N_4  and  C_5 
REMARK    3  A    between atoms: C_5  and  C_6 
REMARK    4  A    between atoms: C_19  and  O_20 
REMARK    5  A    between atoms: O_20  and  C_21 
ROOT
HETATM    1  N   UNL     1     -10.253   1.317 -34.029  1.00  0.00    -0.353 N 
HETATM    2  C   UNL     1     -10.835   2.563 -34.013  1.00  0.00     0.254 C 
HETATM    3  O   UNL     1     -10.336   3.537 -34.570  1.00  0.00    -0.268 OA
HETATM    4  H   UNL     1     -10.680   0.565 -33.487  1.00  0.00     0.163 HD
ENDROOT
BRANCH   1   5
HETATM    5  C   UNL     1      -8.961   1.129 -34.633  1.00  0.00     0.161 C 
BRANCH   5   6
HETATM    6  C   UNL     1      -7.962   0.531 -33.685  1.00  0.00    -0.035 A 
HETATM    7  C   UNL     1      -8.067   0.736 -32.306  1.00  0.00     0.028 A 
HETATM    8  C   UNL     1      -7.158   0.106 -31.468  1.00  0.00     0.120 A 
HETATM    9  N   UNL     1      -6.171  -0.706 -31.901  1.00  0.00    -0.237 NA
HETATM   10  C   UNL     1      -6.078  -0.873 -33.235  1.00  0.00     0.164 A 
HETATM   11  C   UNL     1      -6.920  -0.272 -34.157  1.00  0.00     0.066 A 
BRANCH  10  12
HETATM   12  O   UNL     1      -5.093  -1.699 -33.740  1.00  0.00    -0.329 OA
BRANCH  12  13
HETATM   13  C   UNL     1      -5.529  -2.642 -34.742  1.00  0.00     0.130 C 
HETATM   14  C   UNL     1      -4.974  -4.080 -34.556  1.00  0.00     0.032 C 
HETATM   15  C   UNL     1      -6.330  -4.599 -35.065  1.00  0.00     0.005 C 
HETATM   16  C   UNL     1      -6.939  -3.270 -34.579  1.00  0.00     0.032 C 
ENDBRANCH  12  13
ENDBRANCH  10  12
ENDBRANCH   5   6
ENDBRANCH   1   5
BRANCH   2  17
HETATM   17  C   UNL     1     -12.111   2.713 -33.274  1.00  0.00     0.066 A 
HETATM   18  C   UNL     1     -13.282   2.020 -33.641  1.00  0.00     0.100 A 
HETATM   19  C   UNL     1     -14.444   2.210 -32.892  1.00  0.00     0.066 A 
HETATM   20  N   UNL     1     -13.519   1.126 -34.667  1.00  0.00    -0.241 NA
HETATM   21  N   UNL     1     -15.381   1.409 -33.497  1.00  0.00    -0.349 N 
HETATM   22  C   UNL     1     -14.513   3.057 -31.784  1.00  0.00     0.074 A 
HETATM   23  H   UNL     1     -16.345   1.301 -33.214  1.00  0.00     0.167 HD
HETATM   24  C   UNL     1     -14.781   0.782 -34.553  1.00  0.00     0.208 A 
HETATM   25  C   UNL     1     -13.339   3.728 -31.442  1.00  0.00     0.119 A 
HETATM   26  F   UNL     1     -13.352   4.552 -30.385  1.00  0.00    -0.206 F 
HETATM   27  C   UNL     1     -12.160   3.571 -32.161  1.00  0.00     0.061 A 
ENDBRANCH   2  17
TORSDOF 5
ENDMDL
MODEL 9
REMARK VINA RESULT:      -7.7      3.905      5.828
REMARK  5 active torsions:
REMARK  status: ('A' for Active; 'I' for Inactive)
REMARK    1  A    between atoms: C_2  and  C_3 
REMARK    2  A    between atoms: C_3  and  N_4 
REMARK       I    between atoms: N_4  and  C_5 
REMARK    3  A    between atoms: C_5  and  C_6 
REMARK    4  A    between atoms: C_19  and  O_20 
REMARK    5  A    between atoms: O_20  and  C_21 
ROOT
HETATM    1  N   UNL     1      -8.892   0.487 -34.111  1.00  0.00    -0.353 N 
HETATM    2  C   UNL     1      -8.086  -0.002 -33.109  1.00  0.00     0.254 C 
HETATM    3  O   UNL     1      -8.305   0.207 -31.919  1.00  0.00    -0.268 OA
HETATM    4  H   UNL     1      -8.616   0.340 -35.082  1.00  0.00     0.163 HD
ENDROOT
BRANCH   1   5
HETATM    5  C   UNL     1      -9.990   1.362 -33.795  1.00  0.00     0.161 C 
BRANCH   5   6
HETATM    6  C   UNL     1      -9.731   2.784 -34.200  1.00  0.00    -0.035 A 
HETATM    7  C   UNL     1     -10.708   3.534 -34.859  1.00  0.00     0.028 A 
HETATM    8  C   UNL     1     -10.443   4.864 -35.150  1.00  0.00     0.120 A 
HETATM    9  N   UNL     1      -9.291   5.491 -34.831  1.00  0.00    -0.237 NA
HETATM   10  C   UNL     1      -8.356   4.742 -34.214  1.00  0.00     0.164 A 
HETATM   11  C   UNL     1      -8.514   3.402 -33.898  1.00  0.00     0.066 A 
BRANCH  10  12
HETATM   12  O   UNL     1      -7.158   5.328 -33.853  1.00  0.00    -0.329 OA
BRANCH  12  13
HETATM   13  C   UNL     1      -6.029   4.432 -33.776  1.00  0.00     0.130 C 
HETATM   14  C   UNL     1      -4.740   4.964 -34.457  1.00  0.00     0.032 C 
HETATM   15  C   UNL     1      -3.943   4.289 -33.327  1.00  0.00     0.005 C 
HETATM   16  C   UNL     1      -5.209   4.413 -32.459  1.00  0.00     0.032 C 
ENDBRANCH  12  13
ENDBRANCH  10  12
ENDBRANCH   5   6
ENDBRANCH   1   5
BRANCH   2  17
HETATM   17  C   UNL     1      -6.904  -0.801 -33.510  1.00  0.00     0.066 A 
HETATM   18  C   UNL     1      -5.587  -0.413 -33.190  1.00  0.00     0.100 A 
HETATM   19  C   UNL     1      -4.526  -1.222 -33.599  1.00  0.00     0.066 A 
HETATM   20  N   UNL     1      -5.110   0.685 -32.502  1.00  0.00    -0.241 NA
HETATM   21  N   UNL     1      -3.404  -0.578 -33.140  1.00  0.00    -0.349 N 
HETATM   22  C   UNL     1      -4.697  -2.410 -34.313  1.00  0.00     0.074 A 
HETATM   23  H   UNL     1      -2.449  -0.887 -33.259  1.00  0.00     0.167 HD
HETATM   24  C   UNL     1      -3.803   0.557 -32.492  1.00  0.00     0.208 A 
HETATM   25  C   UNL     1      -6.010  -2.770 -34.614  1.00  0.00     0.119 A 
HETATM   26  F   UNL     1      -6.228  -3.903 -35.296  1.00  0.00    -0.206 F 
HETATM   27  C   UNL     1      -7.097  -1.994 -34.229  1.00  0.00     0.061 A 
ENDBRANCH   2  17
TORSDOF 5
ENDMDL
MODEL 10
REMARK VINA RESULT:      -7.6      3.779      9.244
REMARK  5 active torsions:
REMARK  status: ('A' for Active; 'I' for Inactive)
REMARK    1  A    between atoms: C_2  and  C_3 
REMARK    2  A    between atoms: C_3  and  N_4 
REMARK       I    between atoms: N_4  and  C_5 
REMARK    3  A    between atoms: C_5  and  C_6 
REMARK    4  A    between atoms: C_19  and  O_20 
REMARK    5  A    between atoms: O_20  and  C_21 
ROOT
HETATM    1  N   UNL     1      -2.336   5.060 -31.437  1.00  0.00    -0.353 N 
HETATM    2  C   UNL     1      -1.082   5.332 -30.941  1.00  0.00     0.254 C 
HETATM    3  O   UNL     1      -0.087   4.687 -31.258  1.00  0.00    -0.268 OA
HETATM    4  H   UNL     1      -3.134   5.586 -31.080  1.00  0.00     0.163 HD
ENDROOT
BRANCH   1   5
HETATM    5  C   UNL     1      -2.545   3.921 -32.291  1.00  0.00     0.161 C 
BRANCH   5   6
HETATM    6  C   UNL     1      -3.546   2.953 -31.729  1.00  0.00    -0.035 A 
HETATM    7  C   UNL     1      -4.512   3.371 -30.810  1.00  0.00     0.028 A 
HETATM    8  C   UNL     1      -5.456   2.452 -30.373  1.00  0.00     0.120 A 
HETATM    9  N   UNL     1      -5.506   1.168 -30.784  1.00  0.00    -0.237 NA
HETATM   10  C   UNL     1      -4.551   0.784 -31.655  1.00  0.00     0.164 A 
HETATM   11  C   UNL     1      -3.553   1.616 -32.135  1.00  0.00     0.066 A 
BRANCH  10  12
HETATM   12  O   UNL     1      -4.554  -0.517 -32.121  1.00  0.00    -0.329 OA
BRANCH  12  13
HETATM   13  C   UNL     1      -5.102  -0.700 -33.443  1.00  0.00     0.130 C 
HETATM   14  C   UNL     1      -4.870  -2.112 -34.044  1.00  0.00     0.032 C 
HETATM   15  C   UNL     1      -6.264  -1.996 -34.685  1.00  0.00     0.005 C 
HETATM   16  C   UNL     1      -6.619  -1.005 -33.561  1.00  0.00     0.032 C 
ENDBRANCH  12  13
ENDBRANCH  10  12
ENDBRANCH   5   6
ENDBRANCH   1   5
BRANCH   2  17
HETATM   17  C   UNL     1      -0.957   6.449 -29.975  1.00  0.00     0.066 A 
HETATM   18  C   UNL     1      -2.077   7.058 -29.375  1.00  0.00     0.100 A 
HETATM   19  C   UNL     1      -1.877   8.102 -28.471  1.00  0.00     0.066 A 
HETATM   20  N   UNL     1      -3.428   6.805 -29.518  1.00  0.00    -0.241 NA
HETATM   21  N   UNL     1      -3.141   8.466 -28.078  1.00  0.00    -0.349 N 
HETATM   22  C   UNL     1      -0.613   8.580 -28.118  1.00  0.00     0.074 A 
HETATM   23  H   UNL     1      -3.373   9.199 -27.421  1.00  0.00     0.167 HD
HETATM   24  C   UNL     1      -4.034   7.664 -28.731  1.00  0.00     0.208 A 
HETATM   25  C   UNL     1       0.477   7.958 -28.725  1.00  0.00     0.119 A 
HETATM   26  F   UNL     1       1.712   8.380 -28.419  1.00  0.00    -0.206 F 
HETATM   27  C   UNL     1       0.325   6.917 -29.634  1.00  0.00     0.061 A 
ENDBRANCH   2  17
TORSDOF 5
ENDMDL
