MODEL 1
REMARK VINA RESULT:     -10.6      0.000      0.000
REMARK  4 active torsions:
REMARK  status: ('A' for Active; 'I' for Inactive)
REMARK    1  A    between atoms: C_2  and  C_3 
REMARK    2  A    between atoms: N_16  and  C_17 
REMARK    3  A    between atoms: C_17  and  C_18 
REMARK       I    between atoms: C_18  and  N_19 
REMARK    4  A    between atoms: N_19  and  C_20 
ROOT
HETATM    1  C   UNL     1      -5.318   1.793 -31.292  1.00  0.00     0.054 C 
HETATM    2  C   UNL     1      -6.236   1.723 -32.515  1.00  0.00     0.140 A 
HETATM    3  N   UNL     1      -5.886   2.786 -33.434  1.00  0.00    -0.321 N 
HETATM    4  C   UNL     1      -6.882   3.718 -33.581  1.00  0.00     0.326 A 
HETATM    5  O   UNL     1      -6.783   4.705 -34.288  1.00  0.00    -0.247 OA
HETATM    6  N   UNL     1      -7.938   3.353 -32.810  1.00  0.00    -0.259 N 
HETATM    7  C   UNL     1      -7.659   2.201 -32.132  1.00  0.00     0.261 A 
HETATM    8  O   UNL     1      -8.420   1.653 -31.345  1.00  0.00    -0.270 OA
HETATM    9  H   UNL     1      -4.999   2.889 -33.907  1.00  0.00     0.165 HD
ENDROOT
BRANCH   6  10
HETATM   10  C   UNL     1      -9.166   4.114 -32.711  1.00  0.00     0.240 C 
BRANCH  10  11
HETATM   11  C   UNL     1     -10.313   3.438 -33.463  1.00  0.00     0.240 C 
HETATM   12  N   UNL     1     -11.205   2.767 -32.653  1.00  0.00    -0.324 N 
HETATM   13  H   UNL     1     -11.158   2.910 -31.643  1.00  0.00     0.169 HD
HETATM   14  O   UNL     1     -10.460   3.628 -34.669  1.00  0.00    -0.271 OA
BRANCH  12  15
HETATM   15  C   UNL     1     -12.314   1.977 -33.043  1.00  0.00     0.064 A 
HETATM   16  C   UNL     1     -13.579   2.473 -32.690  1.00  0.00     0.093 A 
HETATM   17  C   UNL     1     -14.720   1.718 -33.043  1.00  0.00    -0.005 A 
HETATM   18  N   UNL     1     -13.680   3.650 -32.029  1.00  0.00    -0.258 NA
HETATM   19  C   UNL     1     -15.981   2.223 -32.699  1.00  0.00     0.015 A 
HETATM   20  C   UNL     1     -14.581   0.498 -33.723  1.00  0.00     0.014 A 
HETATM   21  C   UNL     1     -16.082   3.432 -32.023  1.00  0.00     0.020 A 
HETATM   22  C   UNL     1     -14.913   4.100 -31.711  1.00  0.00     0.117 A 
HETATM   23  C   UNL     1     -13.316   0.018 -34.053  1.00  0.00     0.003 A 
HETATM   24  C   UNL     1     -12.184   0.756 -33.714  1.00  0.00     0.032 A 
ENDBRANCH  12  15
ENDBRANCH  10  11
ENDBRANCH   6  10
BRANCH   2  25
HETATM   25  C   UNL     1      -6.254   0.343 -33.164  1.00  0.00    -0.020 A 
HETATM   26  C   UNL     1      -5.176  -0.556 -33.056  1.00  0.00     0.022 A 
HETATM   27  C   UNL     1      -5.211  -1.832 -33.652  1.00  0.00    -0.025 A 
HETATM   28  C   UNL     1      -6.352  -2.225 -34.384  1.00  0.00    -0.026 A 
HETATM   29  C   UNL     1      -4.133  -2.725 -33.533  1.00  0.00     0.012 A 
HETATM   30  C   UNL     1      -7.423  -1.333 -34.504  1.00  0.00     0.013 A 
HETATM   31  C   UNL     1      -6.387  -3.498 -34.975  1.00  0.00     0.012 A 
HETATM   32  C   UNL     1      -7.373  -0.070 -33.906  1.00  0.00     0.011 A 
HETATM   33  C   UNL     1      -5.309  -4.374 -34.846  1.00  0.00     0.001 A 
HETATM   34  C   UNL     1      -4.182  -3.988 -34.126  1.00  0.00     0.001 A 
ENDBRANCH   2  25
TORSDOF 4
ENDMDL
MODEL 2
REMARK VINA RESULT:     -10.5      4.302      7.951
REMARK  4 active torsions:
REMARK  status: ('A' for Active; 'I' for Inactive)
REMARK    1  A    between atoms: C_2  and  C_3 
REMARK    2  A    between atoms: N_16  and  C_17 
REMARK    3  A    between atoms: C_17  and  C_18 
REMARK       I    between atoms: C_18  and  N_19 
REMARK    4  A    between atoms: N_19  and  C_20 
ROOT
HETATM    1  C   UNL     1      -6.611   2.002 -34.728  1.00  0.00     0.054 C 
HETATM    2  C   UNL     1      -6.525   1.135 -33.470  1.00  0.00     0.140 A 
HETATM    3  N   UNL     1      -7.734   1.305 -32.691  1.00  0.00    -0.321 N 
HETATM    4  C   UNL     1      -7.511   1.902 -31.477  1.00  0.00     0.326 A 
HETATM    5  O   UNL     1      -8.394   2.159 -30.678  1.00  0.00    -0.247 OA
HETATM    6  N   UNL     1      -6.183   2.154 -31.352  1.00  0.00    -0.259 N 
HETATM    7  C   UNL     1      -5.513   1.753 -32.473  1.00  0.00     0.261 A 
HETATM    8  O   UNL     1      -4.308   1.879 -32.649  1.00  0.00    -0.270 OA
HETATM    9  H   UNL     1      -8.667   1.060 -32.990  1.00  0.00     0.165 HD
ENDROOT
BRANCH   6  10
HETATM   10  C   UNL     1      -5.586   2.791 -30.196  1.00  0.00     0.240 C 
BRANCH  10  11
HETATM   11  C   UNL     1      -5.160   4.227 -30.497  1.00  0.00     0.240 C 
HETATM   12  N   UNL     1      -3.812   4.381 -30.740  1.00  0.00    -0.324 N 
HETATM   13  H   UNL     1      -3.239   3.548 -30.885  1.00  0.00     0.169 HD
HETATM   14  O   UNL     1      -6.008   5.108 -30.638  1.00  0.00    -0.271 OA
BRANCH  12  15
HETATM   15  C   UNL     1      -3.096   5.582 -30.962  1.00  0.00     0.064 A 
HETATM   16  C   UNL     1      -2.444   5.692 -32.201  1.00  0.00     0.093 A 
HETATM   17  C   UNL     1      -1.705   6.865 -32.471  1.00  0.00    -0.005 A 
HETATM   18  N   UNL     1      -2.538   4.685 -33.102  1.00  0.00    -0.258 NA
HETATM   19  C   UNL     1      -1.067   6.974 -33.714  1.00  0.00     0.015 A 
HETATM   20  C   UNL     1      -1.622   7.888 -31.513  1.00  0.00     0.014 A 
HETATM   21  C   UNL     1      -1.167   5.941 -34.637  1.00  0.00     0.020 A 
HETATM   22  C   UNL     1      -1.905   4.827 -34.286  1.00  0.00     0.117 A 
HETATM   23  C   UNL     1      -2.265   7.754 -30.286  1.00  0.00     0.003 A 
HETATM   24  C   UNL     1      -3.001   6.603 -30.010  1.00  0.00     0.032 A 
ENDBRANCH  12  15
ENDBRANCH  10  11
ENDBRANCH   6  10
BRANCH   2  25
HETATM   25  C   UNL     1      -6.203  -0.324 -33.778  1.00  0.00    -0.020 A 
HETATM   26  C   UNL     1      -5.090  -0.985 -33.224  1.00  0.00     0.022 A 
HETATM   27  C   UNL     1      -4.813  -2.336 -33.509  1.00  0.00    -0.025 A 
HETATM   28  C   UNL     1      -5.665  -3.052 -34.376  1.00  0.00    -0.026 A 
HETATM   29  C   UNL     1      -3.703  -2.990 -32.946  1.00  0.00     0.012 A 
HETATM   30  C   UNL     1      -6.767  -2.399 -34.938  1.00  0.00     0.013 A 
HETATM   31  C   UNL     1      -5.388  -4.399 -34.658  1.00  0.00     0.012 A 
HETATM   32  C   UNL     1      -7.030  -1.057 -34.645  1.00  0.00     0.011 A 
HETATM   33  C   UNL     1      -4.284  -5.034 -34.089  1.00  0.00     0.001 A 
HETATM   34  C   UNL     1      -3.441  -4.330 -33.234  1.00  0.00     0.001 A 
ENDBRANCH   2  25
TORSDOF 4
ENDMDL
MODEL 3
REMARK VINA RESULT:     -10.4      4.085      8.424
REMARK  4 active torsions:
REMARK  status: ('A' for Active; 'I' for Inactive)
REMARK    1  A    between atoms: C_2  and  C_3 
REMARK    2  A    between atoms: N_16  and  C_17 
REMARK    3  A    between atoms: C_17  and  C_18 
REMARK       I    between atoms: C_18  and  N_19 
REMARK    4  A    between atoms: N_19  and  C_20 
ROOT
HETATM    1  C   UNL     1      -8.690   1.334 -33.978  1.00  0.00     0.054 C 
HETATM    2  C   UNL     1      -7.430   1.288 -33.109  1.00  0.00     0.140 A 
HETATM    3  N   UNL     1      -7.803   1.467 -31.722  1.00  0.00    -0.321 N 
HETATM    4  C   UNL     1      -7.318   2.630 -31.180  1.00  0.00     0.326 A 
HETATM    5  O   UNL     1      -7.535   2.984 -30.035  1.00  0.00    -0.247 OA
HETATM    6  N   UNL     1      -6.598   3.284 -32.127  1.00  0.00    -0.259 N 
HETATM    7  C   UNL     1      -6.610   2.589 -33.302  1.00  0.00     0.261 A 
HETATM    8  O   UNL     1      -6.064   2.953 -34.335  1.00  0.00    -0.270 OA
HETATM    9  H   UNL     1      -8.391   0.845 -31.184  1.00  0.00     0.165 HD
ENDROOT
BRANCH   6  10
HETATM   10  C   UNL     1      -5.945   4.558 -31.909  1.00  0.00     0.240 C 
BRANCH  10  11
HETATM   11  C   UNL     1      -4.477   4.384 -31.523  1.00  0.00     0.240 C 
HETATM   12  N   UNL     1      -3.746   5.554 -31.526  1.00  0.00    -0.324 N 
HETATM   13  H   UNL     1      -4.241   6.444 -31.595  1.00  0.00     0.169 HD
HETATM   14  O   UNL     1      -4.068   3.297 -31.117  1.00  0.00    -0.271 OA
BRANCH  12  15
HETATM   15  C   UNL     1      -2.357   5.716 -31.301  1.00  0.00     0.064 A 
HETATM   16  C   UNL     1      -1.998   6.623 -30.290  1.00  0.00     0.093 A 
HETATM   17  C   UNL     1      -0.626   6.832 -30.031  1.00  0.00    -0.005 A 
HETATM   18  N   UNL     1      -2.962   7.268 -29.592  1.00  0.00    -0.258 NA
HETATM   19  C   UNL     1      -0.273   7.730 -29.014  1.00  0.00     0.015 A 
HETATM   20  C   UNL     1       0.349   6.152 -30.779  1.00  0.00     0.014 A 
HETATM   21  C   UNL     1      -1.264   8.388 -28.297  1.00  0.00     0.020 A 
HETATM   22  C   UNL     1      -2.581   8.128 -28.623  1.00  0.00     0.117 A 
HETATM   23  C   UNL     1      -0.028   5.267 -31.784  1.00  0.00     0.003 A 
HETATM   24  C   UNL     1      -1.379   5.048 -32.045  1.00  0.00     0.032 A 
ENDBRANCH  12  15
ENDBRANCH  10  11
ENDBRANCH   6  10
BRANCH   2  25
HETATM   25  C   UNL     1      -6.587   0.041 -33.354  1.00  0.00    -0.020 A 
HETATM   26  C   UNL     1      -7.116  -1.125 -33.940  1.00  0.00     0.022 A 
HETATM   27  C   UNL     1      -6.322  -2.265 -34.170  1.00  0.00    -0.025 A 
HETATM   28  C   UNL     1      -4.960  -2.249 -33.800  1.00  0.00    -0.026 A 
HETATM   29  C   UNL     1      -6.857  -3.422 -34.761  1.00  0.00     0.012 A 
HETATM   30  C   UNL     1      -4.430  -1.098 -33.207  1.00  0.00     0.013 A 
HETATM   31  C   UNL     1      -4.170  -3.386 -34.031  1.00  0.00     0.012 A 
HETATM   32  C   UNL     1      -5.231   0.027 -32.986  1.00  0.00     0.011 A 
HETATM   33  C   UNL     1      -4.715  -4.526 -34.622  1.00  0.00     0.001 A 
HETATM   34  C   UNL     1      -6.058  -4.544 -34.987  1.00  0.00     0.001 A 
ENDBRANCH   2  25
TORSDOF 4
ENDMDL
MODEL 4
REMARK VINA RESULT:     -10.4      3.445      7.727
REMARK  4 active torsions:
REMARK  status: ('A' for Active; 'I' for Inactive)
REMARK    1  A    between atoms: C_2  and  C_3 
REMARK    2  A    between atoms: N_16  and  C_17 
REMARK    3  A    between atoms: C_17  and  C_18 
REMARK       I    between atoms: C_18  and  N_19 
REMARK    4  A    between atoms: N_19  and  C_20 
ROOT
HETATM    1  C   UNL     1      -9.322   0.626 -31.879  1.00  0.00     0.054 C 
HETATM    2  C   UNL     1      -7.875   1.119 -31.970  1.00  0.00     0.140 A 
HETATM    3  N   UNL     1      -7.447   1.577 -30.664  1.00  0.00    -0.321 N 
HETATM    4  C   UNL     1      -7.192   2.924 -30.624  1.00  0.00     0.326 A 
HETATM    5  O   UNL     1      -6.843   3.516 -29.618  1.00  0.00    -0.247 OA
HETATM    6  N   UNL     1      -7.410   3.446 -31.859  1.00  0.00    -0.259 N 
HETATM    7  C   UNL     1      -7.826   2.473 -32.722  1.00  0.00     0.261 A 
HETATM    8  O   UNL     1      -8.119   2.659 -33.896  1.00  0.00    -0.270 OA
HETATM    9  H   UNL     1      -7.369   1.005 -29.835  1.00  0.00     0.165 HD
ENDROOT
BRANCH   6  10
HETATM   10  C   UNL     1      -7.248   4.848 -32.183  1.00  0.00     0.240 C 
BRANCH  10  11
HETATM   11  C   UNL     1      -6.058   5.081 -33.113  1.00  0.00     0.240 C 
HETATM   12  N   UNL     1      -4.829   4.999 -32.492  1.00  0.00    -0.324 N 
HETATM   13  H   UNL     1      -4.779   4.621 -31.545  1.00  0.00     0.169 HD
HETATM   14  O   UNL     1      -6.230   5.187 -34.326  1.00  0.00    -0.271 OA
BRANCH  12  15
HETATM   15  C   UNL     1      -3.551   5.246 -33.051  1.00  0.00     0.064 A 
HETATM   16  C   UNL     1      -2.620   5.872 -32.206  1.00  0.00     0.093 A 
HETATM   17  C   UNL     1      -1.333   6.154 -32.715  1.00  0.00    -0.005 A 
HETATM   18  N   UNL     1      -2.969   6.187 -30.936  1.00  0.00    -0.258 NA
HETATM   19  C   UNL     1      -0.404   6.768 -31.864  1.00  0.00     0.015 A 
HETATM   20  C   UNL     1      -1.005   5.821 -34.039  1.00  0.00     0.014 A 
HETATM   21  C   UNL     1      -0.763   7.087 -30.562  1.00  0.00     0.020 A 
HETATM   22  C   UNL     1      -2.046   6.782 -30.149  1.00  0.00     0.117 A 
HETATM   23  C   UNL     1      -1.947   5.212 -34.864  1.00  0.00     0.003 A 
HETATM   24  C   UNL     1      -3.218   4.925 -34.371  1.00  0.00     0.032 A 
ENDBRANCH  12  15
ENDBRANCH  10  11
ENDBRANCH   6  10
BRANCH   2  25
HETATM   25  C   UNL     1      -6.936   0.089 -32.588  1.00  0.00    -0.020 A 
HETATM   26  C   UNL     1      -7.406  -1.024 -33.310  1.00  0.00     0.022 A 
HETATM   27  C   UNL     1      -6.526  -1.962 -33.884  1.00  0.00    -0.025 A 
HETATM   28  C   UNL     1      -5.134  -1.790 -33.733  1.00  0.00    -0.026 A 
HETATM   29  C   UNL     1      -7.004  -3.067 -34.609  1.00  0.00     0.012 A 
HETATM   30  C   UNL     1      -4.659  -0.691 -33.008  1.00  0.00     0.013 A 
HETATM   31  C   UNL     1      -4.257  -2.724 -34.309  1.00  0.00     0.012 A 
HETATM   32  C   UNL     1      -5.546   0.231 -32.444  1.00  0.00     0.011 A 
HETATM   33  C   UNL     1      -4.748  -3.814 -35.027  1.00  0.00     0.001 A 
HETATM   34  C   UNL     1      -6.121  -3.986 -35.177  1.00  0.00     0.001 A 
ENDBRANCH   2  25
TORSDOF 4
ENDMDL
MODEL 5
REMARK VINA RESULT:     -10.4      2.693      3.792
REMARK  4 active torsions:
REMARK  status: ('A' for Active; 'I' for Inactive)
REMARK    1  A    between atoms: C_2  and  C_3 
REMARK    2  A    between atoms: N_16  and  C_17 
REMARK    3  A    between atoms: C_17  and  C_18 
REMARK       I    between atoms: C_18  and  N_19 
REMARK    4  A    between atoms: N_19  and  C_20 
ROOT
HETATM    1  C   UNL     1      -2.698  -0.028 -31.222  1.00  0.00     0.054 C 
HETATM    2  C   UNL     1      -3.929   0.537 -31.935  1.00  0.00     0.140 A 
HETATM    3  N   UNL     1      -3.546   1.717 -32.681  1.00  0.00    -0.321 N 
HETATM    4  C   UNL     1      -4.130   2.865 -32.208  1.00  0.00     0.326 A 
HETATM    5  O   UNL     1      -3.924   3.970 -32.677  1.00  0.00    -0.247 OA
HETATM    6  N   UNL     1      -4.928   2.546 -31.157  1.00  0.00    -0.259 N 
HETATM    7  C   UNL     1      -4.874   1.205 -30.905  1.00  0.00     0.261 A 
HETATM    8  O   UNL     1      -5.474   0.640 -30.000  1.00  0.00    -0.270 OA
HETATM    9  H   UNL     1      -2.891   1.743 -33.450  1.00  0.00     0.165 HD
ENDROOT
BRANCH   6  10
HETATM   10  C   UNL     1      -5.695   3.516 -30.403  1.00  0.00     0.240 C 
BRANCH  10  11
HETATM   11  C   UNL     1      -7.109   3.677 -30.960  1.00  0.00     0.240 C 
HETATM   12  N   UNL     1      -7.206   3.495 -32.323  1.00  0.00    -0.324 N 
HETATM   13  H   UNL     1      -6.410   3.100 -32.826  1.00  0.00     0.169 HD
HETATM   14  O   UNL     1      -8.064   3.815 -30.196  1.00  0.00    -0.271 OA
BRANCH  12  15
HETATM   15  C   UNL     1      -8.347   3.659 -33.146  1.00  0.00     0.064 A 
HETATM   16  C   UNL     1      -9.195   2.544 -33.253  1.00  0.00     0.093 A 
HETATM   17  C   UNL     1     -10.342   2.648 -34.071  1.00  0.00    -0.005 A 
HETATM   18  N   UNL     1      -8.902   1.409 -32.577  1.00  0.00    -0.258 NA
HETATM   19  C   UNL     1     -11.191   1.537 -34.165  1.00  0.00     0.015 A 
HETATM   20  C   UNL     1     -10.614   3.838 -34.765  1.00  0.00     0.014 A 
HETATM   21  C   UNL     1     -10.890   0.374 -33.468  1.00  0.00     0.020 A 
HETATM   22  C   UNL     1      -9.743   0.359 -32.697  1.00  0.00     0.117 A 
HETATM   23  C   UNL     1      -9.754   4.926 -34.655  1.00  0.00     0.003 A 
HETATM   24  C   UNL     1      -8.622   4.838 -33.847  1.00  0.00     0.032 A 
ENDBRANCH  12  15
ENDBRANCH  10  11
ENDBRANCH   6  10
BRANCH   2  25
HETATM   25  C   UNL     1      -4.654  -0.505 -32.781  1.00  0.00    -0.020 A 
HETATM   26  C   UNL     1      -4.118  -1.783 -33.027  1.00  0.00     0.022 A 
HETATM   27  C   UNL     1      -4.804  -2.739 -33.801  1.00  0.00    -0.025 A 
HETATM   28  C   UNL     1      -6.061  -2.413 -34.353  1.00  0.00    -0.026 A 
HETATM   29  C   UNL     1      -4.263  -4.015 -34.037  1.00  0.00     0.012 A 
HETATM   30  C   UNL     1      -6.595  -1.141 -34.121  1.00  0.00     0.013 A 
HETATM   31  C   UNL     1      -6.744  -3.367 -35.123  1.00  0.00     0.012 A 
HETATM   32  C   UNL     1      -5.902  -0.203 -33.350  1.00  0.00     0.011 A 
HETATM   33  C   UNL     1      -6.196  -4.630 -35.345  1.00  0.00     0.001 A 
HETATM   34  C   UNL     1      -4.955  -4.954 -34.802  1.00  0.00     0.001 A 
ENDBRANCH   2  25
TORSDOF 4
ENDMDL
MODEL 6
REMARK VINA RESULT:     -10.2      1.605      2.347
REMARK  4 active torsions:
REMARK  status: ('A' for Active; 'I' for Inactive)
REMARK    1  A    between atoms: C_2  and  C_3 
REMARK    2  A    between atoms: N_16  and  C_17 
REMARK    3  A    between atoms: C_17  and  C_18 
REMARK       I    between atoms: C_18  and  N_19 
REMARK    4  A    between atoms: N_19  and  C_20 
ROOT
HETATM    1  C   UNL     1      -3.343   1.331 -31.345  1.00  0.00     0.054 C 
HETATM    2  C   UNL     1      -4.627   0.836 -32.014  1.00  0.00     0.140 A 
HETATM    3  N   UNL     1      -5.017   1.773 -33.047  1.00  0.00    -0.321 N 
HETATM    4  C   UNL     1      -6.203   2.407 -32.778  1.00  0.00     0.326 A 
HETATM    5  O   UNL     1      -6.699   3.250 -33.504  1.00  0.00    -0.247 OA
HETATM    6  N   UNL     1      -6.684   1.947 -31.594  1.00  0.00    -0.259 N 
HETATM    7  C   UNL     1      -5.829   1.029 -31.056  1.00  0.00     0.261 A 
HETATM    8  O   UNL     1      -5.995   0.465 -29.982  1.00  0.00    -0.270 OA
HETATM    9  H   UNL     1      -4.481   1.996 -33.875  1.00  0.00     0.165 HD
ENDROOT
BRANCH   6  10
HETATM   10  C   UNL     1      -7.918   2.405 -30.991  1.00  0.00     0.240 C 
BRANCH  10  11
HETATM   11  C   UNL     1      -9.143   1.804 -31.680  1.00  0.00     0.240 C 
HETATM   12  N   UNL     1      -9.846   2.694 -32.465  1.00  0.00    -0.324 N 
HETATM   13  H   UNL     1      -9.427   3.600 -32.681  1.00  0.00     0.169 HD
HETATM   14  O   UNL     1      -9.356   0.594 -31.620  1.00  0.00    -0.271 OA
BRANCH  12  15
HETATM   15  C   UNL     1     -11.062   2.474 -33.158  1.00  0.00     0.064 A 
HETATM   16  C   UNL     1     -12.208   3.058 -32.594  1.00  0.00     0.093 A 
HETATM   17  C   UNL     1     -13.449   2.861 -33.238  1.00  0.00    -0.005 A 
HETATM   18  N   UNL     1     -12.101   3.791 -31.461  1.00  0.00    -0.258 NA
HETATM   19  C   UNL     1     -14.588   3.455 -32.678  1.00  0.00     0.015 A 
HETATM   20  C   UNL     1     -13.527   2.090 -34.409  1.00  0.00     0.014 A 
HETATM   21  C   UNL     1     -14.475   4.209 -31.517  1.00  0.00     0.020 A 
HETATM   22  C   UNL     1     -13.222   4.343 -30.950  1.00  0.00     0.117 A 
HETATM   23  C   UNL     1     -12.381   1.510 -34.945  1.00  0.00     0.003 A 
HETATM   24  C   UNL     1     -11.150   1.702 -34.321  1.00  0.00     0.032 A 
ENDBRANCH  12  15
ENDBRANCH  10  11
ENDBRANCH   6  10
BRANCH   2  25
HETATM   25  C   UNL     1      -4.519  -0.602 -32.511  1.00  0.00    -0.020 A 
HETATM   26  C   UNL     1      -5.423  -1.149 -33.442  1.00  0.00     0.022 A 
HETATM   27  C   UNL     1      -5.303  -2.476 -33.900  1.00  0.00    -0.025 A 
HETATM   28  C   UNL     1      -4.255  -3.286 -33.414  1.00  0.00    -0.026 A 
HETATM   29  C   UNL     1      -6.206  -3.012 -34.833  1.00  0.00     0.012 A 
HETATM   30  C   UNL     1      -3.359  -2.752 -32.482  1.00  0.00     0.013 A 
HETATM   31  C   UNL     1      -4.136  -4.608 -33.873  1.00  0.00     0.012 A 
HETATM   32  C   UNL     1      -3.491  -1.433 -32.037  1.00  0.00     0.011 A 
HETATM   33  C   UNL     1      -5.039  -5.124 -34.802  1.00  0.00     0.001 A 
HETATM   34  C   UNL     1      -6.074  -4.327 -35.282  1.00  0.00     0.001 A 
ENDBRANCH   2  25
TORSDOF 4
ENDMDL
MODEL 7
REMARK VINA RESULT:     -10.2      2.085      2.435
REMARK  4 active torsions:
REMARK  status: ('A' for Active; 'I' for Inactive)
REMARK    1  A    between atoms: C_2  and  C_3 
REMARK    2  A    between atoms: N_16  and  C_17 
REMARK    3  A    between atoms: C_17  and  C_18 
REMARK       I    between atoms: C_18  and  N_19 
REMARK    4  A    between atoms: N_19  and  C_20 
ROOT
HETATM    1  C   UNL     1      -3.720   1.129 -31.830  1.00  0.00     0.054 C 
HETATM    2  C   UNL     1      -5.147   1.126 -32.385  1.00  0.00     0.140 A 
HETATM    3  N   UNL     1      -5.336   2.297 -33.216  1.00  0.00    -0.321 N 
HETATM    4  C   UNL     1      -6.259   3.174 -32.705  1.00  0.00     0.326 A 
HETATM    5  O   UNL     1      -6.550   4.233 -33.234  1.00  0.00    -0.247 OA
HETATM    6  N   UNL     1      -6.747   2.666 -31.545  1.00  0.00    -0.259 N 
HETATM    7  C   UNL     1      -6.152   1.472 -31.258  1.00  0.00     0.261 A 
HETATM    8  O   UNL     1      -6.380   0.798 -30.261  1.00  0.00    -0.270 OA
HETATM    9  H   UNL     1      -4.833   2.504 -34.068  1.00  0.00     0.165 HD
ENDROOT
BRANCH   6  10
HETATM   10  C   UNL     1      -7.737   3.333 -30.724  1.00  0.00     0.240 C 
BRANCH  10  11
HETATM   11  C   UNL     1      -9.160   3.026 -31.191  1.00  0.00     0.240 C 
HETATM   12  N   UNL     1      -9.238   2.494 -32.460  1.00  0.00    -0.324 N 
HETATM   13  H   UNL     1      -8.381   2.177 -32.916  1.00  0.00     0.169 HD
HETATM   14  O   UNL     1     -10.104   3.129 -30.409  1.00  0.00    -0.271 OA
BRANCH  12  15
HETATM   15  C   UNL     1     -10.402   2.184 -33.206  1.00  0.00     0.064 A 
HETATM   16  C   UNL     1     -10.962   3.241 -33.943  1.00  0.00     0.093 A 
HETATM   17  C   UNL     1     -12.130   2.991 -34.696  1.00  0.00    -0.005 A 
HETATM   18  N   UNL     1     -10.376   4.462 -33.919  1.00  0.00    -0.258 NA
HETATM   19  C   UNL     1     -12.677   4.046 -35.438  1.00  0.00     0.015 A 
HETATM   20  C   UNL     1     -12.716   1.715 -34.694  1.00  0.00     0.014 A 
HETATM   21  C   UNL     1     -12.074   5.296 -35.414  1.00  0.00     0.020 A 
HETATM   22  C   UNL     1     -10.937   5.453 -34.644  1.00  0.00     0.117 A 
HETATM   23  C   UNL     1     -12.152   0.685 -33.948  1.00  0.00     0.003 A 
HETATM   24  C   UNL     1     -10.997   0.918 -33.205  1.00  0.00     0.032 A 
ENDBRANCH  12  15
ENDBRANCH  10  11
ENDBRANCH   6  10
BRANCH   2  25
HETATM   25  C   UNL     1      -5.505  -0.179 -33.089  1.00  0.00    -0.020 A 
HETATM   26  C   UNL     1      -4.639  -1.288 -33.109  1.00  0.00     0.022 A 
HETATM   27  C   UNL     1      -4.988  -2.491 -33.754  1.00  0.00    -0.025 A 
HETATM   28  C   UNL     1      -6.237  -2.593 -34.403  1.00  0.00    -0.026 A 
HETATM   29  C   UNL     1      -4.120  -3.595 -33.764  1.00  0.00     0.012 A 
HETATM   30  C   UNL     1      -7.099  -1.491 -34.396  1.00  0.00     0.013 A 
HETATM   31  C   UNL     1      -6.585  -3.793 -35.043  1.00  0.00     0.012 A 
HETATM   32  C   UNL     1      -6.738  -0.304 -33.751  1.00  0.00     0.011 A 
HETATM   33  C   UNL     1      -5.712  -4.881 -35.042  1.00  0.00     0.001 A 
HETATM   34  C   UNL     1      -4.480  -4.783 -34.403  1.00  0.00     0.001 A 
ENDBRANCH   2  25
TORSDOF 4
ENDMDL
MODEL 8
REMARK VINA RESULT:     -10.1      2.805      6.741
REMARK  4 active torsions:
REMARK  status: ('A' for Active; 'I' for Inactive)
REMARK    1  A    between atoms: C_2  and  C_3 
REMARK    2  A    between atoms: N_16  and  C_17 
REMARK    3  A    between atoms: C_17  and  C_18 
REMARK       I    between atoms: C_18  and  N_19 
REMARK    4  A    between atoms: N_19  and  C_20 
ROOT
HETATM    1  C   UNL     1     -10.455  -0.060 -32.809  1.00  0.00     0.054 C 
HETATM    2  C   UNL     1      -9.193   0.764 -32.539  1.00  0.00     0.140 A 
HETATM    3  N   UNL     1      -9.251   1.296 -31.194  1.00  0.00    -0.321 N 
HETATM    4  C   UNL     1      -9.336   2.664 -31.161  1.00  0.00     0.326 A 
HETATM    5  O   UNL     1      -9.419   3.311 -30.131  1.00  0.00    -0.247 OA
HETATM    6  N   UNL     1      -9.327   3.132 -32.435  1.00  0.00    -0.259 N 
HETATM    7  C   UNL     1      -9.258   2.098 -33.323  1.00  0.00     0.261 A 
HETATM    8  O   UNL     1      -9.258   2.223 -34.542  1.00  0.00    -0.270 OA
HETATM    9  H   UNL     1      -9.270   0.749 -30.344  1.00  0.00     0.165 HD
ENDROOT
BRANCH   6  10
HETATM   10  C   UNL     1      -9.413   4.536 -32.780  1.00  0.00     0.240 C 
BRANCH  10  11
HETATM   11  C   UNL     1      -8.031   5.159 -32.970  1.00  0.00     0.240 C 
HETATM   12  N   UNL     1      -7.339   5.376 -31.797  1.00  0.00    -0.324 N 
HETATM   13  H   UNL     1      -7.689   4.959 -30.934  1.00  0.00     0.169 HD
HETATM   14  O   UNL     1      -7.566   5.302 -34.101  1.00  0.00    -0.271 OA
BRANCH  12  15
HETATM   15  C   UNL     1      -6.084   6.010 -31.629  1.00  0.00     0.064 A 
HETATM   16  C   UNL     1      -4.961   5.165 -31.630  1.00  0.00     0.093 A 
HETATM   17  C   UNL     1      -3.685   5.743 -31.454  1.00  0.00    -0.005 A 
HETATM   18  N   UNL     1      -5.123   3.832 -31.801  1.00  0.00    -0.258 NA
HETATM   19  C   UNL     1      -2.568   4.897 -31.468  1.00  0.00     0.015 A 
HETATM   20  C   UNL     1      -3.552   7.129 -31.272  1.00  0.00     0.014 A 
HETATM   21  C   UNL     1      -2.736   3.530 -31.646  1.00  0.00     0.020 A 
HETATM   22  C   UNL     1      -4.022   3.050 -31.804  1.00  0.00     0.117 A 
HETATM   23  C   UNL     1      -4.678   7.947 -31.262  1.00  0.00     0.003 A 
HETATM   24  C   UNL     1      -5.942   7.389 -31.440  1.00  0.00     0.032 A 
ENDBRANCH  12  15
ENDBRANCH  10  11
ENDBRANCH   6  10
BRANCH   2  25
HETATM   25  C   UNL     1      -7.910  -0.007 -32.831  1.00  0.00    -0.020 A 
HETATM   26  C   UNL     1      -7.879  -1.128 -33.683  1.00  0.00     0.022 A 
HETATM   27  C   UNL     1      -6.684  -1.823 -33.951  1.00  0.00    -0.025 A 
HETATM   28  C   UNL     1      -5.481  -1.394 -33.349  1.00  0.00    -0.026 A 
HETATM   29  C   UNL     1      -6.661  -2.937 -34.807  1.00  0.00     0.012 A 
HETATM   30  C   UNL     1      -5.506  -0.288 -32.494  1.00  0.00     0.013 A 
HETATM   31  C   UNL     1      -4.290  -2.087 -33.619  1.00  0.00     0.012 A 
HETATM   32  C   UNL     1      -6.701   0.392 -32.238  1.00  0.00     0.011 A 
HETATM   33  C   UNL     1      -4.284  -3.189 -34.474  1.00  0.00     0.001 A 
HETATM   34  C   UNL     1      -5.469  -3.614 -35.068  1.00  0.00     0.001 A 
ENDBRANCH   2  25
TORSDOF 4
ENDMDL
MODEL 9
REMARK VINA RESULT:     -10.1      1.474      2.478
REMARK  4 active torsions:
REMARK  status: ('A' for Active; 'I' for Inactive)
REMARK    1  A    between atoms: C_2  and  C_3 
REMARK    2  A    between atoms: N_16  and  C_17 
REMARK    3  A    between atoms: C_17  and  C_18 
REMARK       I    between atoms: C_18  and  N_19 
REMARK    4  A    between atoms: N_19  and  C_20 
ROOT
HETATM    1  C   UNL     1      -3.748   1.780 -32.456  1.00  0.00     0.054 C 
HETATM    2  C   UNL     1      -5.233   1.676 -32.814  1.00  0.00     0.140 A 
HETATM    3  N   UNL     1      -5.587   2.766 -33.699  1.00  0.00    -0.321 N 
HETATM    4  C   UNL     1      -6.477   3.646 -33.138  1.00  0.00     0.326 A 
HETATM    5  O   UNL     1      -6.886   4.645 -33.703  1.00  0.00    -0.247 OA
HETATM    6  N   UNL     1      -6.784   3.217 -31.887  1.00  0.00    -0.259 N 
HETATM    7  C   UNL     1      -6.098   2.074 -31.592  1.00  0.00     0.261 A 
HETATM    8  O   UNL     1      -6.161   1.478 -30.524  1.00  0.00    -0.270 OA
HETATM    9  H   UNL     1      -5.211   2.921 -34.624  1.00  0.00     0.165 HD
ENDROOT
BRANCH   6  10
HETATM   10  C   UNL     1      -7.690   3.911 -30.995  1.00  0.00     0.240 C 
BRANCH  10  11
HETATM   11  C   UNL     1      -9.085   3.286 -31.006  1.00  0.00     0.240 C 
HETATM   12  N   UNL     1     -10.038   4.035 -31.663  1.00  0.00    -0.324 N 
HETATM   13  H   UNL     1      -9.735   4.825 -32.236  1.00  0.00     0.169 HD
HETATM   14  O   UNL     1      -9.256   2.147 -30.575  1.00  0.00    -0.271 OA
BRANCH  12  15
HETATM   15  C   UNL     1     -11.426   3.777 -31.775  1.00  0.00     0.064 A 
HETATM   16  C   UNL     1     -11.823   3.007 -32.880  1.00  0.00     0.093 A 
HETATM   17  C   UNL     1     -13.197   2.729 -33.048  1.00  0.00    -0.005 A 
HETATM   18  N   UNL     1     -10.892   2.549 -33.751  1.00  0.00    -0.258 NA
HETATM   19  C   UNL     1     -13.586   1.950 -34.146  1.00  0.00     0.015 A 
HETATM   20  C   UNL     1     -14.138   3.225 -32.131  1.00  0.00     0.014 A 
HETATM   21  C   UNL     1     -12.630   1.480 -35.035  1.00  0.00     0.020 A 
HETATM   22  C   UNL     1     -11.308   1.805 -34.798  1.00  0.00     0.117 A 
HETATM   23  C   UNL     1     -13.725   3.997 -31.049  1.00  0.00     0.003 A 
HETATM   24  C   UNL     1     -12.371   4.273 -30.871  1.00  0.00     0.032 A 
ENDBRANCH  12  15
ENDBRANCH  10  11
ENDBRANCH   6  10
BRANCH   2  25
HETATM   25  C   UNL     1      -5.616   0.304 -33.360  1.00  0.00    -0.020 A 
HETATM   26  C   UNL     1      -4.726  -0.787 -33.353  1.00  0.00     0.022 A 
HETATM   27  C   UNL     1      -5.097  -2.051 -33.851  1.00  0.00    -0.025 A 
HETATM   28  C   UNL     1      -6.393  -2.236 -34.378  1.00  0.00    -0.026 A 
HETATM   29  C   UNL     1      -4.204  -3.135 -33.834  1.00  0.00     0.012 A 
HETATM   30  C   UNL     1      -7.280  -1.154 -34.398  1.00  0.00     0.013 A 
HETATM   31  C   UNL     1      -6.762  -3.497 -34.872  1.00  0.00     0.012 A 
HETATM   32  C   UNL     1      -6.896   0.095 -33.899  1.00  0.00     0.011 A 
HETATM   33  C   UNL     1      -5.865  -4.564 -34.846  1.00  0.00     0.001 A 
HETATM   34  C   UNL     1      -4.585  -4.384 -34.328  1.00  0.00     0.001 A 
ENDBRANCH   2  25
TORSDOF 4
ENDMDL
MODEL 10
REMARK VINA RESULT:     -10.1      5.103      8.426
REMARK  4 active torsions:
REMARK  status: ('A' for Active; 'I' for Inactive)
REMARK    1  A    between atoms: C_2  and  C_3 
REMARK    2  A    between atoms: N_16  and  C_17 
REMARK    3  A    between atoms: C_17  and  C_18 
REMARK       I    between atoms: C_18  and  N_19 
REMARK    4  A    between atoms: N_19  and  C_20 
ROOT
HETATM    1  C   UNL     1      -3.006   0.472 -31.203  1.00  0.00     0.054 C 
HETATM    2  C   UNL     1      -4.175   0.939 -32.075  1.00  0.00     0.140 A 
HETATM    3  N   UNL     1      -3.727   2.014 -32.935  1.00  0.00    -0.321 N 
HETATM    4  C   UNL     1      -4.335   3.212 -32.659  1.00  0.00     0.326 A 
HETATM    5  O   UNL     1      -4.085   4.248 -33.249  1.00  0.00    -0.247 OA
HETATM    6  N   UNL     1      -5.212   3.031 -31.639  1.00  0.00    -0.259 N 
HETATM    7  C   UNL     1      -5.189   1.734 -31.213  1.00  0.00     0.261 A 
HETATM    8  O   UNL     1      -5.860   1.289 -30.292  1.00  0.00    -0.270 OA
HETATM    9  H   UNL     1      -3.015   1.941 -33.649  1.00  0.00     0.165 HD
ENDROOT
BRANCH   6  10
HETATM   10  C   UNL     1      -6.026   4.088 -31.076  1.00  0.00     0.240 C 
BRANCH  10  11
HETATM   11  C   UNL     1      -5.236   4.949 -30.091  1.00  0.00     0.240 C 
HETATM   12  N   UNL     1      -4.386   5.857 -30.686  1.00  0.00    -0.324 N 
HETATM   13  H   UNL     1      -4.469   6.026 -31.690  1.00  0.00     0.169 HD
HETATM   14  O   UNL     1      -5.479   4.893 -28.886  1.00  0.00    -0.271 OA
BRANCH  12  15
HETATM   15  C   UNL     1      -3.464   6.730 -30.058  1.00  0.00     0.064 A 
HETATM   16  C   UNL     1      -2.108   6.507 -30.349  1.00  0.00     0.093 A 
HETATM   17  C   UNL     1      -1.144   7.340 -29.741  1.00  0.00    -0.005 A 
HETATM   18  N   UNL     1      -1.756   5.512 -31.197  1.00  0.00    -0.258 NA
HETATM   19  C   UNL     1       0.207   7.121 -30.043  1.00  0.00     0.015 A 
HETATM   20  C   UNL     1      -1.541   8.360 -28.861  1.00  0.00     0.014 A 
HETATM   21  C   UNL     1       0.564   6.101 -30.915  1.00  0.00     0.020 A 
HETATM   22  C   UNL     1      -0.444   5.330 -31.459  1.00  0.00     0.117 A 
HETATM   23  C   UNL     1      -2.889   8.557 -28.577  1.00  0.00     0.003 A 
HETATM   24  C   UNL     1      -3.850   7.743 -29.174  1.00  0.00     0.032 A 
ENDBRANCH  12  15
ENDBRANCH  10  11
ENDBRANCH   6  10
BRANCH   2  25
HETATM   25  C   UNL     1      -4.842  -0.204 -32.832  1.00  0.00    -0.020 A 
HETATM   26  C   UNL     1      -4.217  -1.451 -33.022  1.00  0.00     0.022 A 
HETATM   27  C   UNL     1      -4.850  -2.501 -33.714  1.00  0.00    -0.025 A 
HETATM   28  C   UNL     1      -6.145  -2.305 -34.239  1.00  0.00    -0.026 A 
HETATM   29  C   UNL     1      -4.220  -3.744 -33.894  1.00  0.00     0.012 A 
HETATM   30  C   UNL     1      -6.770  -1.065 -34.062  1.00  0.00     0.013 A 
HETATM   31  C   UNL     1      -6.777  -3.353 -34.926  1.00  0.00     0.012 A 
HETATM   32  C   UNL     1      -6.128  -0.032 -33.372  1.00  0.00     0.011 A 
HETATM   33  C   UNL     1      -6.139  -4.582 -35.094  1.00  0.00     0.001 A 
HETATM   34  C   UNL     1      -4.861  -4.778 -34.579  1.00  0.00     0.001 A 
ENDBRANCH   2  25
TORSDOF 4
ENDMDL
