MODEL 1
REMARK VINA RESULT:      -8.6      0.000      0.000
REMARK  6 active torsions:
REMARK  status: ('A' for Active; 'I' for Inactive)
REMARK    1  A    between atoms: O_2  and  C_3 
REMARK    2  A    between atoms: C_3  and  C_4 
REMARK    3  A    between atoms: C_4  and  N_5 
REMARK       I    between atoms: N_5  and  C_6 
REMARK    4  A    between atoms: C_6  and  C_7 
REMARK    5  A    between atoms: C_12  and  C_13 
REMARK    6  A    between atoms: C_22  and  C_23 
ROOT
HETATM    1  C   UNL     1      -4.672   4.278 -31.795  1.00  0.00     0.148 A 
HETATM    2  N   UNL     1      -5.403   3.505 -30.959  1.00  0.00    -0.165 NA
HETATM    3  N   UNL     1      -5.921   2.566 -31.769  1.00  0.00    -0.240 N 
HETATM    4  C   UNL     1      -5.617   2.742 -33.090  1.00  0.00     0.123 A 
HETATM    5  N   UNL     1      -6.112   1.935 -34.050  1.00  0.00    -0.366 N 
HETATM    6  C   UNL     1      -6.940   0.773 -33.749  1.00  0.00     0.118 C 
HETATM    7  C   UNL     1      -7.659   0.950 -32.398  1.00  0.00     0.066 C 
HETATM    8  C   UNL     1      -6.780   1.514 -31.266  1.00  0.00     0.221 C 
HETATM    9  C   UNL     1      -4.786   3.830 -33.140  1.00  0.00     0.088 A 
HETATM   10  H   UNL     1      -5.818   2.032 -35.021  1.00  0.00     0.161 HD
ENDROOT
BRANCH   1  11
HETATM   11  C   UNL     1      -3.880   5.424 -31.321  1.00  0.00     0.272 C 
HETATM   12  N   UNL     1      -2.635   5.076 -30.852  1.00  0.00    -0.354 N 
HETATM   13  H   UNL     1      -2.355   4.112 -31.020  1.00  0.00     0.162 HD
HETATM   14  O   UNL     1      -4.297   6.578 -31.356  1.00  0.00    -0.266 OA
BRANCH  12  15
HETATM   15  C   UNL     1      -1.610   6.055 -30.558  1.00  0.00     0.149 C 
BRANCH  15  16
HETATM   16  C   UNL     1      -0.420   5.925 -31.506  1.00  0.00     0.186 C 
BRANCH  16  17
HETATM   17  O   UNL     1       0.373   4.799 -31.113  1.00  0.00    -0.394 OA
HETATM   18  C   UNL     1       0.765   4.889 -29.749  1.00  0.00     0.201 C 
ENDBRANCH  16  17
ENDBRANCH  15  16
ENDBRANCH  12  15
ENDBRANCH   1  11
BRANCH   8  19
HETATM   19  C   UNL     1      -5.961   0.464 -30.549  1.00  0.00     0.409 C 
HETATM   20  F   UNL     1      -4.654   0.512 -30.894  1.00  0.00    -0.169 F 
HETATM   21  F   UNL     1      -6.007   0.678 -29.209  1.00  0.00    -0.169 F 
HETATM   22  F   UNL     1      -6.389  -0.795 -30.759  1.00  0.00    -0.169 F 
ENDBRANCH   8  19
BRANCH   6  23
HETATM   23  C   UNL     1      -6.189  -0.538 -33.917  1.00  0.00    -0.034 A 
HETATM   24  C   UNL     1      -6.812  -1.727 -34.340  1.00  0.00     0.034 A 
HETATM   25  C   UNL     1      -6.091  -2.923 -34.463  1.00  0.00     0.056 A 
HETATM   26 CL   UNL     1      -6.945  -4.325 -34.999  1.00  0.00    -0.083 Cl
HETATM   27  C   UNL     1      -4.730  -2.949 -34.153  1.00  0.00     0.055 A 
HETATM   28 CL   UNL     1      -3.776  -4.384 -34.268  1.00  0.00    -0.083 Cl
HETATM   29  C   UNL     1      -4.098  -1.780 -33.724  1.00  0.00     0.026 A 
HETATM   30  C   UNL     1      -4.819  -0.588 -33.608  1.00  0.00     0.011 A 
ENDBRANCH   6  23
TORSDOF 6
ENDMDL
MODEL 2
REMARK VINA RESULT:      -8.3      5.050      7.660
REMARK  6 active torsions:
REMARK  status: ('A' for Active; 'I' for Inactive)
REMARK    1  A    between atoms: O_2  and  C_3 
REMARK    2  A    between atoms: C_3  and  C_4 
REMARK    3  A    between atoms: C_4  and  N_5 
REMARK       I    between atoms: N_5  and  C_6 
REMARK    4  A    between atoms: C_6  and  C_7 
REMARK    5  A    between atoms: C_12  and  C_13 
REMARK    6  A    between atoms: C_22  and  C_23 
ROOT
HETATM    1  C   UNL     1      -6.708   0.197 -33.925  1.00  0.00     0.148 A 
HETATM    2  N   UNL     1      -6.786   1.097 -32.918  1.00  0.00    -0.165 NA
HETATM    3  N   UNL     1      -7.853   1.846 -33.246  1.00  0.00    -0.240 N 
HETATM    4  C   UNL     1      -8.416   1.516 -34.447  1.00  0.00     0.123 A 
HETATM    5  N   UNL     1      -9.449   2.210 -34.966  1.00  0.00    -0.366 N 
HETATM    6  C   UNL     1     -10.093   3.308 -34.255  1.00  0.00     0.118 C 
HETATM    7  C   UNL     1      -9.122   3.948 -33.243  1.00  0.00     0.066 C 
HETATM    8  C   UNL     1      -8.298   2.945 -32.414  1.00  0.00     0.221 C 
HETATM    9  C   UNL     1      -7.714   0.433 -34.904  1.00  0.00     0.088 A 
HETATM   10  H   UNL     1      -9.907   1.908 -35.825  1.00  0.00     0.161 HD
ENDROOT
BRANCH   1  11
HETATM   11  C   UNL     1      -5.693  -0.868 -33.956  1.00  0.00     0.272 C 
HETATM   12  N   UNL     1      -6.118  -2.015 -34.586  1.00  0.00    -0.354 N 
HETATM   13  H   UNL     1      -7.008  -1.944 -35.077  1.00  0.00     0.162 HD
HETATM   14  O   UNL     1      -4.574  -0.732 -33.471  1.00  0.00    -0.266 OA
BRANCH  12  15
HETATM   15  C   UNL     1      -5.217  -3.093 -34.935  1.00  0.00     0.149 C 
BRANCH  15  16
HETATM   16  C   UNL     1      -5.948  -4.430 -35.021  1.00  0.00     0.186 C 
BRANCH  16  17
HETATM   17  O   UNL     1      -5.091  -5.468 -34.534  1.00  0.00    -0.394 OA
HETATM   18  C   UNL     1      -3.963  -4.934 -33.852  1.00  0.00     0.201 C 
ENDBRANCH  16  17
ENDBRANCH  15  16
ENDBRANCH  12  15
ENDBRANCH   1  11
BRANCH   8  19
HETATM   19  C   UNL     1      -9.024   2.421 -31.195  1.00  0.00     0.409 C 
HETATM   20  F   UNL     1      -9.581   1.208 -31.414  1.00  0.00    -0.169 F 
HETATM   21  F   UNL     1      -8.147   2.255 -30.172  1.00  0.00    -0.169 F 
HETATM   22  F   UNL     1      -9.997   3.237 -30.749  1.00  0.00    -0.169 F 
ENDBRANCH   8  19
BRANCH   6  23
HETATM   23  C   UNL     1     -11.453   2.923 -33.695  1.00  0.00    -0.034 A 
HETATM   24  C   UNL     1     -12.008   1.639 -33.849  1.00  0.00     0.034 A 
HETATM   25  C   UNL     1     -13.274   1.327 -33.336  1.00  0.00     0.056 A 
HETATM   26 CL   UNL     1     -13.863  -0.280 -33.569  1.00  0.00    -0.083 Cl
HETATM   27  C   UNL     1     -14.014   2.305 -32.667  1.00  0.00     0.055 A 
HETATM   28 CL   UNL     1     -15.585   2.003 -32.018  1.00  0.00    -0.083 Cl
HETATM   29  C   UNL     1     -13.482   3.587 -32.513  1.00  0.00     0.026 A 
HETATM   30  C   UNL     1     -12.215   3.892 -33.021  1.00  0.00     0.011 A 
ENDBRANCH   6  23
TORSDOF 6
ENDMDL
MODEL 3
REMARK VINA RESULT:      -8.1      3.593      4.857
REMARK  6 active torsions:
REMARK  status: ('A' for Active; 'I' for Inactive)
REMARK    1  A    between atoms: O_2  and  C_3 
REMARK    2  A    between atoms: C_3  and  C_4 
REMARK    3  A    between atoms: C_4  and  N_5 
REMARK       I    between atoms: N_5  and  C_6 
REMARK    4  A    between atoms: C_6  and  C_7 
REMARK    5  A    between atoms: C_12  and  C_13 
REMARK    6  A    between atoms: C_22  and  C_23 
ROOT
HETATM    1  C   UNL     1      -4.234   3.117 -32.177  1.00  0.00     0.148 A 
HETATM    2  N   UNL     1      -4.486   1.860 -32.614  1.00  0.00    -0.165 NA
HETATM    3  N   UNL     1      -5.793   1.691 -32.353  1.00  0.00    -0.240 N 
HETATM    4  C   UNL     1      -6.373   2.747 -31.707  1.00  0.00     0.123 A 
HETATM    5  N   UNL     1      -7.660   2.718 -31.305  1.00  0.00    -0.366 N 
HETATM    6  C   UNL     1      -8.548   1.600 -31.595  1.00  0.00     0.118 C 
HETATM    7  C   UNL     1      -7.743   0.302 -31.806  1.00  0.00     0.066 C 
HETATM    8  C   UNL     1      -6.482   0.459 -32.677  1.00  0.00     0.221 C 
HETATM    9  C   UNL     1      -5.397   3.701 -31.600  1.00  0.00     0.088 A 
HETATM   10  H   UNL     1      -8.100   3.540 -30.892  1.00  0.00     0.161 HD
ENDROOT
BRANCH   1  11
HETATM   11  C   UNL     1      -2.913   3.749 -32.306  1.00  0.00     0.272 C 
HETATM   12  N   UNL     1      -2.705   4.346 -33.527  1.00  0.00    -0.354 N 
HETATM   13  H   UNL     1      -3.523   4.411 -34.130  1.00  0.00     0.162 HD
HETATM   14  O   UNL     1      -2.085   3.745 -31.400  1.00  0.00    -0.266 OA
BRANCH  12  15
HETATM   15  C   UNL     1      -1.580   5.220 -33.787  1.00  0.00     0.149 C 
BRANCH  15  16
HETATM   16  C   UNL     1      -2.036   6.596 -34.265  1.00  0.00     0.186 C 
BRANCH  16  17
HETATM   17  O   UNL     1      -1.181   7.597 -33.704  1.00  0.00    -0.394 OA
HETATM   18  C   UNL     1      -1.210   7.568 -32.282  1.00  0.00     0.201 C 
ENDBRANCH  16  17
ENDBRANCH  15  16
ENDBRANCH  12  15
ENDBRANCH   1  11
BRANCH   8  19
HETATM   19  C   UNL     1      -6.753   0.382 -34.162  1.00  0.00     0.409 C 
HETATM   20  F   UNL     1      -5.834  -0.368 -34.812  1.00  0.00    -0.169 F 
HETATM   21  F   UNL     1      -7.953  -0.217 -34.381  1.00  0.00    -0.169 F 
HETATM   22  F   UNL     1      -6.798   1.582 -34.770  1.00  0.00    -0.169 F 
ENDBRANCH   8  19
BRANCH   6  23
HETATM   23  C   UNL     1      -9.556   1.922 -32.687  1.00  0.00    -0.034 A 
HETATM   24  C   UNL     1     -10.686   1.124 -32.945  1.00  0.00     0.034 A 
HETATM   25  C   UNL     1     -11.582   1.441 -33.975  1.00  0.00     0.056 A 
HETATM   26 CL   UNL     1     -12.944   0.403 -34.203  1.00  0.00    -0.083 Cl
HETATM   27  C   UNL     1     -11.353   2.562 -34.774  1.00  0.00     0.055 A 
HETATM   28 CL   UNL     1     -12.403   3.013 -36.069  1.00  0.00    -0.083 Cl
HETATM   29  C   UNL     1     -10.232   3.360 -34.538  1.00  0.00     0.026 A 
HETATM   30  C   UNL     1      -9.343   3.044 -33.506  1.00  0.00     0.011 A 
ENDBRANCH   6  23
TORSDOF 6
ENDMDL
MODEL 4
REMARK VINA RESULT:      -7.9      1.529      2.132
REMARK  6 active torsions:
REMARK  status: ('A' for Active; 'I' for Inactive)
REMARK    1  A    between atoms: O_2  and  C_3 
REMARK    2  A    between atoms: C_3  and  C_4 
REMARK    3  A    between atoms: C_4  and  N_5 
REMARK       I    between atoms: N_5  and  C_6 
REMARK    4  A    between atoms: C_6  and  C_7 
REMARK    5  A    between atoms: C_12  and  C_13 
REMARK    6  A    between atoms: C_22  and  C_23 
ROOT
HETATM    1  C   UNL     1      -4.758   4.297 -31.733  1.00  0.00     0.148 A 
HETATM    2  N   UNL     1      -5.480   3.510 -30.901  1.00  0.00    -0.165 NA
HETATM    3  N   UNL     1      -5.979   2.564 -31.715  1.00  0.00    -0.240 N 
HETATM    4  C   UNL     1      -5.671   2.747 -33.034  1.00  0.00     0.123 A 
HETATM    5  N   UNL     1      -6.149   1.932 -33.997  1.00  0.00    -0.366 N 
HETATM    6  C   UNL     1      -6.959   0.757 -33.701  1.00  0.00     0.118 C 
HETATM    7  C   UNL     1      -7.688   0.920 -32.353  1.00  0.00     0.066 C 
HETATM    8  C   UNL     1      -6.823   1.498 -31.217  1.00  0.00     0.221 C 
HETATM    9  C   UNL     1      -4.858   3.847 -33.080  1.00  0.00     0.088 A 
HETATM   10  H   UNL     1      -5.852   2.035 -34.967  1.00  0.00     0.161 HD
ENDROOT
BRANCH   1  11
HETATM   11  C   UNL     1      -3.987   5.455 -31.255  1.00  0.00     0.272 C 
HETATM   12  N   UNL     1      -4.770   6.525 -30.892  1.00  0.00    -0.354 N 
HETATM   13  H   UNL     1      -5.772   6.345 -30.854  1.00  0.00     0.162 HD
HETATM   14  O   UNL     1      -2.762   5.452 -31.183  1.00  0.00    -0.266 OA
BRANCH  12  15
HETATM   15  C   UNL     1      -4.244   7.672 -30.181  1.00  0.00     0.149 C 
BRANCH  15  16
HETATM   16  C   UNL     1      -4.595   8.979 -30.887  1.00  0.00     0.186 C 
BRANCH  16  17
HETATM   17  O   UNL     1      -3.400   9.564 -31.417  1.00  0.00    -0.394 OA
HETATM   18  C   UNL     1      -2.264   9.229 -30.630  1.00  0.00     0.201 C 
ENDBRANCH  16  17
ENDBRANCH  15  16
ENDBRANCH  12  15
ENDBRANCH   1  11
BRANCH   8  19
HETATM   19  C   UNL     1      -5.991   0.460 -30.497  1.00  0.00     0.409 C 
HETATM   20  F   UNL     1      -6.038   0.610 -29.154  1.00  0.00    -0.169 F 
HETATM   21  F   UNL     1      -6.477  -0.782 -30.756  1.00  0.00    -0.169 F 
HETATM   22  F   UNL     1      -4.694   0.457 -30.858  1.00  0.00    -0.169 F 
ENDBRANCH   8  19
BRANCH   6  23
HETATM   23  C   UNL     1      -6.186  -0.542 -33.867  1.00  0.00    -0.034 A 
HETATM   24  C   UNL     1      -6.798  -1.755 -34.235  1.00  0.00     0.034 A 
HETATM   25  C   UNL     1      -6.056  -2.937 -34.357  1.00  0.00     0.056 A 
HETATM   26 CL   UNL     1      -6.899  -4.371 -34.824  1.00  0.00    -0.083 Cl
HETATM   27  C   UNL     1      -4.683  -2.926 -34.101  1.00  0.00     0.055 A 
HETATM   28 CL   UNL     1      -3.703  -4.343 -34.219  1.00  0.00    -0.083 Cl
HETATM   29  C   UNL     1      -4.061  -1.733 -33.726  1.00  0.00     0.026 A 
HETATM   30  C   UNL     1      -4.805  -0.554 -33.611  1.00  0.00     0.011 A 
ENDBRANCH   6  23
TORSDOF 6
ENDMDL
MODEL 5
REMARK VINA RESULT:      -7.8      3.534      4.695
REMARK  6 active torsions:
REMARK  status: ('A' for Active; 'I' for Inactive)
REMARK    1  A    between atoms: O_2  and  C_3 
REMARK    2  A    between atoms: C_3  and  C_4 
REMARK    3  A    between atoms: C_4  and  N_5 
REMARK       I    between atoms: N_5  and  C_6 
REMARK    4  A    between atoms: C_6  and  C_7 
REMARK    5  A    between atoms: C_12  and  C_13 
REMARK    6  A    between atoms: C_22  and  C_23 
ROOT
HETATM    1  C   UNL     1      -4.275   3.608 -31.796  1.00  0.00     0.148 A 
HETATM    2  N   UNL     1      -4.289   2.316 -32.199  1.00  0.00    -0.165 NA
HETATM    3  N   UNL     1      -5.549   1.920 -31.950  1.00  0.00    -0.240 N 
HETATM    4  C   UNL     1      -6.321   2.872 -31.343  1.00  0.00     0.123 A 
HETATM    5  N   UNL     1      -7.589   2.622 -30.957  1.00  0.00    -0.366 N 
HETATM    6  C   UNL     1      -8.256   1.354 -31.225  1.00  0.00     0.118 C 
HETATM    7  C   UNL     1      -7.227   0.218 -31.387  1.00  0.00     0.066 C 
HETATM    8  C   UNL     1      -5.999   0.576 -32.245  1.00  0.00     0.221 C 
HETATM    9  C   UNL     1      -5.534   3.989 -31.252  1.00  0.00     0.088 A 
HETATM   10  H   UNL     1      -8.177   3.362 -30.575  1.00  0.00     0.161 HD
ENDROOT
BRANCH   1  11
HETATM   11  C   UNL     1      -3.087   4.464 -31.927  1.00  0.00     0.272 C 
HETATM   12  N   UNL     1      -2.487   4.388 -33.163  1.00  0.00    -0.354 N 
HETATM   13  H   UNL     1      -3.007   3.878 -33.874  1.00  0.00     0.162 HD
HETATM   14  O   UNL     1      -2.683   5.181 -31.017  1.00  0.00    -0.266 OA
BRANCH  12  15
HETATM   15  C   UNL     1      -1.454   5.310 -33.587  1.00  0.00     0.149 C 
BRANCH  15  16
HETATM   16  C   UNL     1      -2.041   6.511 -34.323  1.00  0.00     0.186 C 
BRANCH  16  17
HETATM   17  O   UNL     1      -1.404   7.706 -33.858  1.00  0.00    -0.394 OA
HETATM   18  C   UNL     1      -1.574   7.875 -32.456  1.00  0.00     0.201 C 
ENDBRANCH  16  17
ENDBRANCH  15  16
ENDBRANCH  12  15
ENDBRANCH   1  11
BRANCH   8  19
HETATM   19  C   UNL     1      -6.225   0.411 -33.731  1.00  0.00     0.409 C 
HETATM   20  F   UNL     1      -6.360   1.600 -34.362  1.00  0.00    -0.169 F 
HETATM   21  F   UNL     1      -5.151  -0.198 -34.297  1.00  0.00    -0.169 F 
HETATM   22  F   UNL     1      -7.304  -0.333 -34.038  1.00  0.00    -0.169 F 
ENDBRANCH   8  19
BRANCH   6  23
HETATM   23  C   UNL     1      -9.285   1.460 -32.339  1.00  0.00    -0.034 A 
HETATM   24  C   UNL     1      -9.446   2.616 -33.125  1.00  0.00     0.034 A 
HETATM   25  C   UNL     1     -10.420   2.684 -34.130  1.00  0.00     0.056 A 
HETATM   26 CL   UNL     1     -10.530   4.145 -35.045  1.00  0.00    -0.083 Cl
HETATM   27  C   UNL     1     -11.261   1.593 -34.357  1.00  0.00     0.055 A 
HETATM   28 CL   UNL     1     -12.492   1.604 -35.568  1.00  0.00    -0.083 Cl
HETATM   29  C   UNL     1     -11.121   0.441 -33.582  1.00  0.00     0.026 A 
HETATM   30  C   UNL     1     -10.143   0.375 -32.584  1.00  0.00     0.011 A 
ENDBRANCH   6  23
TORSDOF 6
ENDMDL
MODEL 6
REMARK VINA RESULT:      -7.8      3.199      4.362
REMARK  6 active torsions:
REMARK  status: ('A' for Active; 'I' for Inactive)
REMARK    1  A    between atoms: O_2  and  C_3 
REMARK    2  A    between atoms: C_3  and  C_4 
REMARK    3  A    between atoms: C_4  and  N_5 
REMARK       I    between atoms: N_5  and  C_6 
REMARK    4  A    between atoms: C_6  and  C_7 
REMARK    5  A    between atoms: C_12  and  C_13 
REMARK    6  A    between atoms: C_22  and  C_23 
ROOT
HETATM    1  C   UNL     1      -3.472   3.473 -31.784  1.00  0.00     0.148 A 
HETATM    2  N   UNL     1      -3.555   2.145 -32.035  1.00  0.00    -0.165 NA
HETATM    3  N   UNL     1      -4.822   1.840 -31.708  1.00  0.00    -0.240 N 
HETATM    4  C   UNL     1      -5.532   2.889 -31.194  1.00  0.00     0.123 A 
HETATM    5  N   UNL     1      -6.796   2.745 -30.747  1.00  0.00    -0.366 N 
HETATM    6  C   UNL     1      -7.526   1.487 -30.849  1.00  0.00     0.118 C 
HETATM    7  C   UNL     1      -6.553   0.293 -30.908  1.00  0.00     0.066 C 
HETATM    8  C   UNL     1      -5.339   0.493 -31.835  1.00  0.00     0.221 C 
HETATM    9  C   UNL     1      -4.695   3.971 -31.253  1.00  0.00     0.088 A 
HETATM   10  H   UNL     1      -7.338   3.550 -30.436  1.00  0.00     0.161 HD
ENDROOT
BRANCH   1  11
HETATM   11  C   UNL     1      -2.252   4.252 -32.045  1.00  0.00     0.272 C 
HETATM   12  N   UNL     1      -1.619   4.682 -30.903  1.00  0.00    -0.354 N 
HETATM   13  H   UNL     1      -1.974   4.296 -30.030  1.00  0.00     0.162 HD
HETATM   14  O   UNL     1      -1.843   4.483 -33.179  1.00  0.00    -0.266 OA
BRANCH  12  15
HETATM   15  C   UNL     1      -0.291   5.259 -30.916  1.00  0.00     0.149 C 
BRANCH  15  16
HETATM   16  C   UNL     1      -0.299   6.701 -30.416  1.00  0.00     0.186 C 
BRANCH  16  17
HETATM   17  O   UNL     1       0.575   6.813 -29.288  1.00  0.00    -0.394 OA
HETATM   18  C   UNL     1       0.303   7.986 -28.532  1.00  0.00     0.201 C 
ENDBRANCH  16  17
ENDBRANCH  15  16
ENDBRANCH  12  15
ENDBRANCH   1  11
BRANCH   8  19
HETATM   19  C   UNL     1      -5.621   0.172 -33.285  1.00  0.00     0.409 C 
HETATM   20  F   UNL     1      -6.639  -0.708 -33.425  1.00  0.00    -0.169 F 
HETATM   21  F   UNL     1      -6.002   1.298 -33.942  1.00  0.00    -0.169 F 
HETATM   22  F   UNL     1      -4.561  -0.328 -33.948  1.00  0.00    -0.169 F 
ENDBRANCH   8  19
BRANCH   6  23
HETATM   23  C   UNL     1      -8.585   1.514 -31.939  1.00  0.00    -0.034 A 
HETATM   24  C   UNL     1      -8.837   2.648 -32.734  1.00  0.00     0.034 A 
HETATM   25  C   UNL     1      -9.836   2.642 -33.716  1.00  0.00     0.056 A 
HETATM   26 CL   UNL     1     -10.059   4.080 -34.646  1.00  0.00    -0.083 Cl
HETATM   27  C   UNL     1     -10.612   1.497 -33.911  1.00  0.00     0.055 A 
HETATM   28 CL   UNL     1     -11.870   1.415 -35.091  1.00  0.00    -0.083 Cl
HETATM   29  C   UNL     1     -10.382   0.366 -33.125  1.00  0.00     0.026 A 
HETATM   30  C   UNL     1      -9.379   0.374 -32.150  1.00  0.00     0.011 A 
ENDBRANCH   6  23
TORSDOF 6
ENDMDL
MODEL 7
REMARK VINA RESULT:      -7.8      4.784      6.898
REMARK  6 active torsions:
REMARK  status: ('A' for Active; 'I' for Inactive)
REMARK    1  A    between atoms: O_2  and  C_3 
REMARK    2  A    between atoms: C_3  and  C_4 
REMARK    3  A    between atoms: C_4  and  N_5 
REMARK       I    between atoms: N_5  and  C_6 
REMARK    4  A    between atoms: C_6  and  C_7 
REMARK    5  A    between atoms: C_12  and  C_13 
REMARK    6  A    between atoms: C_22  and  C_23 
ROOT
HETATM    1  C   UNL     1     -10.911   2.845 -34.464  1.00  0.00     0.148 A 
HETATM    2  N   UNL     1      -9.768   3.483 -34.118  1.00  0.00    -0.165 NA
HETATM    3  N   UNL     1      -9.108   2.572 -33.383  1.00  0.00    -0.240 N 
HETATM    4  C   UNL     1      -9.802   1.412 -33.182  1.00  0.00     0.123 A 
HETATM    5  N   UNL     1      -9.320   0.418 -32.408  1.00  0.00    -0.366 N 
HETATM    6  C   UNL     1      -7.998   0.470 -31.795  1.00  0.00     0.118 C 
HETATM    7  C   UNL     1      -7.541   1.930 -31.605  1.00  0.00     0.066 C 
HETATM    8  C   UNL     1      -7.808   2.853 -32.809  1.00  0.00     0.221 C 
HETATM    9  C   UNL     1     -10.965   1.544 -33.891  1.00  0.00     0.088 A 
HETATM   10  H   UNL     1      -9.813  -0.471 -32.327  1.00  0.00     0.161 HD
ENDROOT
BRANCH   1  11
HETATM   11  C   UNL     1     -11.932   3.463 -35.324  1.00  0.00     0.272 C 
HETATM   12  N   UNL     1     -12.273   4.740 -34.942  1.00  0.00    -0.354 N 
HETATM   13  H   UNL     1     -11.687   5.155 -34.220  1.00  0.00     0.162 HD
HETATM   14  O   UNL     1     -12.419   2.889 -36.292  1.00  0.00    -0.266 OA
BRANCH  12  15
HETATM   15  C   UNL     1     -13.075   5.614 -35.772  1.00  0.00     0.149 C 
BRANCH  15  16
HETATM   16  C   UNL     1     -12.755   7.084 -35.514  1.00  0.00     0.186 C 
BRANCH  16  17
HETATM   17  O   UNL     1     -11.466   7.388 -36.058  1.00  0.00    -0.394 OA
HETATM   18  C   UNL     1     -11.257   8.792 -36.146  1.00  0.00     0.201 C 
ENDBRANCH  16  17
ENDBRANCH  15  16
ENDBRANCH  12  15
ENDBRANCH   1  11
BRANCH   8  19
HETATM   19  C   UNL     1      -6.737   2.788 -33.875  1.00  0.00     0.409 C 
HETATM   20  F   UNL     1      -6.523   3.991 -34.457  1.00  0.00    -0.169 F 
HETATM   21  F   UNL     1      -5.554   2.421 -33.319  1.00  0.00    -0.169 F 
HETATM   22  F   UNL     1      -6.999   1.905 -34.857  1.00  0.00    -0.169 F 
ENDBRANCH   8  19
BRANCH   6  23
HETATM   23  C   UNL     1      -6.996  -0.438 -32.490  1.00  0.00    -0.034 A 
HETATM   24  C   UNL     1      -5.684  -0.633 -32.018  1.00  0.00     0.034 A 
HETATM   25  C   UNL     1      -4.782  -1.462 -32.696  1.00  0.00     0.056 A 
HETATM   26 CL   UNL     1      -3.198  -1.642 -32.030  1.00  0.00    -0.083 Cl
HETATM   27  C   UNL     1      -5.176  -2.104 -33.872  1.00  0.00     0.055 A 
HETATM   28 CL   UNL     1      -4.119  -3.131 -34.772  1.00  0.00    -0.083 Cl
HETATM   29  C   UNL     1      -6.471  -1.915 -34.360  1.00  0.00     0.026 A 
HETATM   30  C   UNL     1      -7.371  -1.092 -33.675  1.00  0.00     0.011 A 
ENDBRANCH   6  23
TORSDOF 6
ENDMDL
MODEL 8
REMARK VINA RESULT:      -7.8      4.086      5.471
REMARK  6 active torsions:
REMARK  status: ('A' for Active; 'I' for Inactive)
REMARK    1  A    between atoms: O_2  and  C_3 
REMARK    2  A    between atoms: C_3  and  C_4 
REMARK    3  A    between atoms: C_4  and  N_5 
REMARK       I    between atoms: N_5  and  C_6 
REMARK    4  A    between atoms: C_6  and  C_7 
REMARK    5  A    between atoms: C_12  and  C_13 
REMARK    6  A    between atoms: C_22  and  C_23 
ROOT
HETATM    1  C   UNL     1      -4.916   1.989 -31.725  1.00  0.00     0.148 A 
HETATM    2  N   UNL     1      -5.202   0.955 -32.550  1.00  0.00    -0.165 NA
HETATM    3  N   UNL     1      -6.545   0.891 -32.524  1.00  0.00    -0.240 N 
HETATM    4  C   UNL     1      -7.127   1.785 -31.669  1.00  0.00     0.123 A 
HETATM    5  N   UNL     1      -8.460   1.812 -31.464  1.00  0.00    -0.366 N 
HETATM    6  C   UNL     1      -9.383   0.950 -32.191  1.00  0.00     0.118 C 
HETATM    7  C   UNL     1      -8.671  -0.327 -32.679  1.00  0.00     0.066 C 
HETATM    8  C   UNL     1      -7.276  -0.095 -33.291  1.00  0.00     0.221 C 
HETATM    9  C   UNL     1      -6.101   2.531 -31.153  1.00  0.00     0.088 A 
HETATM   10  H   UNL     1      -8.887   2.531 -30.882  1.00  0.00     0.161 HD
ENDROOT
BRANCH   1  11
HETATM   11  C   UNL     1      -3.541   2.451 -31.485  1.00  0.00     0.272 C 
HETATM   12  N   UNL     1      -3.358   3.790 -31.742  1.00  0.00    -0.354 N 
HETATM   13  H   UNL     1      -4.207   4.325 -31.919  1.00  0.00     0.162 HD
HETATM   14  O   UNL     1      -2.651   1.707 -31.085  1.00  0.00    -0.266 OA
BRANCH  12  15
HETATM   15  C   UNL     1      -2.158   4.502 -31.356  1.00  0.00     0.149 C 
BRANCH  15  16
HETATM   16  C   UNL     1      -1.363   4.965 -32.574  1.00  0.00     0.186 C 
BRANCH  16  17
HETATM   17  O   UNL     1      -2.266   5.227 -33.654  1.00  0.00    -0.394 OA
HETATM   18  C   UNL     1      -1.599   5.193 -34.909  1.00  0.00     0.201 C 
ENDBRANCH  16  17
ENDBRANCH  15  16
ENDBRANCH  12  15
ENDBRANCH   1  11
BRANCH   8  19
HETATM   19  C   UNL     1      -7.309   0.293 -34.752  1.00  0.00     0.409 C 
HETATM   20  F   UNL     1      -7.044   1.606 -34.938  1.00  0.00    -0.169 F 
HETATM   21  F   UNL     1      -6.349  -0.386 -35.432  1.00  0.00    -0.169 F 
HETATM   22  F   UNL     1      -8.481   0.028 -35.359  1.00  0.00    -0.169 F 
ENDBRANCH   8  19
BRANCH   6  23
HETATM   23  C   UNL     1     -10.168   1.701 -33.255  1.00  0.00    -0.034 A 
HETATM   24  C   UNL     1      -9.807   2.983 -33.710  1.00  0.00     0.034 A 
HETATM   25  C   UNL     1     -10.567   3.654 -34.677  1.00  0.00     0.056 A 
HETATM   26 CL   UNL     1     -10.034   5.219 -35.176  1.00  0.00    -0.083 Cl
HETATM   27  C   UNL     1     -11.715   3.052 -35.199  1.00  0.00     0.055 A 
HETATM   28 CL   UNL     1     -12.710   3.818 -36.384  1.00  0.00    -0.083 Cl
HETATM   29  C   UNL     1     -12.093   1.784 -34.752  1.00  0.00     0.026 A 
HETATM   30  C   UNL     1     -11.327   1.116 -33.791  1.00  0.00     0.011 A 
ENDBRANCH   6  23
TORSDOF 6
ENDMDL
MODEL 9
REMARK VINA RESULT:      -7.7      0.910      1.645
REMARK  6 active torsions:
REMARK  status: ('A' for Active; 'I' for Inactive)
REMARK    1  A    between atoms: O_2  and  C_3 
REMARK    2  A    between atoms: C_3  and  C_4 
REMARK    3  A    between atoms: C_4  and  N_5 
REMARK       I    between atoms: N_5  and  C_6 
REMARK    4  A    between atoms: C_6  and  C_7 
REMARK    5  A    between atoms: C_12  and  C_13 
REMARK    6  A    between atoms: C_22  and  C_23 
ROOT
HETATM    1  C   UNL     1      -4.178   4.187 -31.438  1.00  0.00     0.148 A 
HETATM    2  N   UNL     1      -5.041   3.518 -30.639  1.00  0.00    -0.165 NA
HETATM    3  N   UNL     1      -5.695   2.708 -31.489  1.00  0.00    -0.240 N 
HETATM    4  C   UNL     1      -5.343   2.876 -32.799  1.00  0.00     0.123 A 
HETATM    5  N   UNL     1      -5.950   2.196 -33.793  1.00  0.00    -0.366 N 
HETATM    6  C   UNL     1      -6.964   1.179 -33.544  1.00  0.00     0.118 C 
HETATM    7  C   UNL     1      -7.667   1.427 -32.195  1.00  0.00     0.066 C 
HETATM    8  C   UNL     1      -6.725   1.798 -31.034  1.00  0.00     0.221 C 
HETATM    9  C   UNL     1      -4.342   3.810 -32.800  1.00  0.00     0.088 A 
HETATM   10  H   UNL     1      -5.627   2.276 -34.757  1.00  0.00     0.161 HD
ENDROOT
BRANCH   1  11
HETATM   11  C   UNL     1      -3.214   5.168 -30.915  1.00  0.00     0.272 C 
HETATM   12  N   UNL     1      -1.902   4.788 -31.073  1.00  0.00    -0.354 N 
HETATM   13  H   UNL     1      -1.748   3.965 -31.653  1.00  0.00     0.162 HD
HETATM   14  O   UNL     1      -3.559   6.225 -30.396  1.00  0.00    -0.266 OA
BRANCH  12  15
HETATM   15  C   UNL     1      -0.795   5.693 -30.846  1.00  0.00     0.149 C 
BRANCH  15  16
HETATM   16  C   UNL     1       0.537   4.948 -30.787  1.00  0.00     0.186 C 
BRANCH  16  17
HETATM   17  O   UNL     1       0.907   4.753 -29.418  1.00  0.00    -0.394 OA
HETATM   18  C   UNL     1       0.475   5.836 -28.602  1.00  0.00     0.201 C 
ENDBRANCH  16  17
ENDBRANCH  15  16
ENDBRANCH  12  15
ENDBRANCH   1  11
BRANCH   8  19
HETATM   19  C   UNL     1      -6.105   0.601 -30.347  1.00  0.00     0.409 C 
HETATM   20  F   UNL     1      -6.060   0.750 -29.004  1.00  0.00    -0.169 F 
HETATM   21  F   UNL     1      -6.858  -0.506 -30.580  1.00  0.00    -0.169 F 
HETATM   22  F   UNL     1      -4.857   0.321 -30.765  1.00  0.00    -0.169 F 
ENDBRANCH   8  19
BRANCH   6  23
HETATM   23  C   UNL     1      -6.439  -0.232 -33.752  1.00  0.00    -0.034 A 
HETATM   24  C   UNL     1      -5.190  -0.663 -33.267  1.00  0.00     0.034 A 
HETATM   25  C   UNL     1      -4.731  -1.967 -33.496  1.00  0.00     0.056 A 
HETATM   26 CL   UNL     1      -3.188  -2.401 -32.850  1.00  0.00    -0.083 Cl
HETATM   27  C   UNL     1      -5.514  -2.861 -34.229  1.00  0.00     0.055 A 
HETATM   28 CL   UNL     1      -5.012  -4.480 -34.563  1.00  0.00    -0.083 Cl
HETATM   29  C   UNL     1      -6.752  -2.448 -34.725  1.00  0.00     0.026 A 
HETATM   30  C   UNL     1      -7.209  -1.148 -34.489  1.00  0.00     0.011 A 
ENDBRANCH   6  23
TORSDOF 6
ENDMDL
MODEL 10
REMARK VINA RESULT:      -7.5      5.045      8.095
REMARK  6 active torsions:
REMARK  status: ('A' for Active; 'I' for Inactive)
REMARK    1  A    between atoms: O_2  and  C_3 
REMARK    2  A    between atoms: C_3  and  C_4 
REMARK    3  A    between atoms: C_4  and  N_5 
REMARK       I    between atoms: N_5  and  C_6 
REMARK    4  A    between atoms: C_6  and  C_7 
REMARK    5  A    between atoms: C_12  and  C_13 
REMARK    6  A    between atoms: C_22  and  C_23 
ROOT
HETATM    1  C   UNL     1      -9.167   1.036 -33.223  1.00  0.00     0.148 A 
HETATM    2  N   UNL     1      -8.846   1.243 -31.925  1.00  0.00    -0.165 NA
HETATM    3  N   UNL     1      -7.508   1.367 -31.946  1.00  0.00    -0.240 N 
HETATM    4  C   UNL     1      -6.952   1.179 -33.181  1.00  0.00     0.123 A 
HETATM    5  N   UNL     1      -5.617   1.196 -33.372  1.00  0.00    -0.366 N 
HETATM    6  C   UNL     1      -4.674   1.494 -32.301  1.00  0.00     0.118 C 
HETATM    7  C   UNL     1      -5.285   1.157 -30.926  1.00  0.00     0.066 C 
HETATM    8  C   UNL     1      -6.745   1.609 -30.739  1.00  0.00     0.221 C 
HETATM    9  C   UNL     1      -8.002   0.987 -34.038  1.00  0.00     0.088 A 
HETATM   10  H   UNL     1      -5.220   1.129 -34.309  1.00  0.00     0.161 HD
ENDROOT
BRANCH   1  11
HETATM   11  C   UNL     1     -10.558   0.887 -33.679  1.00  0.00     0.272 C 
HETATM   12  N   UNL     1     -10.902   1.754 -34.689  1.00  0.00    -0.354 N 
HETATM   13  H   UNL     1     -10.132   2.282 -35.097  1.00  0.00     0.162 HD
HETATM   14  O   UNL     1     -11.327   0.057 -33.203  1.00  0.00    -0.266 OA
BRANCH  12  15
HETATM   15  C   UNL     1     -12.132   1.627 -35.442  1.00  0.00     0.149 C 
BRANCH  15  16
HETATM   16  C   UNL     1     -13.311   2.252 -34.701  1.00  0.00     0.186 C 
BRANCH  16  17
HETATM   17  O   UNL     1     -14.393   1.315 -34.662  1.00  0.00    -0.394 OA
HETATM   18  C   UNL     1     -15.018   1.295 -33.384  1.00  0.00     0.201 C 
ENDBRANCH  16  17
ENDBRANCH  15  16
ENDBRANCH  12  15
ENDBRANCH   1  11
BRANCH   8  19
HETATM   19  C   UNL     1      -6.886   3.052 -30.308  1.00  0.00     0.409 C 
HETATM   20  F   UNL     1      -7.205   3.865 -31.341  1.00  0.00    -0.169 F 
HETATM   21  F   UNL     1      -7.898   3.168 -29.409  1.00  0.00    -0.169 F 
HETATM   22  F   UNL     1      -5.783   3.554 -29.722  1.00  0.00    -0.169 F 
ENDBRANCH   8  19
BRANCH   6  23
HETATM   23  C   UNL     1      -4.074   2.886 -32.421  1.00  0.00    -0.034 A 
HETATM   24  C   UNL     1      -2.944   3.297 -31.690  1.00  0.00     0.034 A 
HETATM   25  C   UNL     1      -2.431   4.595 -31.811  1.00  0.00     0.056 A 
HETATM   26 CL   UNL     1      -1.034   4.998 -30.879  1.00  0.00    -0.083 Cl
HETATM   27  C   UNL     1      -3.054   5.512 -32.662  1.00  0.00     0.055 A 
HETATM   28 CL   UNL     1      -2.490   7.133 -32.856  1.00  0.00    -0.083 Cl
HETATM   29  C   UNL     1      -4.181   5.124 -33.387  1.00  0.00     0.026 A 
HETATM   30  C   UNL     1      -4.686   3.824 -33.268  1.00  0.00     0.011 A 
ENDBRANCH   6  23
TORSDOF 6
ENDMDL
