MODEL 1
REMARK VINA RESULT:      -9.1      0.000      0.000
REMARK  5 active torsions:
REMARK  status: ('A' for Active; 'I' for Inactive)
REMARK    1  A    between atoms: C_6  and  C_7 
REMARK    2  A    between atoms: C_7  and  N_8 
REMARK       I    between atoms: N_8  and  C_9 
REMARK       I    between atoms: C_9  and  N_10 
REMARK    3  A    between atoms: N_10  and  C_11 
REMARK    4  A    between atoms: C_13  and  C_14 
REMARK       I    between atoms: C_14  and  N_15 
REMARK    5  A    between atoms: N_15  and  C_16 
ROOT
HETATM    1  C   UNL     1      -4.303  -1.633 -32.950  1.00  0.00     0.036 A 
HETATM    2  C   UNL     1      -5.024  -2.409 -33.861  1.00  0.00     0.052 A 
HETATM    3  C   UNL     1      -4.745  -3.775 -34.005  1.00  0.00     0.046 A 
HETATM    4  C   UNL     1      -5.485  -4.565 -34.944  1.00  0.00     0.099 C 
HETATM    5  N   UNL     1      -6.073  -5.222 -35.699  1.00  0.00    -0.191 NA
HETATM    6  C   UNL     1      -3.742  -4.371 -33.233  1.00  0.00     0.023 A 
HETATM    7  C   UNL     1      -3.023  -3.604 -32.319  1.00  0.00     0.004 A 
HETATM    8  C   UNL     1      -3.303  -2.243 -32.181  1.00  0.00     0.029 A 
ENDROOT
BRANCH   1   9
HETATM    9  N   UNL     1      -4.516  -0.254 -32.743  1.00  0.00    -0.323 N 
HETATM   10  C   UNL     1      -5.414   0.340 -31.873  1.00  0.00     0.256 C 
HETATM   11  O   UNL     1      -6.226  -0.237 -31.158  1.00  0.00    -0.267 OA
HETATM   12  H   UNL     1      -3.974   0.362 -33.337  1.00  0.00     0.169 HD
BRANCH  10  13
HETATM   13  C   UNL     1      -5.402   1.833 -31.867  1.00  0.00     0.034 A 
HETATM   14  C   UNL     1      -4.392   2.566 -32.505  1.00  0.00     0.046 A 
HETATM   15  C   UNL     1      -4.441   3.961 -32.531  1.00  0.00     0.037 A 
HETATM   16  C   UNL     1      -5.477   4.621 -31.861  1.00  0.00     0.029 A 
HETATM   17  C   UNL     1      -6.466   3.898 -31.190  1.00  0.00     0.003 A 
HETATM   18  C   UNL     1      -6.431   2.505 -31.197  1.00  0.00     0.017 A 
BRANCH  15  19
HETATM   19  N   UNL     1      -3.492   4.761 -33.200  1.00  0.00    -0.309 N 
HETATM   20  C   UNL     1      -3.583   5.281 -34.461  1.00  0.00     0.321 C 
HETATM   21  N   UNL     1      -2.499   5.980 -34.901  1.00  0.00    -0.337 N 
HETATM   22  O   UNL     1      -4.544   5.180 -35.222  1.00  0.00    -0.247 OA
HETATM   23  H   UNL     1      -2.616   6.312 -35.849  1.00  0.00     0.164 HD
HETATM   24  H   UNL     1      -2.765   5.160 -32.612  1.00  0.00     0.170 HD
BRANCH  21  25
HETATM   25  C   UNL     1      -1.178   6.064 -34.312  1.00  0.00     0.186 C 
BRANCH  25  26
HETATM   26  C   UNL     1      -1.240   6.852 -33.053  1.00  0.00     0.083 A 
HETATM   27  C   UNL     1      -0.710   6.575 -31.809  1.00  0.00     0.076 A 
HETATM   28  C   UNL     1       0.075   5.468 -31.238  1.00  0.00     0.079 C 
HETATM   29  O   UNL     1      -1.014   7.621 -30.983  1.00  0.00    -0.307 OA
HETATM   30  C   UNL     1      -1.704   8.482 -31.779  1.00  0.00     0.258 A 
HETATM   31  N   UNL     1      -1.868   8.085 -33.021  1.00  0.00    -0.237 NA
ENDBRANCH  25  26
ENDBRANCH  21  25
ENDBRANCH  15  19
ENDBRANCH  10  13
ENDBRANCH   1   9
TORSDOF 5
ENDMDL
MODEL 2
REMARK VINA RESULT:      -9.1      7.278      9.942
REMARK  5 active torsions:
REMARK  status: ('A' for Active; 'I' for Inactive)
REMARK    1  A    between atoms: C_6  and  C_7 
REMARK    2  A    between atoms: C_7  and  N_8 
REMARK       I    between atoms: N_8  and  C_9 
REMARK       I    between atoms: C_9  and  N_10 
REMARK    3  A    between atoms: N_10  and  C_11 
REMARK    4  A    between atoms: C_13  and  C_14 
REMARK       I    between atoms: C_14  and  N_15 
REMARK    5  A    between atoms: N_15  and  C_16 
ROOT
HETATM    1  C   UNL     1      -6.572  -0.707 -34.036  1.00  0.00     0.036 A 
HETATM    2  C   UNL     1      -6.648  -2.031 -34.473  1.00  0.00     0.052 A 
HETATM    3  C   UNL     1      -5.523  -2.864 -34.408  1.00  0.00     0.046 A 
HETATM    4  C   UNL     1      -5.606  -4.221 -34.862  1.00  0.00     0.099 C 
HETATM    5  N   UNL     1      -5.652  -5.323 -35.224  1.00  0.00    -0.191 NA
HETATM    6  C   UNL     1      -4.315  -2.373 -33.902  1.00  0.00     0.023 A 
HETATM    7  C   UNL     1      -4.233  -1.055 -33.460  1.00  0.00     0.004 A 
HETATM    8  C   UNL     1      -5.356  -0.228 -33.528  1.00  0.00     0.029 A 
ENDROOT
BRANCH   1   9
HETATM    9  N   UNL     1      -7.652   0.200 -34.067  1.00  0.00    -0.323 N 
HETATM   10  C   UNL     1      -8.320   0.754 -32.988  1.00  0.00     0.256 C 
HETATM   11  O   UNL     1      -8.117   0.511 -31.804  1.00  0.00    -0.267 OA
HETATM   12  H   UNL     1      -7.998   0.431 -34.991  1.00  0.00     0.169 HD
BRANCH  10  13
HETATM   13  C   UNL     1      -9.422   1.698 -33.338  1.00  0.00     0.034 A 
HETATM   14  C   UNL     1     -10.763   1.405 -33.051  1.00  0.00     0.046 A 
HETATM   15  C   UNL     1     -11.766   2.334 -33.337  1.00  0.00     0.037 A 
HETATM   16  C   UNL     1     -11.424   3.534 -33.970  1.00  0.00     0.029 A 
HETATM   17  C   UNL     1     -10.095   3.815 -34.294  1.00  0.00     0.003 A 
HETATM   18  C   UNL     1      -9.094   2.900 -33.975  1.00  0.00     0.017 A 
BRANCH  15  19
HETATM   19  N   UNL     1     -13.126   2.132 -33.026  1.00  0.00    -0.309 N 
HETATM   20  C   UNL     1     -14.129   1.770 -33.882  1.00  0.00     0.321 C 
HETATM   21  N   UNL     1     -15.379   1.694 -33.342  1.00  0.00    -0.337 N 
HETATM   22  O   UNL     1     -14.008   1.506 -35.076  1.00  0.00    -0.247 OA
HETATM   23  H   UNL     1     -16.079   1.451 -34.029  1.00  0.00     0.164 HD
HETATM   24  H   UNL     1     -13.339   2.046 -32.037  1.00  0.00     0.170 HD
BRANCH  21  25
HETATM   25  C   UNL     1     -15.833   2.155 -32.046  1.00  0.00     0.186 C 
BRANCH  25  26
HETATM   26  C   UNL     1     -17.054   2.987 -32.208  1.00  0.00     0.083 A 
HETATM   27  C   UNL     1     -17.235   4.341 -32.011  1.00  0.00     0.076 A 
HETATM   28  C   UNL     1     -16.370   5.453 -31.582  1.00  0.00     0.079 C 
HETATM   29  O   UNL     1     -18.533   4.638 -32.320  1.00  0.00    -0.307 OA
HETATM   30  C   UNL     1     -19.065   3.446 -32.700  1.00  0.00     0.258 A 
HETATM   31  N   UNL     1     -18.236   2.426 -32.660  1.00  0.00    -0.237 NA
ENDBRANCH  25  26
ENDBRANCH  21  25
ENDBRANCH  15  19
ENDBRANCH  10  13
ENDBRANCH   1   9
TORSDOF 5
ENDMDL
MODEL 3
REMARK VINA RESULT:      -9.1      2.180      2.724
REMARK  5 active torsions:
REMARK  status: ('A' for Active; 'I' for Inactive)
REMARK    1  A    between atoms: C_6  and  C_7 
REMARK    2  A    between atoms: C_7  and  N_8 
REMARK       I    between atoms: N_8  and  C_9 
REMARK       I    between atoms: C_9  and  N_10 
REMARK    3  A    between atoms: N_10  and  C_11 
REMARK    4  A    between atoms: C_13  and  C_14 
REMARK       I    between atoms: C_14  and  N_15 
REMARK    5  A    between atoms: N_15  and  C_16 
ROOT
HETATM    1  C   UNL     1      -3.840  -1.574 -32.852  1.00  0.00     0.036 A 
HETATM    2  C   UNL     1      -4.605  -2.306 -33.763  1.00  0.00     0.052 A 
HETATM    3  C   UNL     1      -4.524  -3.705 -33.794  1.00  0.00     0.046 A 
HETATM    4  C   UNL     1      -5.309  -4.450 -34.734  1.00  0.00     0.099 C 
HETATM    5  N   UNL     1      -5.936  -5.073 -35.487  1.00  0.00    -0.191 NA
HETATM    6  C   UNL     1      -3.676  -4.378 -32.909  1.00  0.00     0.023 A 
HETATM    7  C   UNL     1      -2.913  -3.655 -31.994  1.00  0.00     0.004 A 
HETATM    8  C   UNL     1      -2.996  -2.261 -31.968  1.00  0.00     0.029 A 
ENDROOT
BRANCH   1   9
HETATM    9  N   UNL     1      -3.858  -0.167 -32.754  1.00  0.00    -0.323 N 
HETATM   10  C   UNL     1      -4.769   0.619 -32.069  1.00  0.00     0.256 C 
HETATM   11  O   UNL     1      -5.759   0.226 -31.463  1.00  0.00    -0.267 OA
HETATM   12  H   UNL     1      -3.143   0.314 -33.286  1.00  0.00     0.169 HD
BRANCH  10  13
HETATM   13  C   UNL     1      -4.521   2.089 -32.140  1.00  0.00     0.034 A 
HETATM   14  C   UNL     1      -3.445   2.689 -31.470  1.00  0.00     0.046 A 
HETATM   15  C   UNL     1      -3.204   4.058 -31.603  1.00  0.00     0.037 A 
HETATM   16  C   UNL     1      -4.086   4.835 -32.363  1.00  0.00     0.029 A 
HETATM   17  C   UNL     1      -5.182   4.251 -33.001  1.00  0.00     0.003 A 
HETATM   18  C   UNL     1      -5.397   2.879 -32.893  1.00  0.00     0.017 A 
BRANCH  15  19
HETATM   19  N   UNL     1      -2.112   4.719 -31.005  1.00  0.00    -0.309 N 
HETATM   20  C   UNL     1      -0.987   5.191 -31.623  1.00  0.00     0.321 C 
HETATM   21  N   UNL     1      -0.044   5.746 -30.808  1.00  0.00    -0.337 N 
HETATM   22  O   UNL     1      -0.753   5.164 -32.829  1.00  0.00    -0.247 OA
HETATM   23  H   UNL     1       0.774   6.048 -31.320  1.00  0.00     0.164 HD
HETATM   24  H   UNL     1      -2.271   5.060 -30.061  1.00  0.00     0.170 HD
BRANCH  21  25
HETATM   25  C   UNL     1       0.035   5.709 -29.362  1.00  0.00     0.186 C 
BRANCH  25  26
HETATM   26  C   UNL     1      -0.567   6.944 -28.795  1.00  0.00     0.083 A 
HETATM   27  C   UNL     1       0.041   8.046 -28.229  1.00  0.00     0.076 A 
HETATM   28  C   UNL     1       1.434   8.438 -27.957  1.00  0.00     0.079 C 
HETATM   29  O   UNL     1      -0.940   8.933 -27.883  1.00  0.00    -0.307 OA
HETATM   30  C   UNL     1      -2.091   8.322 -28.271  1.00  0.00     0.258 A 
HETATM   31  N   UNL     1      -1.937   7.139 -28.825  1.00  0.00    -0.237 NA
ENDBRANCH  25  26
ENDBRANCH  21  25
ENDBRANCH  15  19
ENDBRANCH  10  13
ENDBRANCH   1   9
TORSDOF 5
ENDMDL
MODEL 4
REMARK VINA RESULT:      -8.9      2.481      3.242
REMARK  5 active torsions:
REMARK  status: ('A' for Active; 'I' for Inactive)
REMARK    1  A    between atoms: C_6  and  C_7 
REMARK    2  A    between atoms: C_7  and  N_8 
REMARK       I    between atoms: N_8  and  C_9 
REMARK       I    between atoms: C_9  and  N_10 
REMARK    3  A    between atoms: N_10  and  C_11 
REMARK    4  A    between atoms: C_13  and  C_14 
REMARK       I    between atoms: C_14  and  N_15 
REMARK    5  A    between atoms: N_15  and  C_16 
ROOT
HETATM    1  C   UNL     1      -5.398  -0.821 -33.841  1.00  0.00     0.036 A 
HETATM    2  C   UNL     1      -4.475  -1.864 -33.748  1.00  0.00     0.052 A 
HETATM    3  C   UNL     1      -4.822  -3.158 -34.162  1.00  0.00     0.046 A 
HETATM    4  C   UNL     1      -3.871  -4.225 -34.061  1.00  0.00     0.099 C 
HETATM    5  N   UNL     1      -3.116  -5.104 -33.988  1.00  0.00    -0.191 NA
HETATM    6  C   UNL     1      -6.100  -3.411 -34.673  1.00  0.00     0.023 A 
HETATM    7  C   UNL     1      -7.025  -2.374 -34.772  1.00  0.00     0.004 A 
HETATM    8  C   UNL     1      -6.674  -1.088 -34.357  1.00  0.00     0.029 A 
ENDROOT
BRANCH   1   9
HETATM    9  N   UNL     1      -5.134   0.507 -33.446  1.00  0.00    -0.323 N 
HETATM   10  C   UNL     1      -4.638   0.943 -32.230  1.00  0.00     0.256 C 
HETATM   11  O   UNL     1      -4.385   0.245 -31.254  1.00  0.00    -0.267 OA
HETATM   12  H   UNL     1      -5.381   1.218 -34.125  1.00  0.00     0.169 HD
BRANCH  10  13
HETATM   13  C   UNL     1      -4.451   2.419 -32.110  1.00  0.00     0.034 A 
HETATM   14  C   UNL     1      -3.344   2.973 -31.451  1.00  0.00     0.046 A 
HETATM   15  C   UNL     1      -3.168   4.357 -31.407  1.00  0.00     0.037 A 
HETATM   16  C   UNL     1      -4.140   5.188 -31.976  1.00  0.00     0.029 A 
HETATM   17  C   UNL     1      -5.265   4.644 -32.599  1.00  0.00     0.003 A 
HETATM   18  C   UNL     1      -5.418   3.261 -32.671  1.00  0.00     0.017 A 
BRANCH  15  19
HETATM   19  N   UNL     1      -2.053   4.982 -30.811  1.00  0.00    -0.309 N 
HETATM   20  C   UNL     1      -0.872   5.322 -31.411  1.00  0.00     0.321 C 
HETATM   21  N   UNL     1       0.076   5.869 -30.599  1.00  0.00    -0.337 N 
HETATM   22  O   UNL     1      -0.594   5.186 -32.601  1.00  0.00    -0.247 OA
HETATM   23  H   UNL     1       0.935   6.071 -31.094  1.00  0.00     0.164 HD
HETATM   24  H   UNL     1      -2.223   5.405 -29.904  1.00  0.00     0.170 HD
BRANCH  21  25
HETATM   25  C   UNL     1       0.096   5.939 -29.152  1.00  0.00     0.186 C 
BRANCH  25  26
HETATM   26  C   UNL     1      -0.436   7.253 -28.706  1.00  0.00     0.083 A 
HETATM   27  C   UNL     1       0.219   8.325 -28.135  1.00  0.00     0.076 A 
HETATM   28  C   UNL     1       1.612   8.605 -27.747  1.00  0.00     0.079 C 
HETATM   29  O   UNL     1      -0.701   9.315 -27.929  1.00  0.00    -0.307 OA
HETATM   30  C   UNL     1      -1.864   8.790 -28.399  1.00  0.00     0.258 A 
HETATM   31  N   UNL     1      -1.772   7.569 -28.879  1.00  0.00    -0.237 NA
ENDBRANCH  25  26
ENDBRANCH  21  25
ENDBRANCH  15  19
ENDBRANCH  10  13
ENDBRANCH   1   9
TORSDOF 5
ENDMDL
MODEL 5
REMARK VINA RESULT:      -8.8      4.376      6.182
REMARK  5 active torsions:
REMARK  status: ('A' for Active; 'I' for Inactive)
REMARK    1  A    between atoms: C_6  and  C_7 
REMARK    2  A    between atoms: C_7  and  N_8 
REMARK       I    between atoms: N_8  and  C_9 
REMARK       I    between atoms: C_9  and  N_10 
REMARK    3  A    between atoms: N_10  and  C_11 
REMARK    4  A    between atoms: C_13  and  C_14 
REMARK       I    between atoms: C_14  and  N_15 
REMARK    5  A    between atoms: N_15  and  C_16 
ROOT
HETATM    1  C   UNL     1     -10.196   2.271 -34.256  1.00  0.00     0.036 A 
HETATM    2  C   UNL     1     -11.376   1.528 -34.183  1.00  0.00     0.052 A 
HETATM    3  C   UNL     1     -12.567   2.034 -34.721  1.00  0.00     0.046 A 
HETATM    4  C   UNL     1     -13.776   1.268 -34.639  1.00  0.00     0.099 C 
HETATM    5  N   UNL     1     -14.766   0.664 -34.584  1.00  0.00    -0.191 NA
HETATM    6  C   UNL     1     -12.579   3.289 -35.338  1.00  0.00     0.023 A 
HETATM    7  C   UNL     1     -11.405   4.034 -35.419  1.00  0.00     0.004 A 
HETATM    8  C   UNL     1     -10.221   3.526 -34.880  1.00  0.00     0.029 A 
ENDROOT
BRANCH   1   9
HETATM    9  N   UNL     1      -8.956   1.839 -33.740  1.00  0.00    -0.323 N 
HETATM   10  C   UNL     1      -8.101   0.893 -34.279  1.00  0.00     0.256 C 
HETATM   11  O   UNL     1      -8.299   0.221 -35.285  1.00  0.00    -0.267 OA
HETATM   12  H   UNL     1      -8.692   2.245 -32.850  1.00  0.00     0.169 HD
BRANCH  10  13
HETATM   13  C   UNL     1      -6.846   0.655 -33.506  1.00  0.00     0.034 A 
HETATM   14  C   UNL     1      -5.987   1.705 -33.152  1.00  0.00     0.046 A 
HETATM   15  C   UNL     1      -4.851   1.458 -32.378  1.00  0.00     0.037 A 
HETATM   16  C   UNL     1      -4.548   0.141 -32.012  1.00  0.00     0.029 A 
HETATM   17  C   UNL     1      -5.378  -0.914 -32.394  1.00  0.00     0.003 A 
HETATM   18  C   UNL     1      -6.529  -0.657 -33.137  1.00  0.00     0.017 A 
BRANCH  15  19
HETATM   19  N   UNL     1      -3.973   2.469 -31.938  1.00  0.00    -0.309 N 
HETATM   20  C   UNL     1      -4.234   3.460 -31.033  1.00  0.00     0.321 C 
HETATM   21  N   UNL     1      -3.228   4.355 -30.818  1.00  0.00    -0.337 N 
HETATM   22  O   UNL     1      -5.277   3.613 -30.401  1.00  0.00    -0.247 OA
HETATM   23  H   UNL     1      -3.492   5.078 -30.162  1.00  0.00     0.164 HD
HETATM   24  H   UNL     1      -2.993   2.322 -32.158  1.00  0.00     0.170 HD
BRANCH  21  25
HETATM   25  C   UNL     1      -2.005   4.538 -31.571  1.00  0.00     0.186 C 
BRANCH  25  26
HETATM   26  C   UNL     1      -2.300   5.246 -32.844  1.00  0.00     0.083 A 
HETATM   27  C   UNL     1      -2.329   6.598 -33.119  1.00  0.00     0.076 A 
HETATM   28  C   UNL     1      -2.105   7.823 -32.332  1.00  0.00     0.079 C 
HETATM   29  O   UNL     1      -2.624   6.749 -34.445  1.00  0.00    -0.307 OA
HETATM   30  C   UNL     1      -2.747   5.475 -34.905  1.00  0.00     0.258 A 
HETATM   31  N   UNL     1      -2.561   4.535 -34.003  1.00  0.00    -0.237 NA
ENDBRANCH  25  26
ENDBRANCH  21  25
ENDBRANCH  15  19
ENDBRANCH  10  13
ENDBRANCH   1   9
TORSDOF 5
ENDMDL
MODEL 6
REMARK VINA RESULT:      -8.6      4.167      9.552
REMARK  5 active torsions:
REMARK  status: ('A' for Active; 'I' for Inactive)
REMARK    1  A    between atoms: C_6  and  C_7 
REMARK    2  A    between atoms: C_7  and  N_8 
REMARK       I    between atoms: N_8  and  C_9 
REMARK       I    between atoms: C_9  and  N_10 
REMARK    3  A    between atoms: N_10  and  C_11 
REMARK    4  A    between atoms: C_13  and  C_14 
REMARK       I    between atoms: C_14  and  N_15 
REMARK    5  A    between atoms: N_15  and  C_16 
ROOT
HETATM    1  C   UNL     1      -1.762   5.180 -31.029  1.00  0.00     0.036 A 
HETATM    2  C   UNL     1      -2.215   6.383 -30.482  1.00  0.00     0.052 A 
HETATM    3  C   UNL     1      -1.333   7.456 -30.300  1.00  0.00     0.046 A 
HETATM    4  C   UNL     1      -1.803   8.686 -29.735  1.00  0.00     0.099 C 
HETATM    5  N   UNL     1      -2.163   9.691 -29.279  1.00  0.00    -0.191 NA
HETATM    6  C   UNL     1       0.011   7.329 -30.670  1.00  0.00     0.023 A 
HETATM    7  C   UNL     1       0.469   6.135 -31.220  1.00  0.00     0.004 A 
HETATM    8  C   UNL     1      -0.414   5.067 -31.397  1.00  0.00     0.029 A 
ENDROOT
BRANCH   1   9
HETATM    9  N   UNL     1      -2.579   4.051 -31.243  1.00  0.00    -0.323 N 
HETATM   10  C   UNL     1      -3.265   3.713 -32.398  1.00  0.00     0.256 C 
HETATM   11  O   UNL     1      -3.321   4.370 -33.430  1.00  0.00    -0.267 OA
HETATM   12  H   UNL     1      -2.706   3.448 -30.439  1.00  0.00     0.169 HD
BRANCH  10  13
HETATM   13  C   UNL     1      -4.043   2.441 -32.326  1.00  0.00     0.034 A 
HETATM   14  C   UNL     1      -5.382   2.371 -32.739  1.00  0.00     0.046 A 
HETATM   15  C   UNL     1      -6.065   1.153 -32.715  1.00  0.00     0.037 A 
HETATM   16  C   UNL     1      -5.418   0.016 -32.217  1.00  0.00     0.029 A 
HETATM   17  C   UNL     1      -4.097   0.088 -31.768  1.00  0.00     0.003 A 
HETATM   18  C   UNL     1      -3.409   1.298 -31.827  1.00  0.00     0.017 A 
BRANCH  15  19
HETATM   19  N   UNL     1      -7.391   0.995 -33.166  1.00  0.00    -0.309 N 
HETATM   20  C   UNL     1      -7.815   0.804 -34.453  1.00  0.00     0.321 C 
HETATM   21  N   UNL     1      -9.164   0.736 -34.635  1.00  0.00    -0.337 N 
HETATM   22  O   UNL     1      -7.098   0.686 -35.445  1.00  0.00    -0.247 OA
HETATM   23  H   UNL     1      -9.414   0.624 -35.608  1.00  0.00     0.164 HD
HETATM   24  H   UNL     1      -8.077   0.798 -32.444  1.00  0.00     0.170 HD
BRANCH  21  25
HETATM   25  C   UNL     1     -10.220   1.056 -33.697  1.00  0.00     0.186 C 
BRANCH  25  26
HETATM   26  C   UNL     1     -11.375   1.646 -34.423  1.00  0.00     0.083 A 
HETATM   27  C   UNL     1     -12.687   1.223 -34.494  1.00  0.00     0.076 A 
HETATM   28  C   UNL     1     -13.444   0.092 -33.932  1.00  0.00     0.079 C 
HETATM   29  O   UNL     1     -13.373   2.118 -35.266  1.00  0.00    -0.307 OA
HETATM   30  C   UNL     1     -12.439   3.043 -35.612  1.00  0.00     0.258 A 
HETATM   31  N   UNL     1     -11.232   2.823 -35.139  1.00  0.00    -0.237 NA
ENDBRANCH  25  26
ENDBRANCH  21  25
ENDBRANCH  15  19
ENDBRANCH  10  13
ENDBRANCH   1   9
TORSDOF 5
ENDMDL
MODEL 7
REMARK VINA RESULT:      -8.6      4.516      9.738
REMARK  5 active torsions:
REMARK  status: ('A' for Active; 'I' for Inactive)
REMARK    1  A    between atoms: C_6  and  C_7 
REMARK    2  A    between atoms: C_7  and  N_8 
REMARK       I    between atoms: N_8  and  C_9 
REMARK       I    between atoms: C_9  and  N_10 
REMARK    3  A    between atoms: N_10  and  C_11 
REMARK    4  A    between atoms: C_13  and  C_14 
REMARK       I    between atoms: C_14  and  N_15 
REMARK    5  A    between atoms: N_15  and  C_16 
ROOT
HETATM    1  C   UNL     1      -3.052   4.963 -33.243  1.00  0.00     0.036 A 
HETATM    2  C   UNL     1      -3.113   6.156 -32.520  1.00  0.00     0.052 A 
HETATM    3  C   UNL     1      -2.190   7.183 -32.767  1.00  0.00     0.046 A 
HETATM    4  C   UNL     1      -2.256   8.403 -32.019  1.00  0.00     0.099 C 
HETATM    5  N   UNL     1      -2.290   9.400 -31.425  1.00  0.00    -0.191 NA
HETATM    6  C   UNL     1      -1.203   7.017 -33.744  1.00  0.00     0.023 A 
HETATM    7  C   UNL     1      -1.139   5.831 -34.472  1.00  0.00     0.004 A 
HETATM    8  C   UNL     1      -2.059   4.811 -34.221  1.00  0.00     0.029 A 
ENDROOT
BRANCH   1   9
HETATM    9  N   UNL     1      -3.937   3.880 -33.058  1.00  0.00    -0.323 N 
HETATM   10  C   UNL     1      -3.782   2.802 -32.203  1.00  0.00     0.256 C 
HETATM   11  O   UNL     1      -2.815   2.573 -31.486  1.00  0.00    -0.267 OA
HETATM   12  H   UNL     1      -4.754   3.880 -33.656  1.00  0.00     0.169 HD
BRANCH  10  13
HETATM   13  C   UNL     1      -4.900   1.812 -32.219  1.00  0.00     0.034 A 
HETATM   14  C   UNL     1      -6.224   2.198 -32.474  1.00  0.00     0.046 A 
HETATM   15  C   UNL     1      -7.239   1.240 -32.539  1.00  0.00     0.037 A 
HETATM   16  C   UNL     1      -6.929  -0.101 -32.287  1.00  0.00     0.029 A 
HETATM   17  C   UNL     1      -5.619  -0.487 -31.994  1.00  0.00     0.003 A 
HETATM   18  C   UNL     1      -4.605   0.468 -31.964  1.00  0.00     0.017 A 
BRANCH  15  19
HETATM   19  N   UNL     1      -8.580   1.547 -32.846  1.00  0.00    -0.309 N 
HETATM   20  C   UNL     1      -9.533   2.044 -32.000  1.00  0.00     0.321 C 
HETATM   21  N   UNL     1     -10.779   2.203 -32.530  1.00  0.00    -0.337 N 
HETATM   22  O   UNL     1      -9.369   2.360 -30.824  1.00  0.00    -0.247 OA
HETATM   23  H   UNL     1     -11.444   2.546 -31.849  1.00  0.00     0.164 HD
HETATM   24  H   UNL     1      -8.800   1.599 -33.836  1.00  0.00     0.170 HD
BRANCH  21  25
HETATM   25  C   UNL     1     -11.293   1.717 -33.794  1.00  0.00     0.186 C 
BRANCH  25  26
HETATM   26  C   UNL     1     -12.753   1.462 -33.677  1.00  0.00     0.083 A 
HETATM   27  C   UNL     1     -13.748   2.251 -33.136  1.00  0.00     0.076 A 
HETATM   28  C   UNL     1     -13.789   3.573 -32.489  1.00  0.00     0.079 C 
HETATM   29  O   UNL     1     -14.935   1.591 -33.291  1.00  0.00    -0.307 OA
HETATM   30  C   UNL     1     -14.593   0.439 -33.929  1.00  0.00     0.258 A 
HETATM   31  N   UNL     1     -13.312   0.305 -34.191  1.00  0.00    -0.237 NA
ENDBRANCH  25  26
ENDBRANCH  21  25
ENDBRANCH  15  19
ENDBRANCH  10  13
ENDBRANCH   1   9
TORSDOF 5
ENDMDL
MODEL 8
REMARK VINA RESULT:      -8.6      2.049      2.642
REMARK  5 active torsions:
REMARK  status: ('A' for Active; 'I' for Inactive)
REMARK    1  A    between atoms: C_6  and  C_7 
REMARK    2  A    between atoms: C_7  and  N_8 
REMARK       I    between atoms: N_8  and  C_9 
REMARK       I    between atoms: C_9  and  N_10 
REMARK    3  A    between atoms: N_10  and  C_11 
REMARK    4  A    between atoms: C_13  and  C_14 
REMARK       I    between atoms: C_14  and  N_15 
REMARK    5  A    between atoms: N_15  and  C_16 
ROOT
HETATM    1  C   UNL     1      -4.223  -1.319 -33.005  1.00  0.00     0.036 A 
HETATM    2  C   UNL     1      -4.825  -2.253 -33.852  1.00  0.00     0.052 A 
HETATM    3  C   UNL     1      -4.492  -3.611 -33.760  1.00  0.00     0.046 A 
HETATM    4  C   UNL     1      -5.110  -4.564 -34.635  1.00  0.00     0.099 C 
HETATM    5  N   UNL     1      -5.599  -5.351 -35.334  1.00  0.00    -0.191 NA
HETATM    6  C   UNL     1      -3.555  -4.041 -32.815  1.00  0.00     0.023 A 
HETATM    7  C   UNL     1      -2.955  -3.116 -31.964  1.00  0.00     0.004 A 
HETATM    8  C   UNL     1      -3.288  -1.763 -32.060  1.00  0.00     0.029 A 
ENDROOT
BRANCH   1   9
HETATM    9  N   UNL     1      -4.497   0.065 -33.031  1.00  0.00    -0.323 N 
HETATM   10  C   UNL     1      -5.708   0.690 -32.789  1.00  0.00     0.256 C 
HETATM   11  O   UNL     1      -6.778   0.139 -32.555  1.00  0.00    -0.267 OA
HETATM   12  H   UNL     1      -3.720   0.655 -33.302  1.00  0.00     0.169 HD
BRANCH  10  13
HETATM   13  C   UNL     1      -5.685   2.180 -32.878  1.00  0.00     0.034 A 
HETATM   14  C   UNL     1      -4.890   2.958 -32.025  1.00  0.00     0.046 A 
HETATM   15  C   UNL     1      -4.845   4.346 -32.173  1.00  0.00     0.037 A 
HETATM   16  C   UNL     1      -5.649   4.956 -33.143  1.00  0.00     0.029 A 
HETATM   17  C   UNL     1      -6.473   4.190 -33.970  1.00  0.00     0.003 A 
HETATM   18  C   UNL     1      -6.487   2.802 -33.841  1.00  0.00     0.017 A 
BRANCH  15  19
HETATM   19  N   UNL     1      -4.028   5.187 -31.389  1.00  0.00    -0.309 N 
HETATM   20  C   UNL     1      -4.297   5.680 -30.143  1.00  0.00     0.321 C 
HETATM   21  N   UNL     1      -3.363   6.523 -29.618  1.00  0.00    -0.337 N 
HETATM   22  O   UNL     1      -5.290   5.433 -29.460  1.00  0.00    -0.247 OA
HETATM   23  H   UNL     1      -3.633   6.876 -28.709  1.00  0.00     0.164 HD
HETATM   24  H   UNL     1      -3.062   5.263 -31.693  1.00  0.00     0.170 HD
BRANCH  21  25
HETATM   25  C   UNL     1      -2.234   7.144 -30.278  1.00  0.00     0.186 C 
BRANCH  25  26
HETATM   26  C   UNL     1      -1.071   6.218 -30.262  1.00  0.00     0.083 A 
HETATM   27  C   UNL     1      -0.540   5.447 -31.276  1.00  0.00     0.076 A 
HETATM   28  C   UNL     1      -0.874   5.220 -32.692  1.00  0.00     0.079 C 
HETATM   29  O   UNL     1       0.546   4.786 -30.773  1.00  0.00    -0.307 OA
HETATM   30  C   UNL     1       0.620   5.204 -29.481  1.00  0.00     0.258 A 
HETATM   31  N   UNL     1      -0.310   6.060 -29.117  1.00  0.00    -0.237 NA
ENDBRANCH  25  26
ENDBRANCH  21  25
ENDBRANCH  15  19
ENDBRANCH  10  13
ENDBRANCH   1   9
TORSDOF 5
ENDMDL
MODEL 9
REMARK VINA RESULT:      -8.4      4.501      6.188
REMARK  5 active torsions:
REMARK  status: ('A' for Active; 'I' for Inactive)
REMARK    1  A    between atoms: C_6  and  C_7 
REMARK    2  A    between atoms: C_7  and  N_8 
REMARK       I    between atoms: N_8  and  C_9 
REMARK       I    between atoms: C_9  and  N_10 
REMARK    3  A    between atoms: N_10  and  C_11 
REMARK    4  A    between atoms: C_13  and  C_14 
REMARK       I    between atoms: C_14  and  N_15 
REMARK    5  A    between atoms: N_15  and  C_16 
ROOT
HETATM    1  C   UNL     1     -10.305   2.328 -34.271  1.00  0.00     0.036 A 
HETATM    2  C   UNL     1     -11.479   1.577 -34.181  1.00  0.00     0.052 A 
HETATM    3  C   UNL     1     -12.666   2.045 -34.762  1.00  0.00     0.046 A 
HETATM    4  C   UNL     1     -13.868   1.272 -34.663  1.00  0.00     0.099 C 
HETATM    5  N   UNL     1     -14.854   0.662 -34.594  1.00  0.00    -0.191 NA
HETATM    6  C   UNL     1     -12.679   3.268 -35.440  1.00  0.00     0.023 A 
HETATM    7  C   UNL     1     -11.510   4.020 -35.538  1.00  0.00     0.004 A 
HETATM    8  C   UNL     1     -10.331   3.551 -34.955  1.00  0.00     0.029 A 
ENDROOT
BRANCH   1   9
HETATM    9  N   UNL     1      -9.070   1.934 -33.714  1.00  0.00    -0.323 N 
HETATM   10  C   UNL     1      -8.203   0.963 -34.185  1.00  0.00     0.256 C 
HETATM   11  O   UNL     1      -8.384   0.234 -35.153  1.00  0.00    -0.267 OA
HETATM   12  H   UNL     1      -8.821   2.392 -32.845  1.00  0.00     0.169 HD
BRANCH  10  13
HETATM   13  C   UNL     1      -6.958   0.778 -33.383  1.00  0.00     0.034 A 
HETATM   14  C   UNL     1      -6.095   1.847 -33.101  1.00  0.00     0.046 A 
HETATM   15  C   UNL     1      -4.969   1.653 -32.298  1.00  0.00     0.037 A 
HETATM   16  C   UNL     1      -4.678   0.367 -31.830  1.00  0.00     0.029 A 
HETATM   17  C   UNL     1      -5.511  -0.710 -32.140  1.00  0.00     0.003 A 
HETATM   18  C   UNL     1      -6.652  -0.504 -32.912  1.00  0.00     0.017 A 
BRANCH  15  19
HETATM   19  N   UNL     1      -4.089   2.690 -31.927  1.00  0.00    -0.309 N 
HETATM   20  C   UNL     1      -4.342   3.729 -31.075  1.00  0.00     0.321 C 
HETATM   21  N   UNL     1      -3.337   4.638 -30.924  1.00  0.00    -0.337 N 
HETATM   22  O   UNL     1      -5.377   3.913 -30.438  1.00  0.00    -0.247 OA
HETATM   23  H   UNL     1      -3.595   5.395 -30.305  1.00  0.00     0.164 HD
HETATM   24  H   UNL     1      -3.111   2.534 -32.152  1.00  0.00     0.170 HD
BRANCH  21  25
HETATM   25  C   UNL     1      -2.124   4.782 -31.703  1.00  0.00     0.186 C 
BRANCH  25  26
HETATM   26  C   UNL     1      -1.027   5.285 -30.835  1.00  0.00     0.083 A 
HETATM   27  C   UNL     1      -0.848   6.529 -30.265  1.00  0.00     0.076 A 
HETATM   28  C   UNL     1      -1.601   7.795 -30.278  1.00  0.00     0.079 C 
HETATM   29  O   UNL     1       0.302   6.490 -29.528  1.00  0.00    -0.307 OA
HETATM   30  C   UNL     1       0.752   5.216 -29.683  1.00  0.00     0.258 A 
HETATM   31  N   UNL     1       0.004   4.447 -30.444  1.00  0.00    -0.237 NA
ENDBRANCH  25  26
ENDBRANCH  21  25
ENDBRANCH  15  19
ENDBRANCH  10  13
ENDBRANCH   1   9
TORSDOF 5
ENDMDL
MODEL 10
REMARK VINA RESULT:      -8.3      3.500      9.542
REMARK  5 active torsions:
REMARK  status: ('A' for Active; 'I' for Inactive)
REMARK    1  A    between atoms: C_6  and  C_7 
REMARK    2  A    between atoms: C_7  and  N_8 
REMARK       I    between atoms: N_8  and  C_9 
REMARK       I    between atoms: C_9  and  N_10 
REMARK    3  A    between atoms: N_10  and  C_11 
REMARK    4  A    between atoms: C_13  and  C_14 
REMARK       I    between atoms: C_14  and  N_15 
REMARK    5  A    between atoms: N_15  and  C_16 
ROOT
HETATM    1  C   UNL     1      -0.592   7.265 -28.672  1.00  0.00     0.036 A 
HETATM    2  C   UNL     1      -1.400   7.533 -27.565  1.00  0.00     0.052 A 
HETATM    3  C   UNL     1      -0.848   8.090 -26.403  1.00  0.00     0.046 A 
HETATM    4  C   UNL     1      -1.681   8.360 -25.269  1.00  0.00     0.099 C 
HETATM    5  N   UNL     1      -2.338   8.586 -24.339  1.00  0.00    -0.191 NA
HETATM    6  C   UNL     1       0.519   8.383 -26.348  1.00  0.00     0.023 A 
HETATM    7  C   UNL     1       1.330   8.123 -27.450  1.00  0.00     0.004 A 
HETATM    8  C   UNL     1       0.775   7.566 -28.605  1.00  0.00     0.029 A 
ENDROOT
BRANCH   1   9
HETATM    9  N   UNL     1      -1.063   6.704 -29.878  1.00  0.00    -0.323 N 
HETATM   10  C   UNL     1      -0.698   5.495 -30.445  1.00  0.00     0.256 C 
HETATM   11  O   UNL     1       0.145   4.715 -30.017  1.00  0.00    -0.267 OA
HETATM   12  H   UNL     1      -1.710   7.282 -30.401  1.00  0.00     0.169 HD
BRANCH  10  13
HETATM   13  C   UNL     1      -1.382   5.163 -31.730  1.00  0.00     0.034 A 
HETATM   14  C   UNL     1      -2.588   4.448 -31.762  1.00  0.00     0.046 A 
HETATM   15  C   UNL     1      -3.232   4.204 -32.977  1.00  0.00     0.037 A 
HETATM   16  C   UNL     1      -2.629   4.628 -34.167  1.00  0.00     0.029 A 
HETATM   17  C   UNL     1      -1.409   5.305 -34.145  1.00  0.00     0.003 A 
HETATM   18  C   UNL     1      -0.787   5.576 -32.928  1.00  0.00     0.017 A 
BRANCH  15  19
HETATM   19  N   UNL     1      -4.473   3.543 -33.081  1.00  0.00    -0.309 N 
HETATM   20  C   UNL     1      -5.581   3.957 -33.767  1.00  0.00     0.321 C 
HETATM   21  N   UNL     1      -6.682   3.159 -33.664  1.00  0.00    -0.337 N 
HETATM   22  O   UNL     1      -5.671   4.967 -34.462  1.00  0.00    -0.247 OA
HETATM   23  H   UNL     1      -7.474   3.534 -34.169  1.00  0.00     0.164 HD
HETATM   24  H   UNL     1      -4.474   2.569 -32.790  1.00  0.00     0.170 HD
BRANCH  21  25
HETATM   25  C   UNL     1      -6.916   2.054 -32.758  1.00  0.00     0.186 C 
BRANCH  25  26
HETATM   26  C   UNL     1      -6.243   0.833 -33.272  1.00  0.00     0.083 A 
HETATM   27  C   UNL     1      -6.597  -0.002 -34.313  1.00  0.00     0.076 A 
HETATM   28  C   UNL     1      -7.707  -0.042 -35.279  1.00  0.00     0.079 C 
HETATM   29  O   UNL     1      -5.642  -0.975 -34.412  1.00  0.00    -0.307 OA
HETATM   30  C   UNL     1      -4.753  -0.668 -33.429  1.00  0.00     0.258 A 
HETATM   31  N   UNL     1      -5.051   0.398 -32.719  1.00  0.00    -0.237 NA
ENDBRANCH  25  26
ENDBRANCH  21  25
ENDBRANCH  15  19
ENDBRANCH  10  13
ENDBRANCH   1   9
TORSDOF 5
ENDMDL
