MODEL 1
REMARK VINA RESULT:      -9.8      0.000      0.000
REMARK  1 active torsions:
REMARK  status: ('A' for Active; 'I' for Inactive)
REMARK    1  A    between atoms: C_8  and  C_9 
ROOT
HETATM    1  C   UNL     1      -7.386  -0.618 -35.014  1.00  0.00     0.049 C 
HETATM    2  C   UNL     1      -6.330  -1.592 -34.565  1.00  0.00    -0.050 A 
HETATM    3  C   UNL     1      -5.324  -1.243 -33.640  1.00  0.00    -0.002 A 
HETATM    4  C   UNL     1      -4.348  -2.193 -33.284  1.00  0.00     0.051 A 
HETATM    5  N   UNL     1      -3.325  -1.805 -32.405  1.00  0.00    -0.322 N 
HETATM    6  C   UNL     1      -3.206  -0.559 -31.861  1.00  0.00     0.255 A 
HETATM    7  O   UNL     1      -2.252  -0.279 -31.139  1.00  0.00    -0.268 OA
HETATM    8  C   UNL     1      -4.282   0.432 -32.147  1.00  0.00     0.048 A 
HETATM    9  C   UNL     1      -5.255   0.084 -33.013  1.00  0.00     0.030 A 
HETATM   10  C   UNL     1      -4.375  -3.498 -33.805  1.00  0.00    -0.034 A 
HETATM   11  C   UNL     1      -3.366  -4.540 -33.416  1.00  0.00     0.050 C 
HETATM   12  C   UNL     1      -5.390  -3.834 -34.709  1.00  0.00     0.009 A 
HETATM   13  C   UNL     1      -6.349  -2.893 -35.088  1.00  0.00     0.008 A 
HETATM   14  H   UNL     1      -2.589  -2.452 -32.161  1.00  0.00     0.169 HD
ENDROOT
BRANCH   8  15
HETATM   15  C   UNL     1      -4.151   1.777 -31.469  1.00  0.00     0.202 C 
HETATM   16  N   UNL     1      -5.349   2.556 -31.588  1.00  0.00    -0.336 N 
HETATM   17  C   UNL     1      -5.377   3.832 -31.077  1.00  0.00     0.255 C 
HETATM   18  H   UNL     1      -6.218   2.061 -31.397  1.00  0.00     0.164 HD
HETATM   19  O   UNL     1      -6.415   4.361 -30.705  1.00  0.00    -0.268 OA
HETATM   20  C   UNL     1      -4.080   4.536 -31.045  1.00  0.00     0.053 A 
HETATM   21  C   UNL     1      -2.965   3.859 -31.553  1.00  0.00     0.026 A 
HETATM   22  C   UNL     1      -3.983   5.852 -30.586  1.00  0.00     0.019 A 
HETATM   23  N   UNL     1      -3.084   2.558 -32.104  1.00  0.00    -0.266 NA
HETATM   24  C   UNL     1      -1.760   4.551 -31.678  1.00  0.00     0.024 A 
HETATM   25  H   UNL     1      -3.347   2.687 -33.082  1.00  0.00     0.130 HD
HETATM   26  C   UNL     1      -1.653   5.869 -31.224  1.00  0.00     0.002 A 
HETATM   27  C   UNL     1      -2.760   6.516 -30.670  1.00  0.00     0.001 A 
ENDBRANCH   8  15
TORSDOF 1
ENDMDL
MODEL 2
REMARK VINA RESULT:      -9.6      2.516      4.020
REMARK  1 active torsions:
REMARK  status: ('A' for Active; 'I' for Inactive)
REMARK    1  A    between atoms: C_8  and  C_9 
ROOT
HETATM    1  C   UNL     1      -3.356  -0.965 -31.872  1.00  0.00     0.049 C 
HETATM    2  C   UNL     1      -4.567  -0.576 -32.677  1.00  0.00    -0.050 A 
HETATM    3  C   UNL     1      -4.863   0.764 -32.998  1.00  0.00    -0.002 A 
HETATM    4  C   UNL     1      -6.028   1.063 -33.730  1.00  0.00     0.051 A 
HETATM    5  N   UNL     1      -6.330   2.409 -33.989  1.00  0.00    -0.322 N 
HETATM    6  C   UNL     1      -5.567   3.464 -33.580  1.00  0.00     0.255 A 
HETATM    7  O   UNL     1      -5.924   4.619 -33.800  1.00  0.00    -0.268 OA
HETATM    8  C   UNL     1      -4.280   3.167 -32.889  1.00  0.00     0.048 A 
HETATM    9  C   UNL     1      -3.991   1.881 -32.607  1.00  0.00     0.030 A 
HETATM   10  C   UNL     1      -6.887   0.046 -34.180  1.00  0.00    -0.034 A 
HETATM   11  C   UNL     1      -8.118   0.335 -34.992  1.00  0.00     0.050 C 
HETATM   12  C   UNL     1      -6.571  -1.281 -33.868  1.00  0.00     0.009 A 
HETATM   13  C   UNL     1      -5.431  -1.587 -33.123  1.00  0.00     0.008 A 
HETATM   14  H   UNL     1      -7.178   2.656 -34.478  1.00  0.00     0.169 HD
ENDROOT
BRANCH   8  15
HETATM   15  C   UNL     1      -3.430   4.360 -32.515  1.00  0.00     0.202 C 
HETATM   16  N   UNL     1      -2.967   5.071 -33.670  1.00  0.00    -0.336 N 
HETATM   17  C   UNL     1      -2.130   6.150 -33.507  1.00  0.00     0.255 C 
HETATM   18  H   UNL     1      -3.666   5.250 -34.388  1.00  0.00     0.164 HD
HETATM   19  O   UNL     1      -2.081   7.064 -34.319  1.00  0.00    -0.268 OA
HETATM   20  C   UNL     1      -1.267   6.114 -32.310  1.00  0.00     0.053 A 
HETATM   21  C   UNL     1      -1.362   4.991 -31.480  1.00  0.00     0.026 A 
HETATM   22  C   UNL     1      -0.345   7.132 -32.053  1.00  0.00     0.019 A 
HETATM   23  N   UNL     1      -2.232   3.917 -31.793  1.00  0.00    -0.266 NA
HETATM   24  C   UNL     1      -0.454   4.856 -30.428  1.00  0.00     0.024 A 
HETATM   25  H   UNL     1      -1.712   3.304 -32.422  1.00  0.00     0.130 HD
HETATM   26  C   UNL     1       0.475   5.867 -30.164  1.00  0.00     0.002 A 
HETATM   27  C   UNL     1       0.523   7.007 -30.969  1.00  0.00     0.001 A 
ENDBRANCH   8  15
TORSDOF 1
ENDMDL
MODEL 3
REMARK VINA RESULT:      -9.5      1.980      3.458
REMARK  1 active torsions:
REMARK  status: ('A' for Active; 'I' for Inactive)
REMARK    1  A    between atoms: C_8  and  C_9 
ROOT
HETATM    1  C   UNL     1      -2.513  -3.330 -31.649  1.00  0.00     0.049 C 
HETATM    2  C   UNL     1      -3.534  -3.553 -32.733  1.00  0.00    -0.050 A 
HETATM    3  C   UNL     1      -4.350  -2.516 -33.228  1.00  0.00    -0.002 A 
HETATM    4  C   UNL     1      -5.306  -2.799 -34.223  1.00  0.00     0.051 A 
HETATM    5  N   UNL     1      -6.144  -1.761 -34.660  1.00  0.00    -0.322 N 
HETATM    6  C   UNL     1      -6.101  -0.482 -34.186  1.00  0.00     0.255 A 
HETATM    7  O   UNL     1      -6.904   0.360 -34.581  1.00  0.00    -0.268 OA
HETATM    8  C   UNL     1      -5.033  -0.138 -33.205  1.00  0.00     0.048 A 
HETATM    9  C   UNL     1      -4.239  -1.130 -32.754  1.00  0.00     0.030 A 
HETATM   10  C   UNL     1      -5.439  -4.090 -34.760  1.00  0.00    -0.034 A 
HETATM   11  C   UNL     1      -6.427  -4.410 -35.846  1.00  0.00     0.050 C 
HETATM   12  C   UNL     1      -4.610  -5.105 -34.271  1.00  0.00     0.009 A 
HETATM   13  C   UNL     1      -3.675  -4.842 -33.268  1.00  0.00     0.008 A 
HETATM   14  H   UNL     1      -6.865  -1.942 -35.344  1.00  0.00     0.169 HD
ENDROOT
BRANCH   8  15
HETATM   15  C   UNL     1      -4.973   1.306 -32.759  1.00  0.00     0.202 C 
HETATM   16  N   UNL     1      -3.734   1.613 -32.105  1.00  0.00    -0.336 N 
HETATM   17  C   UNL     1      -3.542   2.871 -31.584  1.00  0.00     0.255 C 
HETATM   18  H   UNL     1      -2.895   1.271 -32.567  1.00  0.00     0.164 HD
HETATM   19  O   UNL     1      -2.427   3.360 -31.460  1.00  0.00    -0.268 OA
HETATM   20  C   UNL     1      -4.763   3.575 -31.146  1.00  0.00     0.053 A 
HETATM   21  C   UNL     1      -5.981   2.897 -31.277  1.00  0.00     0.026 A 
HETATM   22  C   UNL     1      -4.696   4.843 -30.562  1.00  0.00     0.019 A 
HETATM   23  N   UNL     1      -6.035   1.575 -31.784  1.00  0.00    -0.266 NA
HETATM   24  C   UNL     1      -7.130   3.473 -30.733  1.00  0.00     0.024 A 
HETATM   25  H   UNL     1      -5.874   0.958 -30.986  1.00  0.00     0.130 HD
HETATM   26  C   UNL     1      -7.074   4.740 -30.145  1.00  0.00     0.002 A 
HETATM   27  C   UNL     1      -5.861   5.428 -30.068  1.00  0.00     0.001 A 
ENDBRANCH   8  15
TORSDOF 1
ENDMDL
MODEL 4
REMARK VINA RESULT:      -9.3      3.981      6.972
REMARK  1 active torsions:
REMARK  status: ('A' for Active; 'I' for Inactive)
REMARK    1  A    between atoms: C_8  and  C_9 
ROOT
HETATM    1  C   UNL     1      -5.798  -3.219 -35.240  1.00  0.00     0.049 C 
HETATM    2  C   UNL     1      -5.292  -2.344 -34.125  1.00  0.00    -0.050 A 
HETATM    3  C   UNL     1      -6.008  -1.222 -33.661  1.00  0.00    -0.002 A 
HETATM    4  C   UNL     1      -5.465  -0.427 -32.633  1.00  0.00     0.051 A 
HETATM    5  N   UNL     1      -6.170   0.717 -32.227  1.00  0.00    -0.322 N 
HETATM    6  C   UNL     1      -7.360   1.120 -32.760  1.00  0.00     0.255 A 
HETATM    7  O   UNL     1      -7.892   2.163 -32.388  1.00  0.00    -0.268 OA
HETATM    8  C   UNL     1      -8.000   0.241 -33.780  1.00  0.00     0.048 A 
HETATM    9  C   UNL     1      -7.322  -0.845 -34.201  1.00  0.00     0.030 A 
HETATM   10  C   UNL     1      -4.236  -0.750 -32.033  1.00  0.00    -0.034 A 
HETATM   11  C   UNL     1      -3.651   0.061 -30.913  1.00  0.00     0.050 C 
HETATM   12  C   UNL     1      -3.545  -1.877 -32.493  1.00  0.00     0.009 A 
HETATM   13  C   UNL     1      -4.063  -2.659 -33.527  1.00  0.00     0.008 A 
HETATM   14  H   UNL     1      -5.787   1.327 -31.519  1.00  0.00     0.169 HD
ENDROOT
BRANCH   8  15
HETATM   15  C   UNL     1      -9.351   0.686 -34.294  1.00  0.00     0.202 C 
HETATM   16  N   UNL     1      -9.465   2.115 -34.335  1.00  0.00    -0.336 N 
HETATM   17  C   UNL     1     -10.653   2.685 -34.723  1.00  0.00     0.255 C 
HETATM   18  H   UNL     1      -8.669   2.609 -34.732  1.00  0.00     0.164 HD
HETATM   19  O   UNL     1     -10.706   3.794 -35.236  1.00  0.00    -0.268 OA
HETATM   20  C   UNL     1     -11.865   1.890 -34.443  1.00  0.00     0.053 A 
HETATM   21  C   UNL     1     -11.695   0.660 -33.797  1.00  0.00     0.026 A 
HETATM   22  C   UNL     1     -13.138   2.378 -34.754  1.00  0.00     0.019 A 
HETATM   23  N   UNL     1     -10.411   0.210 -33.399  1.00  0.00    -0.266 NA
HETATM   24  C   UNL     1     -12.829  -0.041 -33.382  1.00  0.00     0.024 A 
HETATM   25  H   UNL     1     -10.237   0.622 -32.482  1.00  0.00     0.130 HD
HETATM   26  C   UNL     1     -14.106   0.439 -33.685  1.00  0.00     0.002 A 
HETATM   27  C   UNL     1     -14.260   1.641 -34.378  1.00  0.00     0.001 A 
ENDBRANCH   8  15
TORSDOF 1
ENDMDL
MODEL 5
REMARK VINA RESULT:      -9.2      1.666      7.739
REMARK  1 active torsions:
REMARK  status: ('A' for Active; 'I' for Inactive)
REMARK    1  A    between atoms: C_8  and  C_9 
ROOT
HETATM    1  C   UNL     1      -1.288   5.314 -34.902  1.00  0.00     0.049 C 
HETATM    2  C   UNL     1      -1.655   5.905 -33.566  1.00  0.00    -0.050 A 
HETATM    3  C   UNL     1      -2.513   5.250 -32.660  1.00  0.00    -0.002 A 
HETATM    4  C   UNL     1      -2.840   5.871 -31.439  1.00  0.00     0.051 A 
HETATM    5  N   UNL     1      -3.739   5.224 -30.578  1.00  0.00    -0.322 N 
HETATM    6  C   UNL     1      -4.328   4.021 -30.839  1.00  0.00     0.255 A 
HETATM    7  O   UNL     1      -5.147   3.541 -30.059  1.00  0.00    -0.268 OA
HETATM    8  C   UNL     1      -3.922   3.300 -32.079  1.00  0.00     0.048 A 
HETATM    9  C   UNL     1      -3.081   3.922 -32.930  1.00  0.00     0.030 A 
HETATM   10  C   UNL     1      -2.298   7.119 -31.088  1.00  0.00    -0.034 A 
HETATM   11  C   UNL     1      -2.603   7.788 -29.778  1.00  0.00     0.050 C 
HETATM   12  C   UNL     1      -1.434   7.749 -31.991  1.00  0.00     0.009 A 
HETATM   13  C   UNL     1      -1.122   7.154 -33.214  1.00  0.00     0.008 A 
HETATM   14  H   UNL     1      -4.023   5.662 -29.713  1.00  0.00     0.169 HD
ENDROOT
BRANCH   8  15
HETATM   15  C   UNL     1      -4.543   1.939 -32.297  1.00  0.00     0.202 C 
HETATM   16  N   UNL     1      -3.550   0.918 -32.463  1.00  0.00    -0.336 N 
HETATM   17  C   UNL     1      -3.947  -0.371 -32.730  1.00  0.00     0.255 C 
HETATM   18  H   UNL     1      -2.781   0.938 -31.797  1.00  0.00     0.164 HD
HETATM   19  O   UNL     1      -3.268  -1.339 -32.418  1.00  0.00    -0.268 OA
HETATM   20  C   UNL     1      -5.226  -0.508 -33.454  1.00  0.00     0.053 A 
HETATM   21  C   UNL     1      -5.892   0.669 -33.817  1.00  0.00     0.026 A 
HETATM   22  C   UNL     1      -5.719  -1.764 -33.820  1.00  0.00     0.019 A 
HETATM   23  N   UNL     1      -5.344   1.943 -33.526  1.00  0.00    -0.266 NA
HETATM   24  C   UNL     1      -7.021   0.576 -34.633  1.00  0.00     0.024 A 
HETATM   25  H   UNL     1      -4.711   2.162 -34.296  1.00  0.00     0.130 HD
HETATM   26  C   UNL     1      -7.520  -0.676 -35.007  1.00  0.00     0.002 A 
HETATM   27  C   UNL     1      -6.876  -1.843 -34.594  1.00  0.00     0.001 A 
ENDBRANCH   8  15
TORSDOF 1
ENDMDL
MODEL 6
REMARK VINA RESULT:      -9.1      4.071      6.205
REMARK  1 active torsions:
REMARK  status: ('A' for Active; 'I' for Inactive)
REMARK    1  A    between atoms: C_8  and  C_9 
ROOT
HETATM    1  C   UNL     1      -6.754  -3.044 -34.980  1.00  0.00     0.049 C 
HETATM    2  C   UNL     1      -5.824  -2.313 -34.048  1.00  0.00    -0.050 A 
HETATM    3  C   UNL     1      -6.184  -1.106 -33.415  1.00  0.00    -0.002 A 
HETATM    4  C   UNL     1      -5.256  -0.457 -32.579  1.00  0.00     0.051 A 
HETATM    5  N   UNL     1      -5.618   0.772 -32.004  1.00  0.00    -0.322 N 
HETATM    6  C   UNL     1      -6.819   1.391 -32.197  1.00  0.00     0.255 A 
HETATM    7  O   UNL     1      -7.043   2.493 -31.701  1.00  0.00    -0.268 OA
HETATM    8  C   UNL     1      -7.851   0.675 -33.000  1.00  0.00     0.048 A 
HETATM    9  C   UNL     1      -7.508  -0.491 -33.582  1.00  0.00     0.030 A 
HETATM   10  C   UNL     1      -3.987  -1.007 -32.331  1.00  0.00    -0.034 A 
HETATM   11  C   UNL     1      -2.992  -0.352 -31.416  1.00  0.00     0.050 C 
HETATM   12  C   UNL     1      -3.651  -2.214 -32.954  1.00  0.00     0.009 A 
HETATM   13  C   UNL     1      -4.553  -2.854 -33.804  1.00  0.00     0.008 A 
HETATM   14  H   UNL     1      -4.960   1.280 -31.430  1.00  0.00     0.169 HD
ENDROOT
BRANCH   8  15
HETATM   15  C   UNL     1      -9.191   1.362 -33.132  1.00  0.00     0.202 C 
HETATM   16  N   UNL     1     -10.236   0.437 -33.463  1.00  0.00    -0.336 N 
HETATM   17  C   UNL     1     -11.510   0.908 -33.678  1.00  0.00     0.255 C 
HETATM   18  H   UNL     1     -10.247  -0.427 -32.925  1.00  0.00     0.164 HD
HETATM   19  O   UNL     1     -12.500   0.216 -33.487  1.00  0.00    -0.268 OA
HETATM   20  C   UNL     1     -11.602   2.288 -34.194  1.00  0.00     0.053 A 
HETATM   21  C   UNL     1     -10.402   2.968 -34.435  1.00  0.00     0.026 A 
HETATM   22  C   UNL     1     -12.838   2.868 -34.492  1.00  0.00     0.019 A 
HETATM   23  N   UNL     1      -9.148   2.345 -34.220  1.00  0.00    -0.266 NA
HETATM   24  C   UNL     1     -10.452   4.213 -35.065  1.00  0.00     0.024 A 
HETATM   25  H   UNL     1      -8.933   1.834 -35.078  1.00  0.00     0.130 HD
HETATM   26  C   UNL     1     -11.684   4.801 -35.370  1.00  0.00     0.002 A 
HETATM   27  C   UNL     1     -12.875   4.134 -35.075  1.00  0.00     0.001 A 
ENDBRANCH   8  15
TORSDOF 1
ENDMDL
MODEL 7
REMARK VINA RESULT:      -9.0      2.685      3.409
REMARK  1 active torsions:
REMARK  status: ('A' for Active; 'I' for Inactive)
REMARK    1  A    between atoms: C_8  and  C_9 
ROOT
HETATM    1  C   UNL     1      -2.595  -3.193 -31.740  1.00  0.00     0.049 C 
HETATM    2  C   UNL     1      -3.639  -3.489 -32.784  1.00  0.00    -0.050 A 
HETATM    3  C   UNL     1      -4.619  -2.548 -33.160  1.00  0.00    -0.002 A 
HETATM    4  C   UNL     1      -5.586  -2.899 -34.122  1.00  0.00     0.051 A 
HETATM    5  N   UNL     1      -6.584  -1.965 -34.439  1.00  0.00    -0.322 N 
HETATM    6  C   UNL     1      -6.688  -0.725 -33.878  1.00  0.00     0.255 A 
HETATM    7  O   UNL     1      -7.622   0.018 -34.170  1.00  0.00    -0.268 OA
HETATM    8  C   UNL     1      -5.620  -0.297 -32.932  1.00  0.00     0.048 A 
HETATM    9  C   UNL     1      -4.671  -1.193 -32.595  1.00  0.00     0.030 A 
HETATM   10  C   UNL     1      -5.573  -4.159 -34.743  1.00  0.00    -0.034 A 
HETATM   11  C   UNL     1      -6.572  -4.546 -35.796  1.00  0.00     0.050 C 
HETATM   12  C   UNL     1      -4.583  -5.076 -34.371  1.00  0.00     0.009 A 
HETATM   13  C   UNL     1      -3.634  -4.748 -33.401  1.00  0.00     0.008 A 
HETATM   14  H   UNL     1      -7.314  -2.202 -35.097  1.00  0.00     0.169 HD
ENDROOT
BRANCH   8  15
HETATM   15  C   UNL     1      -5.732   1.109 -32.386  1.00  0.00     0.202 C 
HETATM   16  N   UNL     1      -6.979   1.323 -31.711  1.00  0.00    -0.336 N 
HETATM   17  C   UNL     1      -7.266   2.570 -31.207  1.00  0.00     0.255 C 
HETATM   18  H   UNL     1      -7.264   0.588 -31.067  1.00  0.00     0.164 HD
HETATM   19  O   UNL     1      -8.014   2.728 -30.252  1.00  0.00    -0.268 OA
HETATM   20  C   UNL     1      -6.646   3.705 -31.918  1.00  0.00     0.053 A 
HETATM   21  C   UNL     1      -5.856   3.413 -33.036  1.00  0.00     0.026 A 
HETATM   22  C   UNL     1      -6.893   5.024 -31.527  1.00  0.00     0.019 A 
HETATM   23  N   UNL     1      -5.683   2.080 -33.485  1.00  0.00    -0.266 NA
HETATM   24  C   UNL     1      -5.384   4.469 -33.817  1.00  0.00     0.024 A 
HETATM   25  H   UNL     1      -6.476   1.881 -34.097  1.00  0.00     0.130 HD
HETATM   26  C   UNL     1      -5.627   5.792 -33.437  1.00  0.00     0.002 A 
HETATM   27  C   UNL     1      -6.372   6.069 -32.290  1.00  0.00     0.001 A 
ENDBRANCH   8  15
TORSDOF 1
ENDMDL
MODEL 8
REMARK VINA RESULT:      -8.9      2.392      3.933
REMARK  1 active torsions:
REMARK  status: ('A' for Active; 'I' for Inactive)
REMARK    1  A    between atoms: C_8  and  C_9 
ROOT
HETATM    1  C   UNL     1      -2.762  -2.400 -31.850  1.00  0.00     0.049 C 
HETATM    2  C   UNL     1      -3.731  -2.937 -32.869  1.00  0.00    -0.050 A 
HETATM    3  C   UNL     1      -4.732  -2.136 -33.455  1.00  0.00    -0.002 A 
HETATM    4  C   UNL     1      -5.626  -2.708 -34.381  1.00  0.00     0.051 A 
HETATM    5  N   UNL     1      -6.648  -1.904 -34.909  1.00  0.00    -0.322 N 
HETATM    6  C   UNL     1      -6.843  -0.591 -34.588  1.00  0.00     0.255 A 
HETATM    7  O   UNL     1      -7.793   0.033 -35.052  1.00  0.00    -0.268 OA
HETATM    8  C   UNL     1      -5.850   0.059 -33.686  1.00  0.00     0.048 A 
HETATM    9  C   UNL     1      -4.880  -0.707 -33.148  1.00  0.00     0.030 A 
HETATM   10  C   UNL     1      -5.519  -4.056 -34.762  1.00  0.00    -0.034 A 
HETATM   11  C   UNL     1      -6.438  -4.681 -35.772  1.00  0.00     0.050 C 
HETATM   12  C   UNL     1      -4.509  -4.834 -34.184  1.00  0.00     0.009 A 
HETATM   13  C   UNL     1      -3.632  -4.284 -33.247  1.00  0.00     0.008 A 
HETATM   14  H   UNL     1      -7.328  -2.296 -35.545  1.00  0.00     0.169 HD
ENDROOT
BRANCH   8  15
HETATM   15  C   UNL     1      -6.060   1.531 -33.411  1.00  0.00     0.202 C 
HETATM   16  N   UNL     1      -4.917   2.127 -32.783  1.00  0.00    -0.336 N 
HETATM   17  C   UNL     1      -4.965   3.449 -32.410  1.00  0.00     0.255 C 
HETATM   18  H   UNL     1      -4.015   1.889 -33.191  1.00  0.00     0.164 HD
HETATM   19  O   UNL     1      -3.958   4.140 -32.331  1.00  0.00    -0.268 OA
HETATM   20  C   UNL     1      -6.305   3.970 -32.073  1.00  0.00     0.053 A 
HETATM   21  C   UNL     1      -7.380   3.075 -32.139  1.00  0.00     0.026 A 
HETATM   22  C   UNL     1      -6.481   5.287 -31.641  1.00  0.00     0.019 A 
HETATM   23  N   UNL     1      -7.184   1.716 -32.488  1.00  0.00    -0.266 NA
HETATM   24  C   UNL     1      -8.629   3.495 -31.680  1.00  0.00     0.024 A 
HETATM   25  H   UNL     1      -6.944   1.232 -31.621  1.00  0.00     0.130 HD
HETATM   26  C   UNL     1      -8.816   4.810 -31.243  1.00  0.00     0.002 A 
HETATM   27  C   UNL     1      -7.746   5.707 -31.233  1.00  0.00     0.001 A 
ENDBRANCH   8  15
TORSDOF 1
ENDMDL
MODEL 9
REMARK VINA RESULT:      -8.9      1.545      2.563
REMARK  1 active torsions:
REMARK  status: ('A' for Active; 'I' for Inactive)
REMARK    1  A    between atoms: C_8  and  C_9 
ROOT
HETATM    1  C   UNL     1      -2.293  -3.791 -31.479  1.00  0.00     0.049 C 
HETATM    2  C   UNL     1      -3.336  -3.678 -32.559  1.00  0.00    -0.050 A 
HETATM    3  C   UNL     1      -3.949  -2.453 -32.892  1.00  0.00    -0.002 A 
HETATM    4  C   UNL     1      -4.940  -2.421 -33.892  1.00  0.00     0.051 A 
HETATM    5  N   UNL     1      -5.575  -1.200 -34.167  1.00  0.00    -0.322 N 
HETATM    6  C   UNL     1      -5.299  -0.025 -33.529  1.00  0.00     0.255 A 
HETATM    7  O   UNL     1      -5.935   0.994 -33.789  1.00  0.00    -0.268 OA
HETATM    8  C   UNL     1      -4.187  -0.016 -32.537  1.00  0.00     0.048 A 
HETATM    9  C   UNL     1      -3.588  -1.186 -32.241  1.00  0.00     0.030 A 
HETATM   10  C   UNL     1      -5.306  -3.582 -34.593  1.00  0.00    -0.034 A 
HETATM   11  C   UNL     1      -6.335  -3.569 -35.688  1.00  0.00     0.050 C 
HETATM   12  C   UNL     1      -4.676  -4.787 -34.263  1.00  0.00     0.009 A 
HETATM   13  C   UNL     1      -3.710  -4.836 -33.257  1.00  0.00     0.008 A 
HETATM   14  H   UNL     1      -6.316  -1.153 -34.852  1.00  0.00     0.169 HD
ENDROOT
BRANCH   8  15
HETATM   15  C   UNL     1      -3.866   1.319 -31.904  1.00  0.00     0.202 C 
HETATM   16  N   UNL     1      -5.022   1.923 -31.310  1.00  0.00    -0.336 N 
HETATM   17  C   UNL     1      -4.915   3.170 -30.742  1.00  0.00     0.255 C 
HETATM   18  H   UNL     1      -5.600   1.306 -30.742  1.00  0.00     0.164 HD
HETATM   19  O   UNL     1      -5.651   3.538 -29.837  1.00  0.00    -0.268 OA
HETATM   20  C   UNL     1      -3.882   4.050 -31.323  1.00  0.00     0.053 A 
HETATM   21  C   UNL     1      -3.137   3.549 -32.397  1.00  0.00     0.026 A 
HETATM   22  C   UNL     1      -3.701   5.356 -30.860  1.00  0.00     0.019 A 
HETATM   23  N   UNL     1      -3.386   2.257 -32.925  1.00  0.00    -0.266 NA
HETATM   24  C   UNL     1      -2.262   4.408 -33.065  1.00  0.00     0.024 A 
HETATM   25  H   UNL     1      -4.137   2.369 -33.606  1.00  0.00     0.130 HD
HETATM   26  C   UNL     1      -2.076   5.717 -32.611  1.00  0.00     0.002 A 
HETATM   27  C   UNL     1      -2.787   6.188 -31.506  1.00  0.00     0.001 A 
ENDBRANCH   8  15
TORSDOF 1
ENDMDL
MODEL 10
REMARK VINA RESULT:      -8.9      2.044      3.149
REMARK  1 active torsions:
REMARK  status: ('A' for Active; 'I' for Inactive)
REMARK    1  A    between atoms: C_8  and  C_9 
ROOT
HETATM    1  C   UNL     1      -3.330  -1.920 -32.113  1.00  0.00     0.049 C 
HETATM    2  C   UNL     1      -4.457  -1.390 -32.959  1.00  0.00    -0.050 A 
HETATM    3  C   UNL     1      -4.782  -0.020 -33.013  1.00  0.00    -0.002 A 
HETATM    4  C   UNL     1      -5.867   0.407 -33.802  1.00  0.00     0.051 A 
HETATM    5  N   UNL     1      -6.205   1.769 -33.795  1.00  0.00    -0.322 N 
HETATM    6  C   UNL     1      -5.551   2.724 -33.071  1.00  0.00     0.255 A 
HETATM    7  O   UNL     1      -5.940   3.889 -33.076  1.00  0.00    -0.268 OA
HETATM    8  C   UNL     1      -4.341   2.311 -32.307  1.00  0.00     0.048 A 
HETATM    9  C   UNL     1      -4.020   1.002 -32.280  1.00  0.00     0.030 A 
HETATM   10  C   UNL     1      -6.614  -0.503 -34.569  1.00  0.00    -0.034 A 
HETATM   11  C   UNL     1      -7.754  -0.070 -35.445  1.00  0.00     0.050 C 
HETATM   12  C   UNL     1      -6.268  -1.859 -34.519  1.00  0.00     0.009 A 
HETATM   13  C   UNL     1      -5.209  -2.296 -33.721  1.00  0.00     0.008 A 
HETATM   14  H   UNL     1      -7.002   2.099 -34.321  1.00  0.00     0.169 HD
ENDROOT
BRANCH   8  15
HETATM   15  C   UNL     1      -3.603   3.410 -31.576  1.00  0.00     0.202 C 
HETATM   16  N   UNL     1      -4.500   4.385 -31.028  1.00  0.00    -0.336 N 
HETATM   17  C   UNL     1      -3.987   5.484 -30.382  1.00  0.00     0.255 C 
HETATM   18  H   UNL     1      -5.312   4.012 -30.539  1.00  0.00     0.164 HD
HETATM   19  O   UNL     1      -4.609   6.075 -29.510  1.00  0.00    -0.268 OA
HETATM   20  C   UNL     1      -2.656   5.930 -30.837  1.00  0.00     0.053 A 
HETATM   21  C   UNL     1      -2.060   5.218 -31.885  1.00  0.00     0.026 A 
HETATM   22  C   UNL     1      -2.044   7.060 -30.287  1.00  0.00     0.019 A 
HETATM   23  N   UNL     1      -2.724   4.129 -32.504  1.00  0.00    -0.266 NA
HETATM   24  C   UNL     1      -0.876   5.706 -32.439  1.00  0.00     0.024 A 
HETATM   25  H   UNL     1      -3.318   4.533 -33.228  1.00  0.00     0.130 HD
HETATM   26  C   UNL     1      -0.257   6.837 -31.898  1.00  0.00     0.002 A 
HETATM   27  C   UNL     1      -0.835   7.507 -30.818  1.00  0.00     0.001 A 
ENDBRANCH   8  15
TORSDOF 1
ENDMDL
