MODEL 1
REMARK VINA RESULT:      -7.4      0.000      0.000
REMARK  6 active torsions:
REMARK  status: ('A' for Active; 'I' for Inactive)
REMARK    1  A    between atoms: C_2  and  N_3 
REMARK    2  A    between atoms: C_2  and  C_16 
REMARK    3  A    between atoms: N_3  and  C_6 
REMARK    4  A    between atoms: C_16  and  C_17 
REMARK       I    between atoms: C_17  and  N_18 
REMARK    5  A    between atoms: N_18  and  C_19 
REMARK    6  A    between atoms: C_21  and  O_22 
ROOT
HETATM    1  C   UNL     1      -4.584   3.715 -32.959  1.00  0.00     0.040 C 
HETATM    2  C   UNL     1      -5.256   3.384 -31.634  1.00  0.00     0.191 C 
ENDROOT
BRANCH   2   3
HETATM    3  N   UNL     1      -5.256   1.888 -31.380  1.00  0.00    -0.063 N 
HETATM    4  H   UNL     1      -4.873   1.799 -30.416  1.00  0.00     0.278 HD
HETATM    5  H   UNL     1      -6.217   1.536 -31.304  1.00  0.00     0.278 HD
BRANCH   3   6
HETATM    6  C   UNL     1      -4.434   0.929 -32.220  1.00  0.00     0.221 C 
HETATM    7  C   UNL     1      -5.231   0.048 -33.154  1.00  0.00    -0.011 A 
HETATM    8  C   UNL     1      -4.998  -1.333 -33.270  1.00  0.00     0.009 A 
HETATM    9  C   UNL     1      -6.188   0.636 -34.011  1.00  0.00     0.011 A 
HETATM   10  C   UNL     1      -5.760  -2.102 -34.162  1.00  0.00     0.019 A 
HETATM   11  S   UNL     1      -3.741  -2.195 -32.347  1.00  0.00    -0.129 SA
HETATM   12  C   UNL     1      -6.725  -1.508 -34.971  1.00  0.00     0.001 A 
HETATM   13  C   UNL     1      -6.933  -0.137 -34.902  1.00  0.00     0.001 A 
HETATM   14  C   UNL     1      -2.616  -0.823 -32.007  1.00  0.00     0.082 C 
HETATM   15  C   UNL     1      -3.396   0.267 -31.299  1.00  0.00     0.048 C 
ENDBRANCH   3   6
ENDBRANCH   2   3
BRANCH   2  16
HETATM   16  C   UNL     1      -6.715   3.898 -31.637  1.00  0.00     0.135 C 
BRANCH  16  17
HETATM   17  C   UNL     1      -7.470   3.416 -30.424  1.00  0.00     0.224 C 
HETATM   18  N   UNL     1      -8.602   2.674 -30.503  1.00  0.00    -0.327 N 
HETATM   19  H   UNL     1      -8.980   2.492 -29.576  1.00  0.00     0.169 HD
HETATM   20  O   UNL     1      -7.001   3.659 -29.301  1.00  0.00    -0.273 OA
BRANCH  18  21
HETATM   21  C   UNL     1      -9.321   2.066 -31.553  1.00  0.00     0.037 A 
HETATM   22  C   UNL     1     -10.166   2.716 -32.458  1.00  0.00     0.066 A 
HETATM   23  C   UNL     1     -10.793   2.002 -33.489  1.00  0.00     0.070 A 
HETATM   24  C   UNL     1     -10.573   0.630 -33.615  1.00  0.00     0.037 A 
HETATM   25  C   UNL     1      -9.741  -0.032 -32.721  1.00  0.00     0.005 A 
HETATM   26  C   UNL     1      -9.120   0.684 -31.698  1.00  0.00     0.029 A 
BRANCH  23  27
HETATM   27  O   UNL     1     -11.626   2.522 -34.441  1.00  0.00    -0.356 OA
HETATM   28  C   UNL     1     -12.639   1.680 -34.971  1.00  0.00     0.210 C 
ENDBRANCH  23  27
ENDBRANCH  18  21
ENDBRANCH  16  17
ENDBRANCH   2  16
TORSDOF 6
ENDMDL
MODEL 2
REMARK VINA RESULT:      -7.4      3.734      6.421
REMARK  6 active torsions:
REMARK  status: ('A' for Active; 'I' for Inactive)
REMARK    1  A    between atoms: C_2  and  N_3 
REMARK    2  A    between atoms: C_2  and  C_16 
REMARK    3  A    between atoms: N_3  and  C_6 
REMARK    4  A    between atoms: C_16  and  C_17 
REMARK       I    between atoms: C_17  and  N_18 
REMARK    5  A    between atoms: N_18  and  C_19 
REMARK    6  A    between atoms: C_21  and  O_22 
ROOT
HETATM    1  C   UNL     1      -5.697   2.498 -31.052  1.00  0.00     0.040 C 
HETATM    2  C   UNL     1      -4.180   2.498 -30.933  1.00  0.00     0.191 C 
ENDROOT
BRANCH   2   3
HETATM    3  N   UNL     1      -3.623   3.905 -31.045  1.00  0.00    -0.063 N 
HETATM    4  H   UNL     1      -4.470   4.502 -31.144  1.00  0.00     0.278 HD
HETATM    5  H   UNL     1      -3.209   4.200 -30.153  1.00  0.00     0.278 HD
BRANCH   3   6
HETATM    6  C   UNL     1      -2.713   4.323 -32.184  1.00  0.00     0.221 C 
HETATM    7  C   UNL     1      -1.546   5.198 -31.788  1.00  0.00    -0.011 A 
HETATM    8  C   UNL     1      -1.198   6.359 -32.500  1.00  0.00     0.009 A 
HETATM    9  C   UNL     1      -0.716   4.800 -30.716  1.00  0.00     0.011 A 
HETATM   10  C   UNL     1      -0.097   7.128 -32.094  1.00  0.00     0.019 A 
HETATM   11  S   UNL     1      -2.074   6.920 -33.946  1.00  0.00    -0.129 SA
HETATM   12  C   UNL     1       0.687   6.737 -31.012  1.00  0.00     0.001 A 
HETATM   13  C   UNL     1       0.382   5.567 -30.328  1.00  0.00     0.001 A 
HETATM   14  C   UNL     1      -2.790   5.355 -34.497  1.00  0.00     0.082 C 
HETATM   15  C   UNL     1      -3.601   4.775 -33.355  1.00  0.00     0.048 C 
ENDBRANCH   3   6
ENDBRANCH   2   3
BRANCH   2  16
HETATM   16  C   UNL     1      -3.562   1.619 -32.046  1.00  0.00     0.135 C 
BRANCH  16  17
HETATM   17  C   UNL     1      -3.258   0.230 -31.544  1.00  0.00     0.224 C 
HETATM   18  N   UNL     1      -4.016  -0.851 -31.851  1.00  0.00    -0.327 N 
HETATM   19  H   UNL     1      -3.669  -1.682 -31.377  1.00  0.00     0.169 HD
HETATM   20  O   UNL     1      -2.231   0.058 -30.869  1.00  0.00    -0.273 OA
BRANCH  18  21
HETATM   21  C   UNL     1      -5.116  -1.086 -32.702  1.00  0.00     0.037 A 
HETATM   22  C   UNL     1      -6.402  -0.557 -32.553  1.00  0.00     0.066 A 
HETATM   23  C   UNL     1      -7.401  -0.833 -33.497  1.00  0.00     0.070 A 
HETATM   24  C   UNL     1      -7.112  -1.643 -34.596  1.00  0.00     0.037 A 
HETATM   25  C   UNL     1      -5.841  -2.180 -34.757  1.00  0.00     0.005 A 
HETATM   26  C   UNL     1      -4.851  -1.902 -33.815  1.00  0.00     0.029 A 
BRANCH  23  27
HETATM   27  O   UNL     1      -8.687  -0.368 -33.471  1.00  0.00    -0.356 OA
HETATM   28  C   UNL     1      -9.106   0.365 -32.330  1.00  0.00     0.210 C 
ENDBRANCH  23  27
ENDBRANCH  18  21
ENDBRANCH  16  17
ENDBRANCH   2  16
TORSDOF 6
ENDMDL
MODEL 3
REMARK VINA RESULT:      -7.1      3.134      6.560
REMARK  6 active torsions:
REMARK  status: ('A' for Active; 'I' for Inactive)
REMARK    1  A    between atoms: C_2  and  N_3 
REMARK    2  A    between atoms: C_2  and  C_16 
REMARK    3  A    between atoms: N_3  and  C_6 
REMARK    4  A    between atoms: C_16  and  C_17 
REMARK       I    between atoms: C_17  and  N_18 
REMARK    5  A    between atoms: N_18  and  C_19 
REMARK    6  A    between atoms: C_21  and  O_22 
ROOT
HETATM    1  C   UNL     1      -6.997   3.241 -30.185  1.00  0.00     0.040 C 
HETATM    2  C   UNL     1      -6.180   2.694 -31.346  1.00  0.00     0.191 C 
ENDROOT
BRANCH   2   3
HETATM    3  N   UNL     1      -5.726   1.272 -31.075  1.00  0.00    -0.063 N 
HETATM    4  H   UNL     1      -5.281   1.328 -30.136  1.00  0.00     0.278 HD
HETATM    5  H   UNL     1      -6.536   0.657 -30.935  1.00  0.00     0.278 HD
BRANCH   3   6
HETATM    6  C   UNL     1      -4.708   0.570 -31.953  1.00  0.00     0.221 C 
HETATM    7  C   UNL     1      -5.287  -0.370 -32.985  1.00  0.00    -0.011 A 
HETATM    8  C   UNL     1      -4.778  -1.662 -33.198  1.00  0.00     0.009 A 
HETATM    9  C   UNL     1      -6.322   0.086 -33.832  1.00  0.00     0.011 A 
HETATM   10  C   UNL     1      -5.347  -2.488 -34.178  1.00  0.00     0.019 A 
HETATM   11  S   UNL     1      -3.396  -2.331 -32.294  1.00  0.00    -0.129 SA
HETATM   12  C   UNL     1      -6.391  -2.032 -34.978  1.00  0.00     0.001 A 
HETATM   13  C   UNL     1      -6.873  -0.740 -34.810  1.00  0.00     0.001 A 
HETATM   14  C   UNL     1      -2.579  -0.796 -31.803  1.00  0.00     0.082 C 
HETATM   15  C   UNL     1      -3.580   0.053 -31.044  1.00  0.00     0.048 C 
ENDBRANCH   3   6
ENDBRANCH   2   3
BRANCH   2  16
HETATM   16  C   UNL     1      -4.938   3.586 -31.585  1.00  0.00     0.135 C 
BRANCH  16  17
HETATM   17  C   UNL     1      -4.842   4.022 -33.025  1.00  0.00     0.224 C 
HETATM   18  N   UNL     1      -3.864   4.838 -33.488  1.00  0.00    -0.327 N 
HETATM   19  H   UNL     1      -4.004   5.048 -34.474  1.00  0.00     0.169 HD
HETATM   20  O   UNL     1      -5.661   3.564 -33.837  1.00  0.00    -0.273 OA
BRANCH  18  21
HETATM   21  C   UNL     1      -2.693   5.400 -32.936  1.00  0.00     0.037 A 
HETATM   22  C   UNL     1      -1.666   4.701 -32.295  1.00  0.00     0.066 A 
HETATM   23  C   UNL     1      -0.528   5.376 -31.827  1.00  0.00     0.070 A 
HETATM   24  C   UNL     1      -0.419   6.755 -32.000  1.00  0.00     0.037 A 
HETATM   25  C   UNL     1      -1.434   7.465 -32.631  1.00  0.00     0.005 A 
HETATM   26  C   UNL     1      -2.562   6.790 -33.095  1.00  0.00     0.029 A 
BRANCH  23  27
HETATM   27  O   UNL     1       0.545   4.807 -31.199  1.00  0.00    -0.356 OA
HETATM   28  C   UNL     1       0.660   4.974 -29.794  1.00  0.00     0.210 C 
ENDBRANCH  23  27
ENDBRANCH  18  21
ENDBRANCH  16  17
ENDBRANCH   2  16
TORSDOF 6
ENDMDL
MODEL 4
REMARK VINA RESULT:      -7.1      2.651      5.617
REMARK  6 active torsions:
REMARK  status: ('A' for Active; 'I' for Inactive)
REMARK    1  A    between atoms: C_2  and  N_3 
REMARK    2  A    between atoms: C_2  and  C_16 
REMARK    3  A    between atoms: N_3  and  C_6 
REMARK    4  A    between atoms: C_16  and  C_17 
REMARK       I    between atoms: C_17  and  N_18 
REMARK    5  A    between atoms: N_18  and  C_19 
REMARK    6  A    between atoms: C_21  and  O_22 
ROOT
HETATM    1  C   UNL     1      -6.717   2.648 -30.733  1.00  0.00     0.040 C 
HETATM    2  C   UNL     1      -7.083   1.786 -31.933  1.00  0.00     0.191 C 
ENDROOT
BRANCH   2   3
HETATM    3  N   UNL     1      -6.565   0.369 -31.766  1.00  0.00    -0.063 N 
HETATM    4  H   UNL     1      -6.456   0.263 -30.736  1.00  0.00     0.278 HD
HETATM    5  H   UNL     1      -7.292  -0.311 -32.015  1.00  0.00     0.278 HD
BRANCH   3   6
HETATM    6  C   UNL     1      -5.238  -0.078 -32.350  1.00  0.00     0.221 C 
HETATM    7  C   UNL     1      -5.312  -1.264 -33.282  1.00  0.00    -0.011 A 
HETATM    8  C   UNL     1      -4.423  -2.349 -33.194  1.00  0.00     0.009 A 
HETATM    9  C   UNL     1      -6.250  -1.256 -34.339  1.00  0.00     0.011 A 
HETATM   10  C   UNL     1      -4.530  -3.420 -34.093  1.00  0.00     0.019 A 
HETATM   11  S   UNL     1      -3.110  -2.443 -31.994  1.00  0.00    -0.129 SA
HETATM   12  C   UNL     1      -5.486  -3.409 -35.106  1.00  0.00     0.001 A 
HETATM   13  C   UNL     1      -6.341  -2.322 -35.234  1.00  0.00     0.001 A 
HETATM   14  C   UNL     1      -2.879  -0.684 -31.654  1.00  0.00     0.082 C 
HETATM   15  C   UNL     1      -4.208  -0.107 -31.209  1.00  0.00     0.048 C 
ENDBRANCH   3   6
ENDBRANCH   2   3
BRANCH   2  16
HETATM   16  C   UNL     1      -6.486   2.395 -33.224  1.00  0.00     0.135 C 
BRANCH  16  17
HETATM   17  C   UNL     1      -6.850   3.851 -33.365  1.00  0.00     0.224 C 
HETATM   18  N   UNL     1      -5.927   4.841 -33.434  1.00  0.00    -0.327 N 
HETATM   19  H   UNL     1      -6.377   5.753 -33.481  1.00  0.00     0.169 HD
HETATM   20  O   UNL     1      -8.047   4.152 -33.485  1.00  0.00    -0.273 OA
BRANCH  18  21
HETATM   21  C   UNL     1      -4.519   4.886 -33.510  1.00  0.00     0.037 A 
HETATM   22  C   UNL     1      -3.628   4.606 -32.470  1.00  0.00     0.066 A 
HETATM   23  C   UNL     1      -2.242   4.643 -32.688  1.00  0.00     0.070 A 
HETATM   24  C   UNL     1      -1.747   4.962 -33.952  1.00  0.00     0.037 A 
HETATM   25  C   UNL     1      -2.619   5.249 -34.995  1.00  0.00     0.005 A 
HETATM   26  C   UNL     1      -3.996   5.210 -34.773  1.00  0.00     0.029 A 
BRANCH  23  27
HETATM   27  O   UNL     1      -1.273   4.377 -31.761  1.00  0.00    -0.356 OA
HETATM   28  C   UNL     1      -0.561   5.474 -31.208  1.00  0.00     0.210 C 
ENDBRANCH  23  27
ENDBRANCH  18  21
ENDBRANCH  16  17
ENDBRANCH   2  16
TORSDOF 6
ENDMDL
MODEL 5
REMARK VINA RESULT:      -7.1      3.645      7.244
REMARK  6 active torsions:
REMARK  status: ('A' for Active; 'I' for Inactive)
REMARK    1  A    between atoms: C_2  and  N_3 
REMARK    2  A    between atoms: C_2  and  C_16 
REMARK    3  A    between atoms: N_3  and  C_6 
REMARK    4  A    between atoms: C_16  and  C_17 
REMARK       I    between atoms: C_17  and  N_18 
REMARK    5  A    between atoms: N_18  and  C_19 
REMARK    6  A    between atoms: C_21  and  O_22 
ROOT
HETATM    1  C   UNL     1      -4.900   4.457 -30.914  1.00  0.00     0.040 C 
HETATM    2  C   UNL     1      -5.571   4.360 -32.276  1.00  0.00     0.191 C 
ENDROOT
BRANCH   2   3
HETATM    3  N   UNL     1      -5.124   3.114 -33.018  1.00  0.00    -0.063 N 
HETATM    4  H   UNL     1      -5.155   3.396 -34.019  1.00  0.00     0.278 HD
HETATM    5  H   UNL     1      -4.132   2.925 -32.838  1.00  0.00     0.278 HD
BRANCH   3   6
HETATM    6  C   UNL     1      -5.904   1.814 -32.951  1.00  0.00     0.221 C 
HETATM    7  C   UNL     1      -5.068   0.573 -32.739  1.00  0.00    -0.011 A 
HETATM    8  C   UNL     1      -5.250  -0.597 -33.494  1.00  0.00     0.009 A 
HETATM    9  C   UNL     1      -4.124   0.547 -31.688  1.00  0.00     0.011 A 
HETATM   10  C   UNL     1      -4.454  -1.724 -33.247  1.00  0.00     0.019 A 
HETATM   11  S   UNL     1      -6.485  -0.757 -34.769  1.00  0.00    -0.129 SA
HETATM   12  C   UNL     1      -3.503  -1.717 -32.230  1.00  0.00     0.001 A 
HETATM   13  C   UNL     1      -3.344  -0.583 -31.444  1.00  0.00     0.001 A 
HETATM   14  C   UNL     1      -7.661   0.498 -34.215  1.00  0.00     0.082 C 
HETATM   15  C   UNL     1      -6.927   1.819 -34.099  1.00  0.00     0.048 C 
ENDBRANCH   3   6
ENDBRANCH   2   3
BRANCH   2  16
HETATM   16  C   UNL     1      -5.227   5.607 -33.125  1.00  0.00     0.135 C 
BRANCH  16  17
HETATM   17  C   UNL     1      -4.299   5.259 -34.262  1.00  0.00     0.224 C 
HETATM   18  N   UNL     1      -2.952   5.396 -34.186  1.00  0.00    -0.327 N 
HETATM   19  H   UNL     1      -2.514   5.152 -35.071  1.00  0.00     0.169 HD
HETATM   20  O   UNL     1      -4.784   4.768 -35.292  1.00  0.00    -0.273 OA
BRANCH  18  21
HETATM   21  C   UNL     1      -2.042   5.738 -33.164  1.00  0.00     0.037 A 
HETATM   22  C   UNL     1      -1.372   4.844 -32.323  1.00  0.00     0.066 A 
HETATM   23  C   UNL     1      -0.455   5.311 -31.370  1.00  0.00     0.070 A 
HETATM   24  C   UNL     1      -0.209   6.679 -31.257  1.00  0.00     0.037 A 
HETATM   25  C   UNL     1      -0.871   7.582 -32.081  1.00  0.00     0.005 A 
HETATM   26  C   UNL     1      -1.781   7.111 -33.027  1.00  0.00     0.029 A 
BRANCH  23  27
HETATM   27  O   UNL     1       0.271   4.541 -30.504  1.00  0.00    -0.356 OA
HETATM   28  C   UNL     1       0.733   5.145 -29.304  1.00  0.00     0.210 C 
ENDBRANCH  23  27
ENDBRANCH  18  21
ENDBRANCH  16  17
ENDBRANCH   2  16
TORSDOF 6
ENDMDL
MODEL 6
REMARK VINA RESULT:      -7.1      2.115      3.388
REMARK  6 active torsions:
REMARK  status: ('A' for Active; 'I' for Inactive)
REMARK    1  A    between atoms: C_2  and  N_3 
REMARK    2  A    between atoms: C_2  and  C_16 
REMARK    3  A    between atoms: N_3  and  C_6 
REMARK    4  A    between atoms: C_16  and  C_17 
REMARK       I    between atoms: C_17  and  N_18 
REMARK    5  A    between atoms: N_18  and  C_19 
REMARK    6  A    between atoms: C_21  and  O_22 
ROOT
HETATM    1  C   UNL     1      -9.815  -0.083 -32.529  1.00  0.00     0.040 C 
HETATM    2  C   UNL     1      -8.642   0.846 -32.809  1.00  0.00     0.191 C 
ENDROOT
BRANCH   2   3
HETATM    3  N   UNL     1      -7.399   0.395 -32.065  1.00  0.00    -0.063 N 
HETATM    4  H   UNL     1      -7.286   1.107 -31.314  1.00  0.00     0.278 HD
HETATM    5  H   UNL     1      -7.579  -0.480 -31.559  1.00  0.00     0.278 HD
BRANCH   3   6
HETATM    6  C   UNL     1      -6.041   0.316 -32.738  1.00  0.00     0.221 C 
HETATM    7  C   UNL     1      -5.711  -1.019 -33.365  1.00  0.00    -0.011 A 
HETATM    8  C   UNL     1      -4.469  -1.651 -33.183  1.00  0.00     0.009 A 
HETATM    9  C   UNL     1      -6.644  -1.623 -34.237  1.00  0.00     0.011 A 
HETATM   10  C   UNL     1      -4.212  -2.884 -33.798  1.00  0.00     0.019 A 
HETATM   11  S   UNL     1      -3.148  -0.952 -32.213  1.00  0.00    -0.129 SA
HETATM   12  C   UNL     1      -5.160  -3.481 -34.625  1.00  0.00     0.001 A 
HETATM   13  C   UNL     1      -6.374  -2.845 -34.852  1.00  0.00     0.001 A 
HETATM   14  C   UNL     1      -3.592   0.797 -32.307  1.00  0.00     0.082 C 
HETATM   15  C   UNL     1      -5.010   0.956 -31.795  1.00  0.00     0.048 C 
ENDBRANCH   3   6
ENDBRANCH   2   3
BRANCH   2  16
HETATM   16  C   UNL     1      -8.996   2.289 -32.379  1.00  0.00     0.135 C 
BRANCH  16  17
HETATM   17  C   UNL     1      -9.270   3.167 -33.573  1.00  0.00     0.224 C 
HETATM   18  N   UNL     1     -10.475   3.222 -34.192  1.00  0.00    -0.327 N 
HETATM   19  H   UNL     1     -10.439   3.838 -35.000  1.00  0.00     0.169 HD
HETATM   20  O   UNL     1      -8.369   3.922 -33.971  1.00  0.00    -0.273 OA
BRANCH  18  21
HETATM   21  C   UNL     1     -11.749   2.673 -33.937  1.00  0.00     0.037 A 
HETATM   22  C   UNL     1     -12.646   3.093 -32.950  1.00  0.00     0.066 A 
HETATM   23  C   UNL     1     -13.907   2.490 -32.828  1.00  0.00     0.070 A 
HETATM   24  C   UNL     1     -14.271   1.462 -33.697  1.00  0.00     0.037 A 
HETATM   25  C   UNL     1     -13.389   1.029 -34.680  1.00  0.00     0.005 A 
HETATM   26  C   UNL     1     -12.138   1.632 -34.797  1.00  0.00     0.029 A 
BRANCH  23  27
HETATM   27  O   UNL     1     -14.873   2.818 -31.918  1.00  0.00    -0.356 OA
HETATM   28  C   UNL     1     -16.177   2.290 -32.112  1.00  0.00     0.210 C 
ENDBRANCH  23  27
ENDBRANCH  18  21
ENDBRANCH  16  17
ENDBRANCH   2  16
TORSDOF 6
ENDMDL
MODEL 7
REMARK VINA RESULT:      -7.1      2.875      6.382
REMARK  6 active torsions:
REMARK  status: ('A' for Active; 'I' for Inactive)
REMARK    1  A    between atoms: C_2  and  N_3 
REMARK    2  A    between atoms: C_2  and  C_16 
REMARK    3  A    between atoms: N_3  and  C_6 
REMARK    4  A    between atoms: C_16  and  C_17 
REMARK       I    between atoms: C_17  and  N_18 
REMARK    5  A    between atoms: N_18  and  C_19 
REMARK    6  A    between atoms: C_21  and  O_22 
ROOT
HETATM    1  C   UNL     1      -7.949   1.683 -32.088  1.00  0.00     0.040 C 
HETATM    2  C   UNL     1      -7.265   2.289 -33.305  1.00  0.00     0.191 C 
ENDROOT
BRANCH   2   3
HETATM    3  N   UNL     1      -6.486   1.238 -34.074  1.00  0.00    -0.063 N 
HETATM    4  H   UNL     1      -6.924   1.244 -35.018  1.00  0.00     0.278 HD
HETATM    5  H   UNL     1      -5.523   1.553 -34.239  1.00  0.00     0.278 HD
BRANCH   3   6
HETATM    6  C   UNL     1      -6.473  -0.221 -33.656  1.00  0.00     0.221 C 
HETATM    7  C   UNL     1      -5.192  -0.693 -33.009  1.00  0.00    -0.011 A 
HETATM    8  C   UNL     1      -4.563  -1.897 -33.371  1.00  0.00     0.009 A 
HETATM    9  C   UNL     1      -4.642   0.050 -31.941  1.00  0.00     0.011 A 
HETATM   10  C   UNL     1      -3.381  -2.293 -32.729  1.00  0.00     0.019 A 
HETATM   11  S   UNL     1      -5.206  -3.002 -34.612  1.00  0.00    -0.129 SA
HETATM   12  C   UNL     1      -2.835  -1.526 -31.703  1.00  0.00     0.001 A 
HETATM   13  C   UNL     1      -3.471  -0.358 -31.303  1.00  0.00     0.001 A 
HETATM   14  C   UNL     1      -6.951  -2.538 -34.561  1.00  0.00     0.082 C 
HETATM   15  C   UNL     1      -7.055  -1.047 -34.815  1.00  0.00     0.048 C 
ENDBRANCH   3   6
ENDBRANCH   2   3
BRANCH   2  16
HETATM   16  C   UNL     1      -6.300   3.414 -32.864  1.00  0.00     0.135 C 
BRANCH  16  17
HETATM   17  C   UNL     1      -6.465   4.647 -33.716  1.00  0.00     0.224 C 
HETATM   18  N   UNL     1      -5.440   5.480 -34.020  1.00  0.00    -0.327 N 
HETATM   19  H   UNL     1      -5.768   6.274 -34.566  1.00  0.00     0.169 HD
HETATM   20  O   UNL     1      -7.578   4.876 -34.214  1.00  0.00    -0.273 OA
BRANCH  18  21
HETATM   21  C   UNL     1      -4.046   5.463 -33.802  1.00  0.00     0.037 A 
HETATM   22  C   UNL     1      -3.404   5.575 -32.565  1.00  0.00     0.066 A 
HETATM   23  C   UNL     1      -2.006   5.499 -32.478  1.00  0.00     0.070 A 
HETATM   24  C   UNL     1      -1.248   5.312 -33.634  1.00  0.00     0.037 A 
HETATM   25  C   UNL     1      -1.870   5.205 -34.871  1.00  0.00     0.005 A 
HETATM   26  C   UNL     1      -3.260   5.280 -34.952  1.00  0.00     0.029 A 
BRANCH  23  27
HETATM   27  O   UNL     1      -1.263   5.579 -31.332  1.00  0.00    -0.356 OA
HETATM   28  C   UNL     1      -0.224   6.545 -31.279  1.00  0.00     0.210 C 
ENDBRANCH  23  27
ENDBRANCH  18  21
ENDBRANCH  16  17
ENDBRANCH   2  16
TORSDOF 6
ENDMDL
MODEL 8
REMARK VINA RESULT:      -7.1      2.089      3.151
REMARK  6 active torsions:
REMARK  status: ('A' for Active; 'I' for Inactive)
REMARK    1  A    between atoms: C_2  and  N_3 
REMARK    2  A    between atoms: C_2  and  C_16 
REMARK    3  A    between atoms: N_3  and  C_6 
REMARK    4  A    between atoms: C_16  and  C_17 
REMARK       I    between atoms: C_17  and  N_18 
REMARK    5  A    between atoms: N_18  and  C_19 
REMARK    6  A    between atoms: C_21  and  O_22 
ROOT
HETATM    1  C   UNL     1      -8.192   0.333 -35.017  1.00  0.00     0.040 C 
HETATM    2  C   UNL     1      -7.152   0.890 -34.056  1.00  0.00     0.191 C 
ENDROOT
BRANCH   2   3
HETATM    3  N   UNL     1      -6.551  -0.211 -33.203  1.00  0.00    -0.063 N 
HETATM    4  H   UNL     1      -6.544   0.192 -32.244  1.00  0.00     0.278 HD
HETATM    5  H   UNL     1      -7.194  -1.008 -33.139  1.00  0.00     0.278 HD
BRANCH   3   6
HETATM    6  C   UNL     1      -5.140  -0.722 -33.426  1.00  0.00     0.221 C 
HETATM    7  C   UNL     1      -5.035  -2.184 -33.792  1.00  0.00    -0.011 A 
HETATM    8  C   UNL     1      -4.110  -3.050 -33.185  1.00  0.00     0.009 A 
HETATM    9  C   UNL     1      -5.832  -2.692 -34.843  1.00  0.00     0.011 A 
HETATM   10  C   UNL     1      -4.048  -4.396 -33.572  1.00  0.00     0.019 A 
HETATM   11  S   UNL     1      -2.955  -2.526 -31.934  1.00  0.00    -0.129 SA
HETATM   12  C   UNL     1      -4.868  -4.886 -34.585  1.00  0.00     0.001 A 
HETATM   13  C   UNL     1      -5.755  -4.031 -35.227  1.00  0.00     0.001 A 
HETATM   14  C   UNL     1      -2.859  -0.764 -32.324  1.00  0.00     0.082 C 
HETATM   15  C   UNL     1      -4.261  -0.191 -32.281  1.00  0.00     0.048 C 
ENDBRANCH   3   6
ENDBRANCH   2   3
BRANCH   2  16
HETATM   16  C   UNL     1      -7.798   1.950 -33.134  1.00  0.00     0.135 C 
BRANCH  16  17
HETATM   17  C   UNL     1      -8.810   1.329 -32.204  1.00  0.00     0.224 C 
HETATM   18  N   UNL     1     -10.148   1.482 -32.357  1.00  0.00    -0.327 N 
HETATM   19  H   UNL     1     -10.653   1.023 -31.602  1.00  0.00     0.169 HD
HETATM   20  O   UNL     1      -8.401   0.591 -31.294  1.00  0.00    -0.273 OA
BRANCH  18  21
HETATM   21  C   UNL     1     -10.977   2.074 -33.333  1.00  0.00     0.037 A 
HETATM   22  C   UNL     1     -11.099   3.443 -33.592  1.00  0.00     0.066 A 
HETATM   23  C   UNL     1     -11.929   3.903 -34.625  1.00  0.00     0.070 A 
HETATM   24  C   UNL     1     -12.640   2.989 -35.403  1.00  0.00     0.037 A 
HETATM   25  C   UNL     1     -12.534   1.626 -35.155  1.00  0.00     0.005 A 
HETATM   26  C   UNL     1     -11.707   1.174 -34.127  1.00  0.00     0.029 A 
BRANCH  23  27
HETATM   27  O   UNL     1     -12.121   5.208 -34.984  1.00  0.00    -0.356 OA
HETATM   28  C   UNL     1     -10.978   5.987 -35.304  1.00  0.00     0.210 C 
ENDBRANCH  23  27
ENDBRANCH  18  21
ENDBRANCH  16  17
ENDBRANCH   2  16
TORSDOF 6
ENDMDL
MODEL 9
REMARK VINA RESULT:      -7.0      3.181      5.999
REMARK  6 active torsions:
REMARK  status: ('A' for Active; 'I' for Inactive)
REMARK    1  A    between atoms: C_2  and  N_3 
REMARK    2  A    between atoms: C_2  and  C_16 
REMARK    3  A    between atoms: N_3  and  C_6 
REMARK    4  A    between atoms: C_16  and  C_17 
REMARK       I    between atoms: C_17  and  N_18 
REMARK    5  A    between atoms: N_18  and  C_19 
REMARK    6  A    between atoms: C_21  and  O_22 
ROOT
HETATM    1  C   UNL     1      -6.341   0.265 -29.537  1.00  0.00     0.040 C 
HETATM    2  C   UNL     1      -5.366   1.089 -30.365  1.00  0.00     0.191 C 
ENDROOT
BRANCH   2   3
HETATM    3  N   UNL     1      -6.070   1.759 -31.530  1.00  0.00    -0.063 N 
HETATM    4  H   UNL     1      -5.398   2.490 -31.840  1.00  0.00     0.278 HD
HETATM    5  H   UNL     1      -6.133   1.118 -32.330  1.00  0.00     0.278 HD
BRANCH   3   6
HETATM    6  C   UNL     1      -7.392   2.486 -31.364  1.00  0.00     0.221 C 
HETATM    7  C   UNL     1      -8.552   1.895 -32.132  1.00  0.00    -0.011 A 
HETATM    8  C   UNL     1      -9.434   2.684 -32.889  1.00  0.00     0.009 A 
HETATM    9  C   UNL     1      -8.820   0.512 -32.024  1.00  0.00     0.011 A 
HETATM   10  C   UNL     1     -10.502   2.085 -33.573  1.00  0.00     0.019 A 
HETATM   11  S   UNL     1      -9.297   4.456 -33.018  1.00  0.00    -0.129 SA
HETATM   12  C   UNL     1     -10.727   0.714 -33.483  1.00  0.00     0.001 A 
HETATM   13  C   UNL     1      -9.891  -0.072 -32.700  1.00  0.00     0.001 A 
HETATM   14  C   UNL     1      -8.399   4.806 -31.490  1.00  0.00     0.082 C 
HETATM   15  C   UNL     1      -7.120   3.993 -31.494  1.00  0.00     0.048 C 
ENDBRANCH   3   6
ENDBRANCH   2   3
BRANCH   2  16
HETATM   16  C   UNL     1      -4.236   0.184 -30.908  1.00  0.00     0.135 C 
BRANCH  16  17
HETATM   17  C   UNL     1      -3.685   0.711 -32.209  1.00  0.00     0.224 C 
HETATM   18  N   UNL     1      -3.921   0.121 -33.407  1.00  0.00    -0.327 N 
HETATM   19  H   UNL     1      -3.425   0.603 -34.152  1.00  0.00     0.169 HD
HETATM   20  O   UNL     1      -3.037   1.768 -32.191  1.00  0.00    -0.273 OA
BRANCH  18  21
HETATM   21  C   UNL     1      -4.726  -0.952 -33.846  1.00  0.00     0.037 A 
HETATM   22  C   UNL     1      -4.331  -2.289 -33.951  1.00  0.00     0.066 A 
HETATM   23  C   UNL     1      -5.244  -3.272 -34.361  1.00  0.00     0.070 A 
HETATM   24  C   UNL     1      -6.557  -2.915 -34.669  1.00  0.00     0.037 A 
HETATM   25  C   UNL     1      -6.963  -1.589 -34.575  1.00  0.00     0.005 A 
HETATM   26  C   UNL     1      -6.052  -0.616 -34.166  1.00  0.00     0.029 A 
BRANCH  23  27
HETATM   27  O   UNL     1      -4.987  -4.609 -34.489  1.00  0.00    -0.356 OA
HETATM   28  C   UNL     1      -3.964  -5.171 -33.681  1.00  0.00     0.210 C 
ENDBRANCH  23  27
ENDBRANCH  18  21
ENDBRANCH  16  17
ENDBRANCH   2  16
TORSDOF 6
ENDMDL
MODEL 10
REMARK VINA RESULT:      -7.0      3.315      6.669
REMARK  6 active torsions:
REMARK  status: ('A' for Active; 'I' for Inactive)
REMARK    1  A    between atoms: C_2  and  N_3 
REMARK    2  A    between atoms: C_2  and  C_16 
REMARK    3  A    between atoms: N_3  and  C_6 
REMARK    4  A    between atoms: C_16  and  C_17 
REMARK       I    between atoms: C_17  and  N_18 
REMARK    5  A    between atoms: N_18  and  C_19 
REMARK    6  A    between atoms: C_21  and  O_22 
ROOT
HETATM    1  C   UNL     1      -5.655   4.350 -30.440  1.00  0.00     0.040 C 
HETATM    2  C   UNL     1      -6.011   3.321 -31.502  1.00  0.00     0.191 C 
ENDROOT
BRANCH   2   3
HETATM    3  N   UNL     1      -6.361   1.985 -30.874  1.00  0.00    -0.063 N 
HETATM    4  H   UNL     1      -5.472   1.447 -30.921  1.00  0.00     0.278 HD
HETATM    5  H   UNL     1      -6.537   2.095 -29.868  1.00  0.00     0.278 HD
BRANCH   3   6
HETATM    6  C   UNL     1      -7.410   1.064 -31.469  1.00  0.00     0.221 C 
HETATM    7  C   UNL     1      -6.917   0.154 -32.570  1.00  0.00    -0.011 A 
HETATM    8  C   UNL     1      -7.618  -0.020 -33.775  1.00  0.00     0.009 A 
HETATM    9  C   UNL     1      -5.755  -0.622 -32.357  1.00  0.00     0.011 A 
HETATM   10  C   UNL     1      -7.120  -0.887 -34.758  1.00  0.00     0.019 A 
HETATM   11  S   UNL     1      -9.161   0.794 -34.136  1.00  0.00    -0.129 SA
HETATM   12  C   UNL     1      -5.953  -1.615 -34.544  1.00  0.00     0.001 A 
HETATM   13  C   UNL     1      -5.275  -1.489 -33.339  1.00  0.00     0.001 A 
HETATM   14  C   UNL     1      -9.743   1.106 -32.454  1.00  0.00     0.082 C 
HETATM   15  C   UNL     1      -8.677   1.896 -31.721  1.00  0.00     0.048 C 
ENDBRANCH   3   6
ENDBRANCH   2   3
BRANCH   2  16
HETATM   16  C   UNL     1      -4.822   3.129 -32.473  1.00  0.00     0.135 C 
BRANCH  16  17
HETATM   17  C   UNL     1      -3.532   2.906 -31.726  1.00  0.00     0.224 C 
HETATM   18  N   UNL     1      -2.460   3.730 -31.836  1.00  0.00    -0.327 N 
HETATM   19  H   UNL     1      -1.678   3.380 -31.288  1.00  0.00     0.169 HD
HETATM   20  O   UNL     1      -3.468   1.961 -30.925  1.00  0.00    -0.273 OA
BRANCH  18  21
HETATM   21  C   UNL     1      -2.214   4.960 -32.480  1.00  0.00     0.037 A 
HETATM   22  C   UNL     1      -2.396   6.231 -31.927  1.00  0.00     0.066 A 
HETATM   23  C   UNL     1      -2.071   7.382 -32.660  1.00  0.00     0.070 A 
HETATM   24  C   UNL     1      -1.561   7.260 -33.953  1.00  0.00     0.037 A 
HETATM   25  C   UNL     1      -1.379   6.004 -34.519  1.00  0.00     0.005 A 
HETATM   26  C   UNL     1      -1.704   4.864 -33.786  1.00  0.00     0.029 A 
BRANCH  23  27
HETATM   27  O   UNL     1      -2.190   8.674 -32.229  1.00  0.00    -0.356 OA
HETATM   28  C   UNL     1      -2.375   8.898 -30.839  1.00  0.00     0.210 C 
ENDBRANCH  23  27
ENDBRANCH  18  21
ENDBRANCH  16  17
ENDBRANCH   2  16
TORSDOF 6
ENDMDL
