MODEL 1
REMARK VINA RESULT:     -10.1      0.000      0.000
REMARK  6 active torsions:
REMARK  status: ('A' for Active; 'I' for Inactive)
REMARK    1  A    between atoms: C_7  and  C_8 
REMARK    2  A    between atoms: C_8  and  C_9 
REMARK    3  A    between atoms: C_9  and  N_10 
REMARK    4  A    between atoms: C_12  and  C_13 
REMARK    5  A    between atoms: C_13  and  N_14 
REMARK    6  A    between atoms: C_36  and  O_37 
ROOT
HETATM    1  N   UNL     1      -5.962   3.430 -31.166  1.00  0.00    -0.054 N 
HETATM    2  H   UNL     1      -5.847   4.301 -31.712  1.00  0.00     0.281 HD
HETATM    3  C   UNL     1      -6.732   2.544 -32.156  1.00  0.00     0.240 C 
HETATM    4  C   UNL     1      -8.015   3.265 -32.554  1.00  0.00    -0.020 A 
HETATM    5  C   UNL     1      -8.630   4.190 -31.682  1.00  0.00    -0.048 A 
HETATM    6  C   UNL     1      -7.996   4.606 -30.377  1.00  0.00     0.067 C 
HETATM    7  C   UNL     1      -6.789   3.770 -29.957  1.00  0.00     0.241 C 
HETATM    8  C   UNL     1      -8.618   2.980 -33.791  1.00  0.00     0.010 A 
HETATM    9  C   UNL     1      -9.813   3.600 -34.156  1.00  0.00     0.001 A 
HETATM   10  C   UNL     1     -10.418   4.510 -33.295  1.00  0.00     0.001 A 
HETATM   11  C   UNL     1      -9.830   4.808 -32.067  1.00  0.00     0.008 A 
ENDROOT
BRANCH   1  12
HETATM   12  C   UNL     1      -4.516   3.063 -30.845  1.00  0.00     0.319 C 
BRANCH  12  13
HETATM   13  C   UNL     1      -3.597   3.121 -32.056  1.00  0.00     0.188 C 
HETATM   14  O   UNL     1      -3.401   2.071 -32.677  1.00  0.00    -0.290 OA
BRANCH  13  15
HETATM   15  C   UNL     1      -3.030   4.408 -32.469  1.00  0.00     0.046 A 
HETATM   16  C   UNL     1      -3.545   5.182 -33.506  1.00  0.00     0.020 A 
HETATM   17  C   UNL     1      -4.683   4.944 -34.439  1.00  0.00     0.069 C 
HETATM   18  N   UNL     1      -2.810   6.336 -33.584  1.00  0.00    -0.358 N 
HETATM   19  H   UNL     1      -2.977   7.091 -34.239  1.00  0.00     0.166 HD
HETATM   20  C   UNL     1      -1.812   6.334 -32.644  1.00  0.00     0.043 A 
HETATM   21  C   UNL     1      -1.904   5.136 -31.935  1.00  0.00     0.009 A 
HETATM   22  C   UNL     1      -0.849   7.313 -32.374  1.00  0.00     0.033 A 
HETATM   23  C   UNL     1      -0.952   4.924 -30.909  1.00  0.00     0.051 A 
HETATM   24  C   UNL     1       0.035   5.882 -30.630  1.00  0.00     0.069 A 
HETATM   25  C   UNL     1       0.076   7.068 -31.353  1.00  0.00     0.039 A 
BRANCH  24  26
HETATM   26  O   UNL     1       0.889   5.521 -29.623  1.00  0.00    -0.356 OA
HETATM   27  C   UNL     1       0.563   5.969 -28.311  1.00  0.00     0.210 C 
ENDBRANCH  24  26
ENDBRANCH  13  15
ENDBRANCH  12  13
ENDBRANCH   1  12
BRANCH   3  28
HETATM   28  C   UNL     1      -7.111   1.127 -31.625  1.00  0.00     0.173 C 
BRANCH  28  29
HETATM   29  N   UNL     1      -6.617   0.005 -32.402  1.00  0.00    -0.278 N 
HETATM   30  C   UNL     1      -7.321  -0.621 -33.392  1.00  0.00     0.261 A 
HETATM   31  O   UNL     1      -8.489  -0.452 -33.684  1.00  0.00    -0.267 OA
HETATM   32  C   UNL     1      -6.451  -1.674 -33.918  1.00  0.00     0.048 A 
HETATM   33  C   UNL     1      -5.284  -1.662 -33.169  1.00  0.00     0.048 A 
HETATM   34  C   UNL     1      -6.677  -2.609 -34.907  1.00  0.00     0.018 A 
HETATM   35  C   UNL     1      -5.412  -0.599 -32.175  1.00  0.00     0.261 A 
HETATM   36  C   UNL     1      -4.274  -2.579 -33.373  1.00  0.00     0.018 A 
HETATM   37  O   UNL     1      -4.638  -0.369 -31.267  1.00  0.00    -0.267 OA
HETATM   38  C   UNL     1      -4.473  -3.529 -34.378  1.00  0.00     0.001 A 
HETATM   39  C   UNL     1      -5.664  -3.545 -35.137  1.00  0.00     0.001 A 
ENDBRANCH  28  29
ENDBRANCH   3  28
TORSDOF 6
ENDMDL
MODEL 2
REMARK VINA RESULT:     -10.0      2.712      6.186
REMARK  6 active torsions:
REMARK  status: ('A' for Active; 'I' for Inactive)
REMARK    1  A    between atoms: C_7  and  C_8 
REMARK    2  A    between atoms: C_8  and  C_9 
REMARK    3  A    between atoms: C_9  and  N_10 
REMARK    4  A    between atoms: C_12  and  C_13 
REMARK    5  A    between atoms: C_13  and  N_14 
REMARK    6  A    between atoms: C_36  and  O_37 
ROOT
HETATM    1  N   UNL     1      -6.562   2.235 -34.006  1.00  0.00    -0.054 N 
HETATM    2  H   UNL     1      -5.756   2.184 -34.654  1.00  0.00     0.281 HD
HETATM    3  C   UNL     1      -6.048   1.426 -32.808  1.00  0.00     0.240 C 
HETATM    4  C   UNL     1      -5.662   0.033 -33.293  1.00  0.00    -0.020 A 
HETATM    5  C   UNL     1      -6.284  -0.541 -34.423  1.00  0.00    -0.048 A 
HETATM    6  C   UNL     1      -7.265   0.226 -35.275  1.00  0.00     0.067 C 
HETATM    7  C   UNL     1      -7.721   1.559 -34.684  1.00  0.00     0.241 C 
HETATM    8  C   UNL     1      -4.698  -0.707 -32.588  1.00  0.00     0.010 A 
HETATM    9  C   UNL     1      -4.361  -1.997 -32.993  1.00  0.00     0.001 A 
HETATM   10  C   UNL     1      -4.976  -2.563 -34.106  1.00  0.00     0.001 A 
HETATM   11  C   UNL     1      -5.930  -1.839 -34.819  1.00  0.00     0.008 A 
ENDROOT
BRANCH   1  12
HETATM   12  C   UNL     1      -6.736   3.742 -33.837  1.00  0.00     0.319 C 
BRANCH  12  13
HETATM   13  C   UNL     1      -5.427   4.513 -33.918  1.00  0.00     0.188 C 
HETATM   14  O   UNL     1      -4.971   4.750 -35.041  1.00  0.00    -0.290 OA
BRANCH  13  15
HETATM   15  C   UNL     1      -4.793   4.988 -32.685  1.00  0.00     0.046 A 
HETATM   16  C   UNL     1      -3.716   4.351 -32.075  1.00  0.00     0.020 A 
HETATM   17  C   UNL     1      -2.984   3.102 -32.429  1.00  0.00     0.069 C 
HETATM   18  N   UNL     1      -3.346   5.090 -30.982  1.00  0.00    -0.358 N 
HETATM   19  H   UNL     1      -2.576   4.869 -30.362  1.00  0.00     0.166 HD
HETATM   20  C   UNL     1      -4.163   6.183 -30.841  1.00  0.00     0.043 A 
HETATM   21  C   UNL     1      -5.094   6.147 -31.879  1.00  0.00     0.009 A 
HETATM   22  C   UNL     1      -4.128   7.195 -29.875  1.00  0.00     0.033 A 
HETATM   23  C   UNL     1      -6.048   7.192 -31.919  1.00  0.00     0.051 A 
HETATM   24  C   UNL     1      -6.046   8.209 -30.952  1.00  0.00     0.069 A 
HETATM   25  C   UNL     1      -5.087   8.210 -29.947  1.00  0.00     0.039 A 
BRANCH  24  26
HETATM   26  O   UNL     1      -7.041   9.135 -31.119  1.00  0.00    -0.356 OA
HETATM   27  C   UNL     1      -8.130   8.764 -31.959  1.00  0.00     0.210 C 
ENDBRANCH  24  26
ENDBRANCH  13  15
ENDBRANCH  12  13
ENDBRANCH   1  12
BRANCH   3  28
HETATM   28  C   UNL     1      -7.056   1.271 -31.627  1.00  0.00     0.173 C 
BRANCH  28  29
HETATM   29  N   UNL     1      -7.365   2.484 -30.893  1.00  0.00    -0.278 N 
HETATM   30  C   UNL     1      -8.502   3.223 -31.061  1.00  0.00     0.261 A 
HETATM   31  O   UNL     1      -9.351   3.082 -31.921  1.00  0.00    -0.267 OA
HETATM   32  C   UNL     1      -8.416   4.339 -30.119  1.00  0.00     0.048 A 
HETATM   33  C   UNL     1      -7.192   4.244 -29.472  1.00  0.00     0.048 A 
HETATM   34  C   UNL     1      -9.282   5.388 -29.893  1.00  0.00     0.018 A 
HETATM   35  C   UNL     1      -6.509   3.064 -29.999  1.00  0.00     0.261 A 
HETATM   36  C   UNL     1      -6.772   5.187 -28.558  1.00  0.00     0.018 A 
HETATM   37  O   UNL     1      -5.366   2.730 -29.757  1.00  0.00    -0.267 OA
HETATM   38  C   UNL     1      -7.639   6.253 -28.302  1.00  0.00     0.001 A 
HETATM   39  C   UNL     1      -8.882   6.354 -28.964  1.00  0.00     0.001 A 
ENDBRANCH  28  29
ENDBRANCH   3  28
TORSDOF 6
ENDMDL
MODEL 3
REMARK VINA RESULT:     -10.0      2.115      5.624
REMARK  6 active torsions:
REMARK  status: ('A' for Active; 'I' for Inactive)
REMARK    1  A    between atoms: C_7  and  C_8 
REMARK    2  A    between atoms: C_8  and  C_9 
REMARK    3  A    between atoms: C_9  and  N_10 
REMARK    4  A    between atoms: C_12  and  C_13 
REMARK    5  A    between atoms: C_13  and  N_14 
REMARK    6  A    between atoms: C_36  and  O_37 
ROOT
HETATM    1  N   UNL     1      -6.769   2.303 -34.047  1.00  0.00    -0.054 N 
HETATM    2  H   UNL     1      -6.064   2.265 -34.803  1.00  0.00     0.281 HD
HETATM    3  C   UNL     1      -6.049   1.560 -32.914  1.00  0.00     0.240 C 
HETATM    4  C   UNL     1      -5.670   0.169 -33.410  1.00  0.00    -0.020 A 
HETATM    5  C   UNL     1      -6.420  -0.471 -34.421  1.00  0.00    -0.048 A 
HETATM    6  C   UNL     1      -7.549   0.222 -35.143  1.00  0.00     0.067 C 
HETATM    7  C   UNL     1      -7.979   1.553 -34.530  1.00  0.00     0.241 C 
HETATM    8  C   UNL     1      -4.580  -0.503 -32.832  1.00  0.00     0.010 A 
HETATM    9  C   UNL     1      -4.242  -1.791 -33.246  1.00  0.00     0.001 A 
HETATM   10  C   UNL     1      -4.983  -2.421 -34.240  1.00  0.00     0.001 A 
HETATM   11  C   UNL     1      -6.063  -1.766 -34.828  1.00  0.00     0.008 A 
ENDROOT
BRANCH   1  12
HETATM   12  C   UNL     1      -6.990   3.806 -33.897  1.00  0.00     0.319 C 
BRANCH  12  13
HETATM   13  C   UNL     1      -5.712   4.620 -34.034  1.00  0.00     0.188 C 
HETATM   14  O   UNL     1      -5.067   4.500 -35.081  1.00  0.00    -0.290 OA
BRANCH  13  15
HETATM   15  C   UNL     1      -5.327   5.543 -32.963  1.00  0.00     0.046 A 
HETATM   16  C   UNL     1      -6.194   6.475 -32.398  1.00  0.00     0.020 A 
HETATM   17  C   UNL     1      -7.613   6.810 -32.705  1.00  0.00     0.069 C 
HETATM   18  N   UNL     1      -5.525   7.129 -31.397  1.00  0.00    -0.358 N 
HETATM   19  H   UNL     1      -5.920   7.848 -30.803  1.00  0.00     0.166 HD
HETATM   20  C   UNL     1      -4.236   6.670 -31.302  1.00  0.00     0.043 A 
HETATM   21  C   UNL     1      -4.066   5.687 -32.277  1.00  0.00     0.009 A 
HETATM   22  C   UNL     1      -3.223   7.054 -30.415  1.00  0.00     0.033 A 
HETATM   23  C   UNL     1      -2.790   5.079 -32.358  1.00  0.00     0.051 A 
HETATM   24  C   UNL     1      -1.752   5.459 -31.492  1.00  0.00     0.069 A 
HETATM   25  C   UNL     1      -1.975   6.432 -30.526  1.00  0.00     0.039 A 
BRANCH  24  26
HETATM   26  O   UNL     1      -0.577   4.791 -31.710  1.00  0.00    -0.356 OA
HETATM   27  C   UNL     1       0.533   5.162 -30.898  1.00  0.00     0.210 C 
ENDBRANCH  24  26
ENDBRANCH  13  15
ENDBRANCH  12  13
ENDBRANCH   1  12
BRANCH   3  28
HETATM   28  C   UNL     1      -6.868   1.402 -31.595  1.00  0.00     0.173 C 
BRANCH  28  29
HETATM   29  N   UNL     1      -6.976   2.590 -30.769  1.00  0.00    -0.278 N 
HETATM   30  C   UNL     1      -8.110   3.339 -30.633  1.00  0.00     0.261 A 
HETATM   31  O   UNL     1      -9.143   3.231 -31.266  1.00  0.00    -0.267 OA
HETATM   32  C   UNL     1      -7.786   4.421 -29.703  1.00  0.00     0.048 A 
HETATM   33  C   UNL     1      -6.443   4.299 -29.375  1.00  0.00     0.048 A 
HETATM   34  C   UNL     1      -8.559   5.465 -29.241  1.00  0.00     0.018 A 
HETATM   35  C   UNL     1      -5.922   3.135 -30.090  1.00  0.00     0.261 A 
HETATM   36  C   UNL     1      -5.803   5.208 -28.559  1.00  0.00     0.018 A 
HETATM   37  O   UNL     1      -4.759   2.788 -30.142  1.00  0.00    -0.267 OA
HETATM   38  C   UNL     1      -6.570   6.268 -28.067  1.00  0.00     0.001 A 
HETATM   39  C   UNL     1      -7.934   6.396 -28.405  1.00  0.00     0.001 A 
ENDBRANCH  28  29
ENDBRANCH   3  28
TORSDOF 6
ENDMDL
MODEL 4
REMARK VINA RESULT:      -9.9      2.805      5.083
REMARK  6 active torsions:
REMARK  status: ('A' for Active; 'I' for Inactive)
REMARK    1  A    between atoms: C_7  and  C_8 
REMARK    2  A    between atoms: C_8  and  C_9 
REMARK    3  A    between atoms: C_9  and  N_10 
REMARK    4  A    between atoms: C_12  and  C_13 
REMARK    5  A    between atoms: C_13  and  N_14 
REMARK    6  A    between atoms: C_36  and  O_37 
ROOT
HETATM    1  N   UNL     1      -6.329   2.664 -30.605  1.00  0.00    -0.054 N 
HETATM    2  H   UNL     1      -7.266   2.909 -30.239  1.00  0.00     0.281 HD
HETATM    3  C   UNL     1      -6.495   2.958 -32.102  1.00  0.00     0.240 C 
HETATM    4  C   UNL     1      -7.662   2.133 -32.632  1.00  0.00    -0.020 A 
HETATM    5  C   UNL     1      -8.023   0.910 -32.025  1.00  0.00    -0.048 A 
HETATM    6  C   UNL     1      -7.362   0.416 -30.761  1.00  0.00     0.067 C 
HETATM    7  C   UNL     1      -6.119   1.199 -30.341  1.00  0.00     0.241 C 
HETATM    8  C   UNL     1      -8.371   2.575 -33.762  1.00  0.00     0.010 A 
HETATM    9  C   UNL     1      -9.416   1.815 -34.284  1.00  0.00     0.001 A 
HETATM   10  C   UNL     1      -9.769   0.609 -33.686  1.00  0.00     0.001 A 
HETATM   11  C   UNL     1      -9.080   0.160 -32.561  1.00  0.00     0.008 A 
ENDROOT
BRANCH   1  12
HETATM   12  C   UNL     1      -5.421   3.577 -29.787  1.00  0.00     0.319 C 
BRANCH  12  13
HETATM   13  C   UNL     1      -6.012   4.958 -29.548  1.00  0.00     0.188 C 
HETATM   14  O   UNL     1      -6.919   5.056 -28.715  1.00  0.00    -0.290 OA
BRANCH  13  15
HETATM   15  C   UNL     1      -5.457   6.113 -30.260  1.00  0.00     0.046 A 
HETATM   16  C   UNL     1      -6.084   6.729 -31.339  1.00  0.00     0.020 A 
HETATM   17  C   UNL     1      -7.355   6.411 -32.050  1.00  0.00     0.069 C 
HETATM   18  N   UNL     1      -5.321   7.800 -31.724  1.00  0.00    -0.358 N 
HETATM   19  H   UNL     1      -5.549   8.440 -32.475  1.00  0.00     0.166 HD
HETATM   20  C   UNL     1      -4.197   7.893 -30.943  1.00  0.00     0.043 A 
HETATM   21  C   UNL     1      -4.235   6.844 -30.024  1.00  0.00     0.009 A 
HETATM   22  C   UNL     1      -3.164   8.836 -30.988  1.00  0.00     0.033 A 
HETATM   23  C   UNL     1      -3.153   6.748 -29.116  1.00  0.00     0.051 A 
HETATM   24  C   UNL     1      -2.097   7.671 -29.152  1.00  0.00     0.069 A 
HETATM   25  C   UNL     1      -2.112   8.709 -30.075  1.00  0.00     0.039 A 
BRANCH  24  26
HETATM   26  O   UNL     1      -1.121   7.433 -28.221  1.00  0.00    -0.356 OA
HETATM   27  C   UNL     1      -0.180   6.407 -28.525  1.00  0.00     0.210 C 
ENDBRANCH  24  26
ENDBRANCH  13  15
ENDBRANCH  12  13
ENDBRANCH   1  12
BRANCH   3  28
HETATM   28  C   UNL     1      -5.243   2.656 -32.983  1.00  0.00     0.173 C 
BRANCH  28  29
HETATM   29  N   UNL     1      -4.205   3.670 -32.979  1.00  0.00    -0.278 N 
HETATM   30  C   UNL     1      -4.187   4.763 -33.798  1.00  0.00     0.261 A 
HETATM   31  O   UNL     1      -4.928   4.993 -34.735  1.00  0.00    -0.267 OA
HETATM   32  C   UNL     1      -2.985   5.523 -33.451  1.00  0.00     0.048 A 
HETATM   33  C   UNL     1      -2.308   4.807 -32.474  1.00  0.00     0.048 A 
HETATM   34  C   UNL     1      -2.480   6.690 -33.984  1.00  0.00     0.018 A 
HETATM   35  C   UNL     1      -3.084   3.599 -32.199  1.00  0.00     0.261 A 
HETATM   36  C   UNL     1      -1.094   5.224 -31.971  1.00  0.00     0.018 A 
HETATM   37  O   UNL     1      -2.744   2.675 -31.488  1.00  0.00    -0.267 OA
HETATM   38  C   UNL     1      -0.568   6.412 -32.486  1.00  0.00     0.001 A 
HETATM   39  C   UNL     1      -1.253   7.137 -33.484  1.00  0.00     0.001 A 
ENDBRANCH  28  29
ENDBRANCH   3  28
TORSDOF 6
ENDMDL
MODEL 5
REMARK VINA RESULT:      -9.5      2.341      6.752
REMARK  6 active torsions:
REMARK  status: ('A' for Active; 'I' for Inactive)
REMARK    1  A    between atoms: C_7  and  C_8 
REMARK    2  A    between atoms: C_8  and  C_9 
REMARK    3  A    between atoms: C_9  and  N_10 
REMARK    4  A    between atoms: C_12  and  C_13 
REMARK    5  A    between atoms: C_13  and  N_14 
REMARK    6  A    between atoms: C_36  and  O_37 
ROOT
HETATM    1  N   UNL     1      -4.800   4.496 -30.793  1.00  0.00    -0.054 N 
HETATM    2  H   UNL     1      -3.925   4.723 -30.291  1.00  0.00     0.281 HD
HETATM    3  C   UNL     1      -4.263   3.831 -32.067  1.00  0.00     0.240 C 
HETATM    4  C   UNL     1      -3.321   4.806 -32.763  1.00  0.00    -0.020 A 
HETATM    5  C   UNL     1      -3.475   6.201 -32.609  1.00  0.00    -0.048 A 
HETATM    6  C   UNL     1      -4.489   6.796 -31.662  1.00  0.00     0.067 C 
HETATM    7  C   UNL     1      -5.493   5.798 -31.089  1.00  0.00     0.241 C 
HETATM    8  C   UNL     1      -2.305   4.315 -33.600  1.00  0.00     0.010 A 
HETATM    9  C   UNL     1      -1.459   5.193 -34.277  1.00  0.00     0.001 A 
HETATM   10  C   UNL     1      -1.613   6.567 -34.125  1.00  0.00     0.001 A 
HETATM   11  C   UNL     1      -2.612   7.070 -33.293  1.00  0.00     0.008 A 
ENDROOT
BRANCH   1  12
HETATM   12  C   UNL     1      -5.531   3.623 -29.777  1.00  0.00     0.319 C 
BRANCH  12  13
HETATM   13  C   UNL     1      -7.020   3.488 -30.058  1.00  0.00     0.188 C 
HETATM   14  O   UNL     1      -7.740   4.460 -29.811  1.00  0.00    -0.290 OA
BRANCH  13  15
HETATM   15  C   UNL     1      -7.530   2.250 -30.654  1.00  0.00     0.046 A 
HETATM   16  C   UNL     1      -7.012   0.988 -30.377  1.00  0.00     0.020 A 
HETATM   17  C   UNL     1      -5.875   0.560 -29.514  1.00  0.00     0.069 C 
HETATM   18  N   UNL     1      -7.756   0.061 -31.059  1.00  0.00    -0.358 N 
HETATM   19  H   UNL     1      -7.612  -0.941 -31.027  1.00  0.00     0.166 HD
HETATM   20  C   UNL     1      -8.735   0.678 -31.795  1.00  0.00     0.043 A 
HETATM   21  C   UNL     1      -8.617   2.052 -31.583  1.00  0.00     0.009 A 
HETATM   22  C   UNL     1      -9.712   0.110 -32.621  1.00  0.00     0.033 A 
HETATM   23  C   UNL     1      -9.537   2.886 -32.262  1.00  0.00     0.051 A 
HETATM   24  C   UNL     1     -10.516   2.342 -33.109  1.00  0.00     0.069 A 
HETATM   25  C   UNL     1     -10.604   0.965 -33.276  1.00  0.00     0.039 A 
BRANCH  24  26
HETATM   26  O   UNL     1     -11.317   3.280 -33.704  1.00  0.00    -0.356 OA
HETATM   27  C   UNL     1     -10.829   3.874 -34.903  1.00  0.00     0.210 C 
ENDBRANCH  24  26
ENDBRANCH  13  15
ENDBRANCH  12  13
ENDBRANCH   1  12
BRANCH   3  28
HETATM   28  C   UNL     1      -5.349   3.383 -33.094  1.00  0.00     0.173 C 
BRANCH  28  29
HETATM   29  N   UNL     1      -5.410   1.960 -33.374  1.00  0.00    -0.278 N 
HETATM   30  C   UNL     1      -4.502   1.043 -32.924  1.00  0.00     0.261 A 
HETATM   31  O   UNL     1      -3.449   1.266 -32.358  1.00  0.00    -0.267 OA
HETATM   32  C   UNL     1      -4.948  -0.260 -33.418  1.00  0.00     0.048 A 
HETATM   33  C   UNL     1      -6.077  -0.046 -34.195  1.00  0.00     0.048 A 
HETATM   34  C   UNL     1      -4.386  -1.512 -33.273  1.00  0.00     0.018 A 
HETATM   35  C   UNL     1      -6.349   1.390 -34.187  1.00  0.00     0.261 A 
HETATM   36  C   UNL     1      -6.712  -1.073 -34.863  1.00  0.00     0.018 A 
HETATM   37  O   UNL     1      -7.187   1.964 -34.853  1.00  0.00    -0.267 OA
HETATM   38  C   UNL     1      -6.169  -2.353 -34.721  1.00  0.00     0.001 A 
HETATM   39  C   UNL     1      -5.016  -2.570 -33.935  1.00  0.00     0.001 A 
ENDBRANCH  28  29
ENDBRANCH   3  28
TORSDOF 6
ENDMDL
MODEL 6
REMARK VINA RESULT:      -9.5      1.931      5.956
REMARK  6 active torsions:
REMARK  status: ('A' for Active; 'I' for Inactive)
REMARK    1  A    between atoms: C_7  and  C_8 
REMARK    2  A    between atoms: C_8  and  C_9 
REMARK    3  A    between atoms: C_9  and  N_10 
REMARK    4  A    between atoms: C_12  and  C_13 
REMARK    5  A    between atoms: C_13  and  N_14 
REMARK    6  A    between atoms: C_36  and  O_37 
ROOT
HETATM    1  N   UNL     1      -6.611   0.188 -32.125  1.00  0.00    -0.054 N 
HETATM    2  H   UNL     1      -6.398  -0.594 -31.482  1.00  0.00     0.281 HD
HETATM    3  C   UNL     1      -7.424  -0.524 -33.216  1.00  0.00     0.240 C 
HETATM    4  C   UNL     1      -6.579  -1.656 -33.789  1.00  0.00    -0.020 A 
HETATM    5  C   UNL     1      -5.169  -1.590 -33.774  1.00  0.00    -0.048 A 
HETATM    6  C   UNL     1      -4.425  -0.469 -33.091  1.00  0.00     0.067 C 
HETATM    7  C   UNL     1      -5.300   0.703 -32.649  1.00  0.00     0.241 C 
HETATM    8  C   UNL     1      -7.210  -2.767 -34.373  1.00  0.00     0.010 A 
HETATM    9  C   UNL     1      -6.454  -3.794 -34.937  1.00  0.00     0.001 A 
HETATM   10  C   UNL     1      -5.065  -3.728 -34.923  1.00  0.00     0.001 A 
HETATM   11  C   UNL     1      -4.424  -2.635 -34.342  1.00  0.00     0.008 A 
ENDROOT
BRANCH   1  12
HETATM   12  C   UNL     1      -7.339   1.165 -31.206  1.00  0.00     0.319 C 
BRANCH  12  13
HETATM   13  C   UNL     1      -6.402   2.107 -30.465  1.00  0.00     0.188 C 
HETATM   14  O   UNL     1      -5.658   1.617 -29.608  1.00  0.00    -0.290 OA
BRANCH  13  15
HETATM   15  C   UNL     1      -6.374   3.527 -30.826  1.00  0.00     0.046 A 
HETATM   16  C   UNL     1      -7.435   4.401 -30.605  1.00  0.00     0.020 A 
HETATM   17  C   UNL     1      -8.792   4.175 -30.033  1.00  0.00     0.069 C 
HETATM   18  N   UNL     1      -7.050   5.652 -31.010  1.00  0.00    -0.358 N 
HETATM   19  H   UNL     1      -7.619   6.487 -30.947  1.00  0.00     0.166 HD
HETATM   20  C   UNL     1      -5.774   5.622 -31.513  1.00  0.00     0.043 A 
HETATM   21  C   UNL     1      -5.320   4.306 -31.431  1.00  0.00     0.009 A 
HETATM   22  C   UNL     1      -4.998   6.671 -32.021  1.00  0.00     0.033 A 
HETATM   23  C   UNL     1      -4.013   4.048 -31.909  1.00  0.00     0.051 A 
HETATM   24  C   UNL     1      -3.221   5.079 -32.439  1.00  0.00     0.069 A 
HETATM   25  C   UNL     1      -3.712   6.378 -32.484  1.00  0.00     0.039 A 
BRANCH  24  26
HETATM   26  O   UNL     1      -1.991   4.665 -32.873  1.00  0.00    -0.356 OA
HETATM   27  C   UNL     1      -0.858   5.162 -32.166  1.00  0.00     0.210 C 
ENDBRANCH  24  26
ENDBRANCH  13  15
ENDBRANCH  12  13
ENDBRANCH   1  12
BRANCH   3  28
HETATM   28  C   UNL     1      -7.891   0.384 -34.397  1.00  0.00     0.173 C 
BRANCH  28  29
HETATM   29  N   UNL     1      -8.758   1.491 -34.041  1.00  0.00    -0.278 N 
HETATM   30  C   UNL     1      -8.377   2.803 -34.036  1.00  0.00     0.261 A 
HETATM   31  O   UNL     1      -7.253   3.244 -34.182  1.00  0.00    -0.267 OA
HETATM   32  C   UNL     1      -9.554   3.577 -33.638  1.00  0.00     0.048 A 
HETATM   33  C   UNL     1     -10.571   2.675 -33.364  1.00  0.00     0.048 A 
HETATM   34  C   UNL     1      -9.711   4.935 -33.455  1.00  0.00     0.018 A 
HETATM   35  C   UNL     1     -10.041   1.333 -33.595  1.00  0.00     0.261 A 
HETATM   36  C   UNL     1     -11.805   3.081 -32.900  1.00  0.00     0.018 A 
HETATM   37  O   UNL     1     -10.605   0.286 -33.344  1.00  0.00    -0.267 OA
HETATM   38  C   UNL     1     -11.993   4.454 -32.719  1.00  0.00     0.001 A 
HETATM   39  C   UNL     1     -10.956   5.373 -32.992  1.00  0.00     0.001 A 
ENDBRANCH  28  29
ENDBRANCH   3  28
TORSDOF 6
ENDMDL
MODEL 7
REMARK VINA RESULT:      -9.5      1.532      2.170
REMARK  6 active torsions:
REMARK  status: ('A' for Active; 'I' for Inactive)
REMARK    1  A    between atoms: C_7  and  C_8 
REMARK    2  A    between atoms: C_8  and  C_9 
REMARK    3  A    between atoms: C_9  and  N_10 
REMARK    4  A    between atoms: C_12  and  C_13 
REMARK    5  A    between atoms: C_13  and  N_14 
REMARK    6  A    between atoms: C_36  and  O_37 
ROOT
HETATM    1  N   UNL     1      -6.240   4.246 -31.417  1.00  0.00    -0.054 N 
HETATM    2  H   UNL     1      -6.565   5.030 -32.008  1.00  0.00     0.281 HD
HETATM    3  C   UNL     1      -7.147   3.103 -31.893  1.00  0.00     0.240 C 
HETATM    4  C   UNL     1      -8.599   3.527 -31.709  1.00  0.00    -0.020 A 
HETATM    5  C   UNL     1      -8.964   4.458 -30.711  1.00  0.00    -0.048 A 
HETATM    6  C   UNL     1      -7.937   5.169 -29.864  1.00  0.00     0.067 C 
HETATM    7  C   UNL     1      -6.516   4.622 -29.987  1.00  0.00     0.241 C 
HETATM    8  C   UNL     1      -9.598   2.960 -32.517  1.00  0.00     0.010 A 
HETATM    9  C   UNL     1     -10.937   3.307 -32.338  1.00  0.00     0.001 A 
HETATM   10  C   UNL     1     -11.294   4.223 -31.354  1.00  0.00     0.001 A 
HETATM   11  C   UNL     1     -10.315   4.799 -30.547  1.00  0.00     0.008 A 
ENDROOT
BRANCH   1  12
HETATM   12  C   UNL     1      -4.756   4.181 -31.765  1.00  0.00     0.319 C 
BRANCH  12  13
HETATM   13  C   UNL     1      -4.232   5.455 -32.409  1.00  0.00     0.188 C 
HETATM   14  O   UNL     1      -5.062   6.253 -32.858  1.00  0.00    -0.290 OA
BRANCH  13  15
HETATM   15  C   UNL     1      -2.789   5.714 -32.425  1.00  0.00     0.046 A 
HETATM   16  C   UNL     1      -1.993   5.579 -33.559  1.00  0.00     0.020 A 
HETATM   17  C   UNL     1      -2.320   5.138 -34.944  1.00  0.00     0.069 C 
HETATM   18  N   UNL     1      -0.715   5.951 -33.230  1.00  0.00    -0.358 N 
HETATM   19  H   UNL     1       0.070   5.968 -33.870  1.00  0.00     0.166 HD
HETATM   20  C   UNL     1      -0.643   6.305 -31.907  1.00  0.00     0.043 A 
HETATM   21  C   UNL     1      -1.918   6.154 -31.362  1.00  0.00     0.009 A 
HETATM   22  C   UNL     1       0.459   6.753 -31.170  1.00  0.00     0.033 A 
HETATM   23  C   UNL     1      -2.068   6.463 -29.989  1.00  0.00     0.051 A 
HETATM   24  C   UNL     1      -0.974   6.898 -29.223  1.00  0.00     0.069 A 
HETATM   25  C   UNL     1       0.273   7.048 -29.816  1.00  0.00     0.039 A 
BRANCH  24  26
HETATM   26  O   UNL     1      -1.278   7.139 -27.910  1.00  0.00    -0.356 OA
HETATM   27  C   UNL     1      -0.490   6.467 -26.932  1.00  0.00     0.210 C 
ENDBRANCH  24  26
ENDBRANCH  13  15
ENDBRANCH  12  13
ENDBRANCH   1  12
BRANCH   3  28
HETATM   28  C   UNL     1      -6.940   1.739 -31.163  1.00  0.00     0.173 C 
BRANCH  28  29
HETATM   29  N   UNL     1      -6.513   0.631 -31.997  1.00  0.00    -0.278 N 
HETATM   30  C   UNL     1      -5.210   0.274 -32.203  1.00  0.00     0.261 A 
HETATM   31  O   UNL     1      -4.216   0.884 -31.858  1.00  0.00    -0.267 OA
HETATM   32  C   UNL     1      -5.233  -0.894 -33.084  1.00  0.00     0.048 A 
HETATM   33  C   UNL     1      -6.559  -1.141 -33.412  1.00  0.00     0.048 A 
HETATM   34  C   UNL     1      -4.198  -1.632 -33.618  1.00  0.00     0.018 A 
HETATM   35  C   UNL     1      -7.373  -0.135 -32.732  1.00  0.00     0.261 A 
HETATM   36  C   UNL     1      -6.922  -2.147 -34.283  1.00  0.00     0.018 A 
HETATM   37  O   UNL     1      -8.567   0.037 -32.877  1.00  0.00    -0.267 OA
HETATM   38  C   UNL     1      -5.891  -2.917 -34.828  1.00  0.00     0.001 A 
HETATM   39  C   UNL     1      -4.542  -2.662 -34.500  1.00  0.00     0.001 A 
ENDBRANCH  28  29
ENDBRANCH   3  28
TORSDOF 6
ENDMDL
MODEL 8
REMARK VINA RESULT:      -9.4      2.502      7.244
REMARK  6 active torsions:
REMARK  status: ('A' for Active; 'I' for Inactive)
REMARK    1  A    between atoms: C_7  and  C_8 
REMARK    2  A    between atoms: C_8  and  C_9 
REMARK    3  A    between atoms: C_9  and  N_10 
REMARK    4  A    between atoms: C_12  and  C_13 
REMARK    5  A    between atoms: C_13  and  N_14 
REMARK    6  A    between atoms: C_36  and  O_37 
ROOT
HETATM    1  N   UNL     1      -7.021   2.644 -31.723  1.00  0.00    -0.054 N 
HETATM    2  H   UNL     1      -6.840   2.924 -30.743  1.00  0.00     0.281 HD
HETATM    3  C   UNL     1      -5.646   2.113 -32.152  1.00  0.00     0.240 C 
HETATM    4  C   UNL     1      -4.615   3.216 -31.947  1.00  0.00    -0.020 A 
HETATM    5  C   UNL     1      -4.986   4.578 -32.003  1.00  0.00    -0.048 A 
HETATM    6  C   UNL     1      -6.425   5.012 -32.145  1.00  0.00     0.067 C 
HETATM    7  C   UNL     1      -7.403   3.887 -32.477  1.00  0.00     0.241 C 
HETATM    8  C   UNL     1      -3.268   2.879 -31.735  1.00  0.00     0.010 A 
HETATM    9  C   UNL     1      -2.304   3.875 -31.584  1.00  0.00     0.001 A 
HETATM   10  C   UNL     1      -2.671   5.216 -31.641  1.00  0.00     0.001 A 
HETATM   11  C   UNL     1      -4.004   5.567 -31.846  1.00  0.00     0.008 A 
ENDROOT
BRANCH   1  12
HETATM   12  C   UNL     1      -8.161   1.643 -31.560  1.00  0.00     0.319 C 
BRANCH  12  13
HETATM   13  C   UNL     1      -9.538   2.289 -31.582  1.00  0.00     0.188 C 
HETATM   14  O   UNL     1      -9.873   2.957 -30.598  1.00  0.00    -0.290 OA
BRANCH  13  15
HETATM   15  C   UNL     1     -10.382   2.146 -32.772  1.00  0.00     0.046 A 
HETATM   16  C   UNL     1     -10.792   0.918 -33.285  1.00  0.00     0.020 A 
HETATM   17  C   UNL     1     -10.496  -0.477 -32.853  1.00  0.00     0.069 C 
HETATM   18  N   UNL     1     -11.608   1.155 -34.361  1.00  0.00    -0.358 N 
HETATM   19  H   UNL     1     -12.065   0.442 -34.915  1.00  0.00     0.166 HD
HETATM   20  C   UNL     1     -11.728   2.503 -34.584  1.00  0.00     0.043 A 
HETATM   21  C   UNL     1     -10.962   3.159 -33.621  1.00  0.00     0.009 A 
HETATM   22  C   UNL     1     -12.468   3.175 -35.564  1.00  0.00     0.033 A 
HETATM   23  C   UNL     1     -10.940   4.574 -33.674  1.00  0.00     0.051 A 
HETATM   24  C   UNL     1     -11.660   5.271 -34.657  1.00  0.00     0.069 A 
HETATM   25  C   UNL     1     -12.422   4.573 -35.586  1.00  0.00     0.039 A 
BRANCH  24  26
HETATM   26  O   UNL     1     -11.522   6.631 -34.585  1.00  0.00    -0.356 OA
HETATM   27  C   UNL     1     -12.212   7.401 -35.565  1.00  0.00     0.210 C 
ENDBRANCH  24  26
ENDBRANCH  13  15
ENDBRANCH  12  13
ENDBRANCH   1  12
BRANCH   3  28
HETATM   28  C   UNL     1      -5.553   1.624 -33.631  1.00  0.00     0.173 C 
BRANCH  28  29
HETATM   29  N   UNL     1      -5.540   0.186 -33.825  1.00  0.00    -0.278 N 
HETATM   30  C   UNL     1      -4.470  -0.621 -33.561  1.00  0.00     0.261 A 
HETATM   31  O   UNL     1      -3.341  -0.275 -33.268  1.00  0.00    -0.267 OA
HETATM   32  C   UNL     1      -4.890  -1.987 -33.877  1.00  0.00     0.048 A 
HETATM   33  C   UNL     1      -6.183  -1.918 -34.376  1.00  0.00     0.048 A 
HETATM   34  C   UNL     1      -4.193  -3.175 -33.812  1.00  0.00     0.018 A 
HETATM   35  C   UNL     1      -6.582  -0.512 -34.369  1.00  0.00     0.261 A 
HETATM   36  C   UNL     1      -6.853  -3.036 -34.829  1.00  0.00     0.018 A 
HETATM   37  O   UNL     1      -7.601  -0.054 -34.844  1.00  0.00    -0.267 OA
HETATM   38  C   UNL     1      -6.172  -4.254 -34.761  1.00  0.00     0.001 A 
HETATM   39  C   UNL     1      -4.854  -4.323 -34.258  1.00  0.00     0.001 A 
ENDBRANCH  28  29
ENDBRANCH   3  28
TORSDOF 6
ENDMDL
MODEL 9
REMARK VINA RESULT:      -9.4      2.330      7.045
REMARK  6 active torsions:
REMARK  status: ('A' for Active; 'I' for Inactive)
REMARK    1  A    between atoms: C_7  and  C_8 
REMARK    2  A    between atoms: C_8  and  C_9 
REMARK    3  A    between atoms: C_9  and  N_10 
REMARK    4  A    between atoms: C_12  and  C_13 
REMARK    5  A    between atoms: C_13  and  N_14 
REMARK    6  A    between atoms: C_36  and  O_37 
ROOT
HETATM    1  N   UNL     1      -5.949   5.791 -32.957  1.00  0.00    -0.054 N 
HETATM    2  H   UNL     1      -5.931   6.505 -33.706  1.00  0.00     0.281 HD
HETATM    3  C   UNL     1      -4.846   6.300 -32.018  1.00  0.00     0.240 C 
HETATM    4  C   UNL     1      -3.549   6.410 -32.811  1.00  0.00    -0.020 A 
HETATM    5  C   UNL     1      -3.310   5.589 -33.934  1.00  0.00    -0.048 A 
HETATM    6  C   UNL     1      -4.360   4.653 -34.481  1.00  0.00     0.067 C 
HETATM    7  C   UNL     1      -5.587   4.475 -33.587  1.00  0.00     0.241 C 
HETATM    8  C   UNL     1      -2.558   7.318 -32.400  1.00  0.00     0.010 A 
HETATM    9  C   UNL     1      -1.349   7.406 -33.089  1.00  0.00     0.001 A 
HETATM   10  C   UNL     1      -1.115   6.594 -34.195  1.00  0.00     0.001 A 
HETATM   11  C   UNL     1      -2.090   5.693 -34.618  1.00  0.00     0.008 A 
ENDROOT
BRANCH   1  12
HETATM   12  C   UNL     1      -7.396   5.872 -32.478  1.00  0.00     0.319 C 
BRANCH  12  13
HETATM   13  C   UNL     1      -8.360   5.069 -33.338  1.00  0.00     0.188 C 
HETATM   14  O   UNL     1      -8.576   5.473 -34.486  1.00  0.00    -0.290 OA
BRANCH  13  15
HETATM   15  C   UNL     1      -8.947   3.836 -32.805  1.00  0.00     0.046 A 
HETATM   16  C   UNL     1      -9.902   3.810 -31.792  1.00  0.00     0.020 A 
HETATM   17  C   UNL     1     -10.522   4.908 -30.998  1.00  0.00     0.069 C 
HETATM   18  N   UNL     1     -10.265   2.506 -31.581  1.00  0.00    -0.358 N 
HETATM   19  H   UNL     1     -10.959   2.194 -30.911  1.00  0.00     0.166 HD
HETATM   20  C   UNL     1      -9.560   1.670 -32.409  1.00  0.00     0.043 A 
HETATM   21  C   UNL     1      -8.710   2.463 -33.181  1.00  0.00     0.009 A 
HETATM   22  C   UNL     1      -9.629   0.277 -32.528  1.00  0.00     0.033 A 
HETATM   23  C   UNL     1      -7.878   1.793 -34.110  1.00  0.00     0.051 A 
HETATM   24  C   UNL     1      -7.915   0.395 -34.236  1.00  0.00     0.069 A 
HETATM   25  C   UNL     1      -8.791  -0.350 -33.456  1.00  0.00     0.039 A 
BRANCH  24  26
HETATM   26  O   UNL     1      -7.039  -0.101 -35.163  1.00  0.00    -0.356 OA
HETATM   27  C   UNL     1      -6.448  -1.365 -34.879  1.00  0.00     0.210 C 
ENDBRANCH  24  26
ENDBRANCH  13  15
ENDBRANCH  12  13
ENDBRANCH   1  12
BRANCH   3  28
HETATM   28  C   UNL     1      -4.578   5.412 -30.763  1.00  0.00     0.173 C 
BRANCH  28  29
HETATM   29  N   UNL     1      -4.678   3.979 -30.967  1.00  0.00    -0.278 N 
HETATM   30  C   UNL     1      -5.795   3.236 -30.710  1.00  0.00     0.261 A 
HETATM   31  O   UNL     1      -6.812   3.604 -30.152  1.00  0.00    -0.267 OA
HETATM   32  C   UNL     1      -5.469   1.855 -31.069  1.00  0.00     0.048 A 
HETATM   33  C   UNL     1      -4.141   1.833 -31.469  1.00  0.00     0.048 A 
HETATM   34  C   UNL     1      -6.228   0.706 -30.986  1.00  0.00     0.018 A 
HETATM   35  C   UNL     1      -3.630   3.199 -31.370  1.00  0.00     0.261 A 
HETATM   36  C   UNL     1      -3.501   0.661 -31.817  1.00  0.00     0.018 A 
HETATM   37  O   UNL     1      -2.476   3.545 -31.524  1.00  0.00    -0.267 OA
HETATM   38  C   UNL     1      -4.253  -0.515 -31.754  1.00  0.00     0.001 A 
HETATM   39  C   UNL     1      -5.603  -0.493 -31.341  1.00  0.00     0.001 A 
ENDBRANCH  28  29
ENDBRANCH   3  28
TORSDOF 6
ENDMDL
MODEL 10
REMARK VINA RESULT:      -9.3      4.138      8.139
REMARK  6 active torsions:
REMARK  status: ('A' for Active; 'I' for Inactive)
REMARK    1  A    between atoms: C_7  and  C_8 
REMARK    2  A    between atoms: C_8  and  C_9 
REMARK    3  A    between atoms: C_9  and  N_10 
REMARK    4  A    between atoms: C_12  and  C_13 
REMARK    5  A    between atoms: C_13  and  N_14 
REMARK    6  A    between atoms: C_36  and  O_37 
ROOT
HETATM    1  N   UNL     1     -10.040   2.904 -33.760  1.00  0.00    -0.054 N 
HETATM    2  H   UNL     1     -10.751   2.858 -33.009  1.00  0.00     0.281 HD
HETATM    3  C   UNL     1      -8.784   2.412 -33.028  1.00  0.00     0.240 C 
HETATM    4  C   UNL     1      -8.545   3.310 -31.819  1.00  0.00    -0.020 A 
HETATM    5  C   UNL     1      -8.988   4.650 -31.810  1.00  0.00    -0.048 A 
HETATM    6  C   UNL     1      -9.818   5.228 -32.930  1.00  0.00     0.067 C 
HETATM    7  C   UNL     1      -9.922   4.345 -34.172  1.00  0.00     0.241 C 
HETATM    8  C   UNL     1      -7.844   2.810 -30.709  1.00  0.00     0.010 A 
HETATM    9  C   UNL     1      -7.581   3.627 -29.611  1.00  0.00     0.001 A 
HETATM   10  C   UNL     1      -8.017   4.949 -29.604  1.00  0.00     0.001 A 
HETATM   11  C   UNL     1      -8.719   5.458 -30.695  1.00  0.00     0.008 A 
ENDROOT
BRANCH   1  12
HETATM   12  C   UNL     1     -10.651   2.002 -34.829  1.00  0.00     0.319 C 
BRANCH  12  13
HETATM   13  C   UNL     1     -12.109   2.318 -35.123  1.00  0.00     0.188 C 
HETATM   14  O   UNL     1     -12.441   2.440 -36.306  1.00  0.00    -0.290 OA
BRANCH  13  15
HETATM   15  C   UNL     1     -13.065   2.409 -34.015  1.00  0.00     0.046 A 
HETATM   16  C   UNL     1     -13.628   1.301 -33.387  1.00  0.00     0.020 A 
HETATM   17  C   UNL     1     -13.480  -0.158 -33.650  1.00  0.00     0.069 C 
HETATM   18  N   UNL     1     -14.428   1.748 -32.368  1.00  0.00    -0.358 N 
HETATM   19  H   UNL     1     -14.948   1.156 -31.732  1.00  0.00     0.166 HD
HETATM   20  C   UNL     1     -14.425   3.119 -32.321  1.00  0.00     0.043 A 
HETATM   21  C   UNL     1     -13.596   3.573 -33.347  1.00  0.00     0.009 A 
HETATM   22  C   UNL     1     -15.091   3.975 -31.436  1.00  0.00     0.033 A 
HETATM   23  C   UNL     1     -13.455   4.975 -33.483  1.00  0.00     0.051 A 
HETATM   24  C   UNL     1     -14.126   5.856 -32.619  1.00  0.00     0.069 A 
HETATM   25  C   UNL     1     -14.928   5.354 -31.602  1.00  0.00     0.039 A 
BRANCH  24  26
HETATM   26  O   UNL     1     -13.900   7.178 -32.892  1.00  0.00    -0.356 OA
HETATM   27  C   UNL     1     -13.125   7.473 -34.050  1.00  0.00     0.210 C 
ENDBRANCH  24  26
ENDBRANCH  13  15
ENDBRANCH  12  13
ENDBRANCH   1  12
BRANCH   3  28
HETATM   28  C   UNL     1      -7.480   2.388 -33.885  1.00  0.00     0.173 C 
BRANCH  28  29
HETATM   29  N   UNL     1      -6.769   1.124 -33.924  1.00  0.00    -0.278 N 
HETATM   30  C   UNL     1      -7.132   0.055 -34.694  1.00  0.00     0.261 A 
HETATM   31  O   UNL     1      -8.152  -0.072 -35.343  1.00  0.00    -0.267 OA
HETATM   32  C   UNL     1      -6.141  -0.993 -34.444  1.00  0.00     0.048 A 
HETATM   33  C   UNL     1      -5.263  -0.514 -33.482  1.00  0.00     0.048 A 
HETATM   34  C   UNL     1      -6.049  -2.275 -34.945  1.00  0.00     0.018 A 
HETATM   35  C   UNL     1      -5.694   0.838 -33.130  1.00  0.00     0.261 A 
HETATM   36  C   UNL     1      -4.239  -1.287 -32.975  1.00  0.00     0.018 A 
HETATM   37  O   UNL     1      -5.238   1.525 -32.238  1.00  0.00    -0.267 OA
HETATM   38  C   UNL     1      -4.118  -2.586 -33.477  1.00  0.00     0.001 A 
HETATM   39  C   UNL     1      -5.014  -3.076 -34.452  1.00  0.00     0.001 A 
ENDBRANCH  28  29
ENDBRANCH   3  28
TORSDOF 6
ENDMDL
