MODEL 1
REMARK VINA RESULT:     -11.1      0.000      0.000
REMARK  7 active torsions:
REMARK  status: ('A' for Active; 'I' for Inactive)
REMARK    1  A    between atoms: C_2  and  C_3 
REMARK    2  A    between atoms: N_16  and  C_17 
REMARK    3  A    between atoms: C_17  and  C_18 
REMARK       I    between atoms: C_18  and  N_19 
REMARK    4  A    between atoms: N_19  and  C_20 
REMARK    5  A    between atoms: C_21  and  C_22 
REMARK       I    between atoms: C_22  and  N_23 
REMARK    6  A    between atoms: N_23  and  C_24 
REMARK    7  A    between atoms: C_24  and  C_25 
ROOT
HETATM    1  C   UNL     1      -6.375   4.285 -31.386  1.00  0.00     0.240 C 
ENDROOT
BRANCH   1   2
HETATM    2  N   UNL     1      -6.526   3.289 -32.432  1.00  0.00    -0.259 N 
HETATM    3  C   UNL     1      -6.365   3.554 -33.754  1.00  0.00     0.326 A 
HETATM    4  N   UNL     1      -6.689   2.436 -34.473  1.00  0.00    -0.321 N 
HETATM    5  O   UNL     1      -5.968   4.593 -34.251  1.00  0.00    -0.247 OA
HETATM    6  C   UNL     1      -7.197   1.360 -33.646  1.00  0.00     0.140 A 
HETATM    7  H   UNL     1      -6.682   2.439 -35.485  1.00  0.00     0.165 HD
HETATM    8  C   UNL     1      -8.667   1.109 -33.989  1.00  0.00     0.054 C 
HETATM    9  C   UNL     1      -7.086   2.052 -32.262  1.00  0.00     0.261 A 
HETATM   10  O   UNL     1      -7.470   1.586 -31.197  1.00  0.00    -0.270 OA
BRANCH   6  11
HETATM   11  C   UNL     1      -6.343   0.098 -33.714  1.00  0.00    -0.020 A 
HETATM   12  C   UNL     1      -6.900  -1.098 -34.209  1.00  0.00     0.022 A 
HETATM   13  C   UNL     1      -6.156  -2.288 -34.296  1.00  0.00    -0.025 A 
HETATM   14  C   UNL     1      -4.812  -2.294 -33.870  1.00  0.00    -0.026 A 
HETATM   15  C   UNL     1      -6.723  -3.471 -34.797  1.00  0.00     0.012 A 
HETATM   16  C   UNL     1      -4.252  -1.111 -33.369  1.00  0.00     0.013 A 
HETATM   17  C   UNL     1      -4.068  -3.483 -33.955  1.00  0.00     0.012 A 
HETATM   18  C   UNL     1      -5.004   0.066 -33.293  1.00  0.00     0.011 A 
HETATM   19  C   UNL     1      -4.646  -4.651 -34.457  1.00  0.00     0.001 A 
HETATM   20  C   UNL     1      -5.971  -4.644 -34.878  1.00  0.00     0.001 A 
ENDBRANCH   6  11
ENDBRANCH   1   2
BRANCH   1  21
HETATM   21  C   UNL     1      -5.199   5.240 -31.603  1.00  0.00     0.240 C 
HETATM   22  N   UNL     1      -3.937   4.656 -31.581  1.00  0.00    -0.325 N 
HETATM   23  H   UNL     1      -3.979   3.666 -31.790  1.00  0.00     0.169 HD
HETATM   24  O   UNL     1      -5.388   6.453 -31.709  1.00  0.00    -0.271 OA
BRANCH  22  25
HETATM   25  C   UNL     1      -2.847   5.326 -32.196  1.00  0.00     0.050 A 
HETATM   26  C   UNL     1      -1.934   6.182 -31.551  1.00  0.00     0.058 A 
HETATM   27  C   UNL     1      -0.907   6.776 -32.316  1.00  0.00     0.019 A 
HETATM   28  C   UNL     1      -0.778   6.522 -33.682  1.00  0.00     0.001 A 
HETATM   29  C   UNL     1      -1.656   5.646 -34.305  1.00  0.00     0.002 A 
HETATM   30  C   UNL     1      -2.675   5.045 -33.565  1.00  0.00     0.030 A 
BRANCH  26  31
HETATM   31  C   UNL     1      -1.807   6.396 -30.081  1.00  0.00     0.254 C 
HETATM   32  N   UNL     1      -0.638   6.032 -29.471  1.00  0.00    -0.351 N 
HETATM   33  H   UNL     1       0.052   5.509 -30.006  1.00  0.00     0.163 HD
HETATM   34  O   UNL     1      -2.771   6.838 -29.460  1.00  0.00    -0.268 OA
BRANCH  32  35
HETATM   35  C   UNL     1      -0.459   6.084 -28.041  1.00  0.00     0.187 C 
BRANCH  35  36
HETATM   36  C   UNL     1       0.508   7.159 -27.706  1.00  0.00     0.070 A 
HETATM   37  O   UNL     1       1.024   7.162 -26.441  1.00  0.00    -0.325 OA
HETATM   38  C   UNL     1       1.845   8.240 -26.351  1.00  0.00     0.142 A 
HETATM   39  C   UNL     1       1.868   8.930 -27.540  1.00  0.00     0.027 A 
HETATM   40  C   UNL     1       1.007   8.230 -28.419  1.00  0.00     0.036 A 
ENDBRANCH  35  36
ENDBRANCH  32  35
ENDBRANCH  26  31
ENDBRANCH  22  25
ENDBRANCH   1  21
TORSDOF 7
ENDMDL
MODEL 2
REMARK VINA RESULT:     -10.8      2.223      2.607
REMARK  7 active torsions:
REMARK  status: ('A' for Active; 'I' for Inactive)
REMARK    1  A    between atoms: C_2  and  C_3 
REMARK    2  A    between atoms: N_16  and  C_17 
REMARK    3  A    between atoms: C_17  and  C_18 
REMARK       I    between atoms: C_18  and  N_19 
REMARK    4  A    between atoms: N_19  and  C_20 
REMARK    5  A    between atoms: C_21  and  C_22 
REMARK       I    between atoms: C_22  and  N_23 
REMARK    6  A    between atoms: N_23  and  C_24 
REMARK    7  A    between atoms: C_24  and  C_25 
ROOT
HETATM    1  C   UNL     1      -5.789   4.178 -31.759  1.00  0.00     0.240 C 
ENDROOT
BRANCH   1   2
HETATM    2  N   UNL     1      -6.114   3.137 -32.716  1.00  0.00    -0.259 N 
HETATM    3  C   UNL     1      -6.108   3.320 -34.062  1.00  0.00     0.326 A 
HETATM    4  N   UNL     1      -6.570   2.183 -34.667  1.00  0.00    -0.321 N 
HETATM    5  O   UNL     1      -5.728   4.307 -34.666  1.00  0.00    -0.247 OA
HETATM    6  C   UNL     1      -7.019   1.182 -33.719  1.00  0.00     0.140 A 
HETATM    7  H   UNL     1      -6.689   2.130 -35.670  1.00  0.00     0.165 HD
HETATM    8  C   UNL     1      -8.530   0.991 -33.865  1.00  0.00     0.054 C 
HETATM    9  C   UNL     1      -6.705   1.942 -32.404  1.00  0.00     0.261 A 
HETATM   10  O   UNL     1      -6.973   1.556 -31.273  1.00  0.00    -0.270 OA
BRANCH   6  11
HETATM   11  C   UNL     1      -6.239  -0.125 -33.814  1.00  0.00    -0.020 A 
HETATM   12  C   UNL     1      -6.876  -1.287 -34.295  1.00  0.00     0.022 A 
HETATM   13  C   UNL     1      -6.202  -2.517 -34.405  1.00  0.00    -0.025 A 
HETATM   14  C   UNL     1      -4.849  -2.598 -34.018  1.00  0.00    -0.026 A 
HETATM   15  C   UNL     1      -6.848  -3.664 -34.892  1.00  0.00     0.012 A 
HETATM   16  C   UNL     1      -4.210  -1.450 -33.531  1.00  0.00     0.013 A 
HETATM   17  C   UNL     1      -4.176  -3.827 -34.126  1.00  0.00     0.012 A 
HETATM   18  C   UNL     1      -4.893  -0.233 -33.431  1.00  0.00     0.011 A 
HETATM   19  C   UNL     1      -4.832  -4.959 -34.613  1.00  0.00     0.001 A 
HETATM   20  C   UNL     1      -6.166  -4.877 -34.997  1.00  0.00     0.001 A 
ENDBRANCH   6  11
ENDBRANCH   1   2
BRANCH   1  21
HETATM   21  C   UNL     1      -4.297   4.278 -31.433  1.00  0.00     0.240 C 
HETATM   22  N   UNL     1      -3.646   5.404 -31.927  1.00  0.00    -0.325 N 
HETATM   23  H   UNL     1      -4.293   6.161 -32.108  1.00  0.00     0.169 HD
HETATM   24  O   UNL     1      -3.723   3.366 -30.836  1.00  0.00    -0.271 OA
BRANCH  22  25
HETATM   25  C   UNL     1      -2.427   5.823 -31.333  1.00  0.00     0.050 A 
HETATM   26  C   UNL     1      -2.300   6.647 -30.198  1.00  0.00     0.058 A 
HETATM   27  C   UNL     1      -1.007   6.975 -29.741  1.00  0.00     0.019 A 
HETATM   28  C   UNL     1       0.136   6.494 -30.382  1.00  0.00     0.001 A 
HETATM   29  C   UNL     1       0.006   5.650 -31.477  1.00  0.00     0.002 A 
HETATM   30  C   UNL     1      -1.266   5.309 -31.941  1.00  0.00     0.030 A 
BRANCH  26  31
HETATM   31  C   UNL     1      -3.401   7.073 -29.286  1.00  0.00     0.254 C 
HETATM   32  N   UNL     1      -3.441   6.541 -28.027  1.00  0.00    -0.351 N 
HETATM   33  H   UNL     1      -2.807   5.780 -27.794  1.00  0.00     0.163 HD
HETATM   34  O   UNL     1      -4.261   7.839 -29.712  1.00  0.00    -0.268 OA
BRANCH  32  35
HETATM   35  C   UNL     1      -4.527   6.793 -27.112  1.00  0.00     0.187 C 
BRANCH  35  36
HETATM   36  C   UNL     1      -4.015   7.538 -25.934  1.00  0.00     0.070 A 
HETATM   37  O   UNL     1      -4.932   8.199 -25.167  1.00  0.00    -0.325 OA
HETATM   38  C   UNL     1      -4.243   8.831 -24.182  1.00  0.00     0.142 A 
HETATM   39  C   UNL     1      -2.895   8.584 -24.302  1.00  0.00     0.027 A 
HETATM   40  C   UNL     1      -2.747   7.745 -25.431  1.00  0.00     0.036 A 
ENDBRANCH  35  36
ENDBRANCH  32  35
ENDBRANCH  26  31
ENDBRANCH  22  25
ENDBRANCH   1  21
TORSDOF 7
ENDMDL
MODEL 3
REMARK VINA RESULT:     -10.6      2.274     10.543
REMARK  7 active torsions:
REMARK  status: ('A' for Active; 'I' for Inactive)
REMARK    1  A    between atoms: C_2  and  C_3 
REMARK    2  A    between atoms: N_16  and  C_17 
REMARK    3  A    between atoms: C_17  and  C_18 
REMARK       I    between atoms: C_18  and  N_19 
REMARK    4  A    between atoms: N_19  and  C_20 
REMARK    5  A    between atoms: C_21  and  C_22 
REMARK       I    between atoms: C_22  and  N_23 
REMARK    6  A    between atoms: N_23  and  C_24 
REMARK    7  A    between atoms: C_24  and  C_25 
ROOT
HETATM    1  C   UNL     1      -5.472   3.680 -31.770  1.00  0.00     0.240 C 
ENDROOT
BRANCH   1   2
HETATM    2  N   UNL     1      -4.414   4.626 -32.074  1.00  0.00    -0.259 N 
HETATM    3  C   UNL     1      -4.625   5.825 -32.675  1.00  0.00     0.326 A 
HETATM    4  N   UNL     1      -3.415   6.417 -32.920  1.00  0.00    -0.321 N 
HETATM    5  O   UNL     1      -5.699   6.336 -32.937  1.00  0.00    -0.247 OA
HETATM    6  C   UNL     1      -2.291   5.569 -32.573  1.00  0.00     0.140 A 
HETATM    7  H   UNL     1      -3.349   7.301 -33.408  1.00  0.00     0.165 HD
HETATM    8  C   UNL     1      -1.533   5.190 -33.847  1.00  0.00     0.054 C 
HETATM    9  C   UNL     1      -3.075   4.343 -32.037  1.00  0.00     0.261 A 
HETATM   10  O   UNL     1      -2.583   3.282 -31.675  1.00  0.00    -0.270 OA
BRANCH   6  11
HETATM   11  C   UNL     1      -1.392   6.176 -31.501  1.00  0.00    -0.020 A 
HETATM   12  C   UNL     1      -1.893   7.189 -30.659  1.00  0.00     0.022 A 
HETATM   13  C   UNL     1      -1.108   7.780 -29.653  1.00  0.00    -0.025 A 
HETATM   14  C   UNL     1       0.225   7.355 -29.481  1.00  0.00    -0.026 A 
HETATM   15  C   UNL     1      -1.622   8.784 -28.817  1.00  0.00     0.012 A 
HETATM   16  C   UNL     1       0.735   6.354 -30.319  1.00  0.00     0.013 A 
HETATM   17  C   UNL     1       1.012   7.946 -28.477  1.00  0.00     0.012 A 
HETATM   18  C   UNL     1      -0.061   5.773 -31.313  1.00  0.00     0.011 A 
HETATM   19  C   UNL     1       0.485   8.943 -27.654  1.00  0.00     0.001 A 
HETATM   20  C   UNL     1      -0.831   9.360 -27.823  1.00  0.00     0.001 A 
ENDBRANCH   6  11
ENDBRANCH   1   2
BRANCH   1  21
HETATM   21  C   UNL     1      -5.589   2.534 -32.777  1.00  0.00     0.240 C 
HETATM   22  N   UNL     1      -5.443   1.254 -32.253  1.00  0.00    -0.325 N 
HETATM   23  H   UNL     1      -5.643   1.231 -31.261  1.00  0.00     0.169 HD
HETATM   24  O   UNL     1      -5.727   2.767 -33.979  1.00  0.00    -0.271 OA
BRANCH  22  25
HETATM   25  C   UNL     1      -5.961   0.143 -32.968  1.00  0.00     0.050 A 
HETATM   26  C   UNL     1      -7.323  -0.138 -33.186  1.00  0.00     0.058 A 
HETATM   27  C   UNL     1      -7.668  -1.295 -33.916  1.00  0.00     0.019 A 
HETATM   28  C   UNL     1      -6.691  -2.150 -34.428  1.00  0.00     0.001 A 
HETATM   29  C   UNL     1      -5.349  -1.848 -34.244  1.00  0.00     0.002 A 
HETATM   30  C   UNL     1      -4.987  -0.706 -33.529  1.00  0.00     0.030 A 
BRANCH  26  31
HETATM   31  C   UNL     1      -8.472   0.767 -32.890  1.00  0.00     0.254 C 
HETATM   32  N   UNL     1      -9.309   1.108 -33.915  1.00  0.00    -0.351 N 
HETATM   33  H   UNL     1      -9.053   0.849 -34.865  1.00  0.00     0.163 HD
HETATM   34  O   UNL     1      -8.595   1.216 -31.753  1.00  0.00    -0.268 OA
BRANCH  32  35
HETATM   35  C   UNL     1     -10.374   2.069 -33.762  1.00  0.00     0.187 C 
BRANCH  35  36
HETATM   36  C   UNL     1     -11.681   1.382 -33.913  1.00  0.00     0.070 A 
HETATM   37  O   UNL     1     -11.808   0.149 -33.338  1.00  0.00    -0.325 OA
HETATM   38  C   UNL     1     -13.056  -0.298 -33.632  1.00  0.00     0.142 A 
HETATM   39  C   UNL     1     -13.736   0.630 -34.385  1.00  0.00     0.027 A 
HETATM   40  C   UNL     1     -12.850   1.719 -34.564  1.00  0.00     0.036 A 
ENDBRANCH  35  36
ENDBRANCH  32  35
ENDBRANCH  26  31
ENDBRANCH  22  25
ENDBRANCH   1  21
TORSDOF 7
ENDMDL
MODEL 4
REMARK VINA RESULT:     -10.4      3.403      4.801
REMARK  7 active torsions:
REMARK  status: ('A' for Active; 'I' for Inactive)
REMARK    1  A    between atoms: C_2  and  C_3 
REMARK    2  A    between atoms: N_16  and  C_17 
REMARK    3  A    between atoms: C_17  and  C_18 
REMARK       I    between atoms: C_18  and  N_19 
REMARK    4  A    between atoms: N_19  and  C_20 
REMARK    5  A    between atoms: C_21  and  C_22 
REMARK       I    between atoms: C_22  and  N_23 
REMARK    6  A    between atoms: N_23  and  C_24 
REMARK    7  A    between atoms: C_24  and  C_25 
ROOT
HETATM    1  C   UNL     1      -6.461   2.721 -29.768  1.00  0.00     0.240 C 
ENDROOT
BRANCH   1   2
HETATM    2  N   UNL     1      -5.977   2.235 -31.047  1.00  0.00    -0.259 N 
HETATM    3  C   UNL     1      -4.901   2.755 -31.693  1.00  0.00     0.326 A 
HETATM    4  N   UNL     1      -4.785   2.153 -32.916  1.00  0.00    -0.321 N 
HETATM    5  O   UNL     1      -4.127   3.595 -31.270  1.00  0.00    -0.247 OA
HETATM    6  C   UNL     1      -5.873   1.238 -33.202  1.00  0.00     0.140 A 
HETATM    7  H   UNL     1      -4.071   2.434 -33.576  1.00  0.00     0.165 HD
HETATM    8  C   UNL     1      -6.697   1.784 -34.370  1.00  0.00     0.054 C 
HETATM    9  C   UNL     1      -6.664   1.391 -31.877  1.00  0.00     0.261 A 
HETATM   10  O   UNL     1      -7.745   0.872 -31.626  1.00  0.00    -0.270 OA
BRANCH   6  11
HETATM   11  C   UNL     1      -5.407  -0.197 -33.417  1.00  0.00    -0.020 A 
HETATM   12  C   UNL     1      -6.252  -1.117 -34.071  1.00  0.00     0.022 A 
HETATM   13  C   UNL     1      -5.870  -2.451 -34.297  1.00  0.00    -0.025 A 
HETATM   14  C   UNL     1      -4.606  -2.891 -33.853  1.00  0.00    -0.026 A 
HETATM   15  C   UNL     1      -6.720  -3.355 -34.956  1.00  0.00     0.012 A 
HETATM   16  C   UNL     1      -3.763  -1.987 -33.195  1.00  0.00     0.013 A 
HETATM   17  C   UNL     1      -4.225  -4.225 -34.078  1.00  0.00     0.012 A 
HETATM   18  C   UNL     1      -4.155  -0.661 -32.981  1.00  0.00     0.011 A 
HETATM   19  C   UNL     1      -5.081  -5.111 -34.735  1.00  0.00     0.001 A 
HETATM   20  C   UNL     1      -6.326  -4.675 -35.174  1.00  0.00     0.001 A 
ENDBRANCH   6  11
ENDBRANCH   1   2
BRANCH   1  21
HETATM   21  C   UNL     1      -7.249   4.029 -29.858  1.00  0.00     0.240 C 
HETATM   22  N   UNL     1      -6.504   5.194 -29.709  1.00  0.00    -0.325 N 
HETATM   23  H   UNL     1      -5.526   5.043 -29.924  1.00  0.00     0.169 HD
HETATM   24  O   UNL     1      -8.476   4.015 -29.980  1.00  0.00    -0.271 OA
BRANCH  22  25
HETATM   25  C   UNL     1      -7.017   6.420 -30.205  1.00  0.00     0.050 A 
HETATM   26  C   UNL     1      -6.945   6.868 -31.538  1.00  0.00     0.058 A 
HETATM   27  C   UNL     1      -7.502   8.122 -31.863  1.00  0.00     0.019 A 
HETATM   28  C   UNL     1      -8.125   8.914 -30.896  1.00  0.00     0.001 A 
HETATM   29  C   UNL     1      -8.229   8.451 -29.592  1.00  0.00     0.002 A 
HETATM   30  C   UNL     1      -7.689   7.210 -29.252  1.00  0.00     0.030 A 
BRANCH  26  31
HETATM   31  C   UNL     1      -6.502   6.068 -32.718  1.00  0.00     0.254 C 
HETATM   32  N   UNL     1      -5.170   6.049 -33.024  1.00  0.00    -0.351 N 
HETATM   33  H   UNL     1      -4.542   6.678 -32.527  1.00  0.00     0.163 HD
HETATM   34  O   UNL     1      -7.350   5.504 -33.403  1.00  0.00    -0.268 OA
BRANCH  32  35
HETATM   35  C   UNL     1      -4.654   5.409 -34.209  1.00  0.00     0.187 C 
BRANCH  35  36
HETATM   36  C   UNL     1      -3.190   5.637 -34.294  1.00  0.00     0.070 A 
HETATM   37  O   UNL     1      -2.691   6.728 -33.640  1.00  0.00    -0.325 OA
HETATM   38  C   UNL     1      -1.354   6.757 -33.883  1.00  0.00     0.142 A 
HETATM   39  C   UNL     1      -0.986   5.699 -34.680  1.00  0.00     0.027 A 
HETATM   40  C   UNL     1      -2.170   4.972 -34.943  1.00  0.00     0.036 A 
ENDBRANCH  35  36
ENDBRANCH  32  35
ENDBRANCH  26  31
ENDBRANCH  22  25
ENDBRANCH   1  21
TORSDOF 7
ENDMDL
MODEL 5
REMARK VINA RESULT:     -10.4      1.836      2.789
REMARK  7 active torsions:
REMARK  status: ('A' for Active; 'I' for Inactive)
REMARK    1  A    between atoms: C_2  and  C_3 
REMARK    2  A    between atoms: N_16  and  C_17 
REMARK    3  A    between atoms: C_17  and  C_18 
REMARK       I    between atoms: C_18  and  N_19 
REMARK    4  A    between atoms: N_19  and  C_20 
REMARK    5  A    between atoms: C_21  and  C_22 
REMARK       I    between atoms: C_22  and  N_23 
REMARK    6  A    between atoms: N_23  and  C_24 
REMARK    7  A    between atoms: C_24  and  C_25 
ROOT
HETATM    1  C   UNL     1      -3.620   4.703 -32.302  1.00  0.00     0.240 C 
ENDROOT
BRANCH   1   2
HETATM    2  N   UNL     1      -4.545   3.671 -32.732  1.00  0.00    -0.259 N 
HETATM    3  C   UNL     1      -5.360   3.791 -33.811  1.00  0.00     0.326 A 
HETATM    4  N   UNL     1      -6.182   2.698 -33.871  1.00  0.00    -0.321 N 
HETATM    5  O   UNL     1      -5.363   4.691 -34.632  1.00  0.00    -0.247 OA
HETATM    6  C   UNL     1      -6.022   1.809 -32.737  1.00  0.00     0.140 A 
HETATM    7  H   UNL     1      -6.900   2.616 -34.578  1.00  0.00     0.165 HD
HETATM    8  C   UNL     1      -7.308   1.812 -31.907  1.00  0.00     0.054 C 
HETATM    9  C   UNL     1      -4.904   2.579 -31.987  1.00  0.00     0.261 A 
HETATM   10  O   UNL     1      -4.443   2.284 -30.892  1.00  0.00    -0.270 OA
BRANCH   6  11
HETATM   11  C   UNL     1      -5.570   0.407 -33.134  1.00  0.00    -0.020 A 
HETATM   12  C   UNL     1      -6.510  -0.514 -33.638  1.00  0.00     0.022 A 
HETATM   13  C   UNL     1      -6.146  -1.817 -34.022  1.00  0.00    -0.025 A 
HETATM   14  C   UNL     1      -4.802  -2.223 -33.894  1.00  0.00    -0.026 A 
HETATM   15  C   UNL     1      -7.093  -2.723 -34.529  1.00  0.00     0.012 A 
HETATM   16  C   UNL     1      -3.862  -1.317 -33.386  1.00  0.00     0.013 A 
HETATM   17  C   UNL     1      -4.438  -3.526 -34.275  1.00  0.00     0.012 A 
HETATM   18  C   UNL     1      -4.239  -0.022 -33.013  1.00  0.00     0.011 A 
HETATM   19  C   UNL     1      -5.391  -4.414 -34.779  1.00  0.00     0.001 A 
HETATM   20  C   UNL     1      -6.716  -4.012 -34.906  1.00  0.00     0.001 A 
ENDBRANCH   6  11
ENDBRANCH   1   2
BRANCH   1  21
HETATM   21  C   UNL     1      -4.255   5.780 -31.420  1.00  0.00     0.240 C 
HETATM   22  N   UNL     1      -4.420   5.442 -30.081  1.00  0.00    -0.325 N 
HETATM   23  H   UNL     1      -3.785   4.706 -29.799  1.00  0.00     0.169 HD
HETATM   24  O   UNL     1      -4.654   6.837 -31.911  1.00  0.00    -0.271 OA
BRANCH  22  25
HETATM   25  C   UNL     1      -4.568   6.471 -29.115  1.00  0.00     0.050 A 
HETATM   26  C   UNL     1      -3.530   7.253 -28.574  1.00  0.00     0.058 A 
HETATM   27  C   UNL     1      -3.851   8.233 -27.612  1.00  0.00     0.019 A 
HETATM   28  C   UNL     1      -5.168   8.445 -27.200  1.00  0.00     0.001 A 
HETATM   29  C   UNL     1      -6.193   7.699 -27.765  1.00  0.00     0.002 A 
HETATM   30  C   UNL     1      -5.896   6.728 -28.722  1.00  0.00     0.030 A 
BRANCH  26  31
HETATM   31  C   UNL     1      -2.115   7.296 -29.046  1.00  0.00     0.254 C 
HETATM   32  N   UNL     1      -1.218   6.433 -28.483  1.00  0.00    -0.351 N 
HETATM   33  H   UNL     1      -1.504   5.885 -27.675  1.00  0.00     0.163 HD
HETATM   34  O   UNL     1      -1.795   8.139 -29.881  1.00  0.00    -0.268 OA
BRANCH  32  35
HETATM   35  C   UNL     1       0.193   6.476 -28.781  1.00  0.00     0.187 C 
BRANCH  35  36
HETATM   36  C   UNL     1       0.876   7.355 -27.799  1.00  0.00     0.070 A 
HETATM   37  O   UNL     1       0.852   6.966 -26.490  1.00  0.00    -0.325 OA
HETATM   38  C   UNL     1       1.497   7.926 -25.779  1.00  0.00     0.142 A 
HETATM   39  C   UNL     1       1.939   8.928 -26.612  1.00  0.00     0.027 A 
HETATM   40  C   UNL     1       1.542   8.558 -27.919  1.00  0.00     0.036 A 
ENDBRANCH  35  36
ENDBRANCH  32  35
ENDBRANCH  26  31
ENDBRANCH  22  25
ENDBRANCH   1  21
TORSDOF 7
ENDMDL
MODEL 6
REMARK VINA RESULT:     -10.4      1.908      3.604
REMARK  7 active torsions:
REMARK  status: ('A' for Active; 'I' for Inactive)
REMARK    1  A    between atoms: C_2  and  C_3 
REMARK    2  A    between atoms: N_16  and  C_17 
REMARK    3  A    between atoms: C_17  and  C_18 
REMARK       I    between atoms: C_18  and  N_19 
REMARK    4  A    between atoms: N_19  and  C_20 
REMARK    5  A    between atoms: C_21  and  C_22 
REMARK       I    between atoms: C_22  and  N_23 
REMARK    6  A    between atoms: N_23  and  C_24 
REMARK    7  A    between atoms: C_24  and  C_25 
ROOT
HETATM    1  C   UNL     1      -5.523   4.373 -31.558  1.00  0.00     0.240 C 
ENDROOT
BRANCH   1   2
HETATM    2  N   UNL     1      -5.931   3.337 -32.489  1.00  0.00    -0.259 N 
HETATM    3  C   UNL     1      -6.027   3.523 -33.831  1.00  0.00     0.326 A 
HETATM    4  N   UNL     1      -6.545   2.392 -34.400  1.00  0.00    -0.321 N 
HETATM    5  O   UNL     1      -5.686   4.508 -34.461  1.00  0.00    -0.247 OA
HETATM    6  C   UNL     1      -6.930   1.393 -33.422  1.00  0.00     0.140 A 
HETATM    7  H   UNL     1      -6.742   2.342 -35.391  1.00  0.00     0.165 HD
HETATM    8  C   UNL     1      -8.450   1.216 -33.451  1.00  0.00     0.054 C 
HETATM    9  C   UNL     1      -6.508   2.147 -32.134  1.00  0.00     0.261 A 
HETATM   10  O   UNL     1      -6.692   1.761 -30.987  1.00  0.00    -0.270 OA
BRANCH   6  11
HETATM   11  C   UNL     1      -6.172   0.079 -33.579  1.00  0.00    -0.020 A 
HETATM   12  C   UNL     1      -6.836  -1.055 -34.089  1.00  0.00     0.022 A 
HETATM   13  C   UNL     1      -6.183  -2.290 -34.256  1.00  0.00    -0.025 A 
HETATM   14  C   UNL     1      -4.824  -2.405 -33.898  1.00  0.00    -0.026 A 
HETATM   15  C   UNL     1      -6.856  -3.410 -34.771  1.00  0.00     0.012 A 
HETATM   16  C   UNL     1      -4.158  -1.285 -33.383  1.00  0.00     0.013 A 
HETATM   17  C   UNL     1      -4.172  -3.639 -34.064  1.00  0.00     0.012 A 
HETATM   18  C   UNL     1      -4.821  -0.063 -33.227  1.00  0.00     0.011 A 
HETATM   19  C   UNL     1      -4.855  -4.743 -34.578  1.00  0.00     0.001 A 
HETATM   20  C   UNL     1      -6.194  -4.628 -34.932  1.00  0.00     0.001 A 
ENDBRANCH   6  11
ENDBRANCH   1   2
BRANCH   1  21
HETATM   21  C   UNL     1      -4.007   4.537 -31.437  1.00  0.00     0.240 C 
HETATM   22  N   UNL     1      -3.520   5.822 -31.654  1.00  0.00    -0.325 N 
HETATM   23  H   UNL     1      -4.234   6.524 -31.502  1.00  0.00     0.169 HD
HETATM   24  O   UNL     1      -3.284   3.560 -31.235  1.00  0.00    -0.271 OA
BRANCH  22  25
HETATM   25  C   UNL     1      -2.246   6.182 -31.145  1.00  0.00     0.050 A 
HETATM   26  C   UNL     1      -2.003   6.957 -29.995  1.00  0.00     0.058 A 
HETATM   27  C   UNL     1      -0.668   7.230 -29.631  1.00  0.00     0.019 A 
HETATM   28  C   UNL     1       0.405   6.740 -30.378  1.00  0.00     0.001 A 
HETATM   29  C   UNL     1       0.162   5.943 -31.488  1.00  0.00     0.002 A 
HETATM   30  C   UNL     1      -1.152   5.658 -31.862  1.00  0.00     0.030 A 
BRANCH  26  31
HETATM   31  C   UNL     1      -3.015   7.380 -28.983  1.00  0.00     0.254 C 
HETATM   32  N   UNL     1      -3.692   6.409 -28.299  1.00  0.00    -0.351 N 
HETATM   33  H   UNL     1      -3.586   5.439 -28.589  1.00  0.00     0.163 HD
HETATM   34  O   UNL     1      -3.244   8.578 -28.839  1.00  0.00    -0.268 OA
BRANCH  32  35
HETATM   35  C   UNL     1      -4.772   6.708 -27.391  1.00  0.00     0.187 C 
BRANCH  35  36
HETATM   36  C   UNL     1      -6.064   6.613 -28.115  1.00  0.00     0.070 A 
HETATM   37  O   UNL     1      -6.734   5.425 -28.041  1.00  0.00    -0.325 OA
HETATM   38  C   UNL     1      -7.855   5.554 -28.798  1.00  0.00     0.142 A 
HETATM   39  C   UNL     1      -7.917   6.810 -29.356  1.00  0.00     0.027 A 
HETATM   40  C   UNL     1      -6.763   7.497 -28.912  1.00  0.00     0.036 A 
ENDBRANCH  35  36
ENDBRANCH  32  35
ENDBRANCH  26  31
ENDBRANCH  22  25
ENDBRANCH   1  21
TORSDOF 7
ENDMDL
MODEL 7
REMARK VINA RESULT:     -10.2      4.696      9.015
REMARK  7 active torsions:
REMARK  status: ('A' for Active; 'I' for Inactive)
REMARK    1  A    between atoms: C_2  and  C_3 
REMARK    2  A    between atoms: N_16  and  C_17 
REMARK    3  A    between atoms: C_17  and  C_18 
REMARK       I    between atoms: C_18  and  N_19 
REMARK    4  A    between atoms: N_19  and  C_20 
REMARK    5  A    between atoms: C_21  and  C_22 
REMARK       I    between atoms: C_22  and  N_23 
REMARK    6  A    between atoms: N_23  and  C_24 
REMARK    7  A    between atoms: C_24  and  C_25 
ROOT
HETATM    1  C   UNL     1      -8.896   3.734 -33.090  1.00  0.00     0.240 C 
ENDROOT
BRANCH   1   2
HETATM    2  N   UNL     1      -7.804   2.941 -32.556  1.00  0.00    -0.259 N 
HETATM    3  C   UNL     1      -7.727   2.537 -31.262  1.00  0.00     0.326 A 
HETATM    4  N   UNL     1      -6.526   1.913 -31.062  1.00  0.00    -0.321 N 
HETATM    5  O   UNL     1      -8.581   2.664 -30.402  1.00  0.00    -0.247 OA
HETATM    6  C   UNL     1      -5.666   1.957 -32.228  1.00  0.00     0.140 A 
HETATM    7  H   UNL     1      -6.251   1.578 -30.148  1.00  0.00     0.165 HD
HETATM    8  C   UNL     1      -4.436   2.813 -31.917  1.00  0.00     0.054 C 
HETATM    9  C   UNL     1      -6.612   2.718 -33.192  1.00  0.00     0.261 A 
HETATM   10  O   UNL     1      -6.330   3.092 -34.324  1.00  0.00    -0.270 OA
BRANCH   6  11
HETATM   11  C   UNL     1      -5.311   0.573 -32.763  1.00  0.00    -0.020 A 
HETATM   12  C   UNL     1      -6.324  -0.255 -33.287  1.00  0.00     0.022 A 
HETATM   13  C   UNL     1      -6.050  -1.538 -33.795  1.00  0.00    -0.025 A 
HETATM   14  C   UNL     1      -4.725  -2.019 -33.775  1.00  0.00    -0.026 A 
HETATM   15  C   UNL     1      -7.068  -2.349 -34.321  1.00  0.00     0.012 A 
HETATM   16  C   UNL     1      -3.714  -1.206 -33.247  1.00  0.00     0.013 A 
HETATM   17  C   UNL     1      -4.452  -3.302 -34.280  1.00  0.00     0.012 A 
HETATM   18  C   UNL     1      -4.001   0.070 -32.749  1.00  0.00     0.011 A 
HETATM   19  C   UNL     1      -5.475  -4.096 -34.801  1.00  0.00     0.001 A 
HETATM   20  C   UNL     1      -6.781  -3.620 -34.823  1.00  0.00     0.001 A 
ENDBRANCH   6  11
ENDBRANCH   1   2
BRANCH   1  21
HETATM   21  C   UNL     1     -10.032   2.902 -33.689  1.00  0.00     0.240 C 
HETATM   22  N   UNL     1     -10.808   2.195 -32.777  1.00  0.00    -0.325 N 
HETATM   23  H   UNL     1     -10.758   2.599 -31.850  1.00  0.00     0.169 HD
HETATM   24  O   UNL     1     -10.175   2.825 -34.911  1.00  0.00    -0.271 OA
BRANCH  22  25
HETATM   25  C   UNL     1     -12.111   1.772 -33.147  1.00  0.00     0.050 A 
HETATM   26  C   UNL     1     -13.269   2.573 -33.154  1.00  0.00     0.058 A 
HETATM   27  C   UNL     1     -14.493   1.990 -33.545  1.00  0.00     0.019 A 
HETATM   28  C   UNL     1     -14.571   0.651 -33.930  1.00  0.00     0.001 A 
HETATM   29  C   UNL     1     -13.420  -0.124 -33.961  1.00  0.00     0.002 A 
HETATM   30  C   UNL     1     -12.198   0.436 -33.582  1.00  0.00     0.030 A 
BRANCH  26  31
HETATM   31  C   UNL     1     -13.324   4.052 -32.970  1.00  0.00     0.254 C 
HETATM   32  N   UNL     1     -13.750   4.820 -34.018  1.00  0.00    -0.351 N 
HETATM   33  H   UNL     1     -13.888   4.380 -34.925  1.00  0.00     0.163 HD
HETATM   34  O   UNL     1     -12.934   4.533 -31.909  1.00  0.00    -0.268 OA
BRANCH  32  35
HETATM   35  C   UNL     1     -13.725   6.262 -33.986  1.00  0.00     0.187 C 
BRANCH  35  36
HETATM   36  C   UNL     1     -12.495   6.747 -34.660  1.00  0.00     0.070 A 
HETATM   37  O   UNL     1     -11.558   5.812 -34.996  1.00  0.00    -0.325 OA
HETATM   38  C   UNL     1     -10.518   6.479 -35.560  1.00  0.00     0.142 A 
HETATM   39  C   UNL     1     -10.773   7.830 -35.595  1.00  0.00     0.027 A 
HETATM   40  C   UNL     1     -12.052   8.004 -35.018  1.00  0.00     0.036 A 
ENDBRANCH  35  36
ENDBRANCH  32  35
ENDBRANCH  26  31
ENDBRANCH  22  25
ENDBRANCH   1  21
TORSDOF 7
ENDMDL
MODEL 8
REMARK VINA RESULT:     -10.2      1.226      2.207
REMARK  7 active torsions:
REMARK  status: ('A' for Active; 'I' for Inactive)
REMARK    1  A    between atoms: C_2  and  C_3 
REMARK    2  A    between atoms: N_16  and  C_17 
REMARK    3  A    between atoms: C_17  and  C_18 
REMARK       I    between atoms: C_18  and  N_19 
REMARK    4  A    between atoms: N_19  and  C_20 
REMARK    5  A    between atoms: C_21  and  C_22 
REMARK       I    between atoms: C_22  and  N_23 
REMARK    6  A    between atoms: N_23  and  C_24 
REMARK    7  A    between atoms: C_24  and  C_25 
ROOT
HETATM    1  C   UNL     1      -6.645   4.390 -31.949  1.00  0.00     0.240 C 
ENDROOT
BRANCH   1   2
HETATM    2  N   UNL     1      -6.190   3.028 -31.736  1.00  0.00    -0.259 N 
HETATM    3  C   UNL     1      -6.313   2.368 -30.555  1.00  0.00     0.326 A 
HETATM    4  N   UNL     1      -5.684   1.157 -30.657  1.00  0.00    -0.321 N 
HETATM    5  O   UNL     1      -6.906   2.747 -29.562  1.00  0.00    -0.247 OA
HETATM    6  C   UNL     1      -4.998   0.981 -31.922  1.00  0.00     0.140 A 
HETATM    7  H   UNL     1      -5.619   0.529 -29.867  1.00  0.00     0.165 HD
HETATM    8  C   UNL     1      -3.489   0.914 -31.673  1.00  0.00     0.054 C 
HETATM    9  C   UNL     1      -5.368   2.334 -32.583  1.00  0.00     0.261 A 
HETATM   10  O   UNL     1      -4.963   2.735 -33.667  1.00  0.00    -0.270 OA
BRANCH   6  11
HETATM   11  C   UNL     1      -5.524  -0.202 -32.728  1.00  0.00    -0.020 A 
HETATM   12  C   UNL     1      -4.685  -1.305 -32.979  1.00  0.00     0.022 A 
HETATM   13  C   UNL     1      -5.121  -2.423 -33.715  1.00  0.00    -0.025 A 
HETATM   14  C   UNL     1      -6.435  -2.442 -34.225  1.00  0.00    -0.026 A 
HETATM   15  C   UNL     1      -4.276  -3.519 -33.952  1.00  0.00     0.012 A 
HETATM   16  C   UNL     1      -7.274  -1.345 -33.987  1.00  0.00     0.013 A 
HETATM   17  C   UNL     1      -6.871  -3.556 -34.961  1.00  0.00     0.012 A 
HETATM   18  C   UNL     1      -6.827  -0.243 -33.250  1.00  0.00     0.011 A 
HETATM   19  C   UNL     1      -6.019  -4.639 -35.188  1.00  0.00     0.001 A 
HETATM   20  C   UNL     1      -4.723  -4.620 -34.683  1.00  0.00     0.001 A 
ENDBRANCH   6  11
ENDBRANCH   1   2
BRANCH   1  21
HETATM   21  C   UNL     1      -5.516   5.421 -32.005  1.00  0.00     0.240 C 
HETATM   22  N   UNL     1      -4.289   4.999 -31.503  1.00  0.00    -0.325 N 
HETATM   23  H   UNL     1      -4.208   3.990 -31.512  1.00  0.00     0.169 HD
HETATM   24  O   UNL     1      -5.732   6.567 -32.403  1.00  0.00    -0.271 OA
BRANCH  22  25
HETATM   25  C   UNL     1      -3.104   5.672 -31.899  1.00  0.00     0.050 A 
HETATM   26  C   UNL     1      -2.375   6.591 -31.120  1.00  0.00     0.058 A 
HETATM   27  C   UNL     1      -1.217   7.177 -31.671  1.00  0.00     0.019 A 
HETATM   28  C   UNL     1      -0.781   6.857 -32.958  1.00  0.00     0.001 A 
HETATM   29  C   UNL     1      -1.480   5.921 -33.707  1.00  0.00     0.002 A 
HETATM   30  C   UNL     1      -2.625   5.326 -33.177  1.00  0.00     0.030 A 
BRANCH  26  31
HETATM   31  C   UNL     1      -2.584   6.886 -29.672  1.00  0.00     0.254 C 
HETATM   32  N   UNL     1      -1.490   6.912 -28.852  1.00  0.00    -0.351 N 
HETATM   33  H   UNL     1      -0.594   6.602 -29.220  1.00  0.00     0.163 HD
HETATM   34  O   UNL     1      -3.730   7.039 -29.258  1.00  0.00    -0.268 OA
BRANCH  32  35
HETATM   35  C   UNL     1      -1.596   7.067 -27.422  1.00  0.00     0.187 C 
BRANCH  35  36
HETATM   36  C   UNL     1      -0.286   7.503 -26.877  1.00  0.00     0.070 A 
HETATM   37  O   UNL     1      -0.306   8.396 -25.844  1.00  0.00    -0.325 OA
HETATM   38  C   UNL     1       0.987   8.676 -25.537  1.00  0.00     0.142 A 
HETATM   39  C   UNL     1       1.840   7.973 -26.356  1.00  0.00     0.027 A 
HETATM   40  C   UNL     1       1.019   7.211 -27.219  1.00  0.00     0.036 A 
ENDBRANCH  35  36
ENDBRANCH  32  35
ENDBRANCH  26  31
ENDBRANCH  22  25
ENDBRANCH   1  21
TORSDOF 7
ENDMDL
MODEL 9
REMARK VINA RESULT:     -10.0      2.172      4.740
REMARK  7 active torsions:
REMARK  status: ('A' for Active; 'I' for Inactive)
REMARK    1  A    between atoms: C_2  and  C_3 
REMARK    2  A    between atoms: N_16  and  C_17 
REMARK    3  A    between atoms: C_17  and  C_18 
REMARK       I    between atoms: C_18  and  N_19 
REMARK    4  A    between atoms: N_19  and  C_20 
REMARK    5  A    between atoms: C_21  and  C_22 
REMARK       I    between atoms: C_22  and  N_23 
REMARK    6  A    between atoms: N_23  and  C_24 
REMARK    7  A    between atoms: C_24  and  C_25 
ROOT
HETATM    1  C   UNL     1      -1.684   4.615 -33.138  1.00  0.00     0.240 C 
ENDROOT
BRANCH   1   2
HETATM    2  N   UNL     1      -3.062   4.169 -33.033  1.00  0.00    -0.259 N 
HETATM    3  C   UNL     1      -4.127   4.914 -33.425  1.00  0.00     0.326 A 
HETATM    4  N   UNL     1      -5.278   4.255 -33.085  1.00  0.00    -0.321 N 
HETATM    5  O   UNL     1      -4.101   5.980 -34.013  1.00  0.00    -0.247 OA
HETATM    6  C   UNL     1      -5.032   3.041 -32.333  1.00  0.00     0.140 A 
HETATM    7  H   UNL     1      -6.188   4.666 -33.247  1.00  0.00     0.165 HD
HETATM    8  C   UNL     1      -5.580   3.206 -30.913  1.00  0.00     0.054 C 
HETATM    9  C   UNL     1      -3.482   3.084 -32.311  1.00  0.00     0.261 A 
HETATM   10  O   UNL     1      -2.752   2.301 -31.717  1.00  0.00    -0.270 OA
BRANCH   6  11
HETATM   11  C   UNL     1      -5.550   1.789 -33.032  1.00  0.00    -0.020 A 
HETATM   12  C   UNL     1      -4.801   0.596 -32.978  1.00  0.00     0.022 A 
HETATM   13  C   UNL     1      -5.235  -0.587 -33.603  1.00  0.00    -0.025 A 
HETATM   14  C   UNL     1      -6.453  -0.584 -34.313  1.00  0.00    -0.026 A 
HETATM   15  C   UNL     1      -4.481  -1.770 -33.536  1.00  0.00     0.012 A 
HETATM   16  C   UNL     1      -7.201   0.599 -34.379  1.00  0.00     0.013 A 
HETATM   17  C   UNL     1      -6.886  -1.765 -34.940  1.00  0.00     0.012 A 
HETATM   18  C   UNL     1      -6.757   1.767 -33.748  1.00  0.00     0.011 A 
HETATM   19  C   UNL     1      -6.126  -2.933 -34.863  1.00  0.00     0.001 A 
HETATM   20  C   UNL     1      -4.925  -2.936 -34.161  1.00  0.00     0.001 A 
ENDBRANCH   6  11
ENDBRANCH   1   2
BRANCH   1  21
HETATM   21  C   UNL     1      -1.131   5.230 -31.851  1.00  0.00     0.240 C 
HETATM   22  N   UNL     1      -0.861   6.594 -31.902  1.00  0.00    -0.325 N 
HETATM   23  H   UNL     1      -1.393   7.054 -32.631  1.00  0.00     0.169 HD
HETATM   24  O   UNL     1      -0.880   4.522 -30.875  1.00  0.00    -0.271 OA
BRANCH  22  25
HETATM   25  C   UNL     1      -0.782   7.336 -30.696  1.00  0.00     0.050 A 
HETATM   26  C   UNL     1      -1.781   8.184 -30.179  1.00  0.00     0.058 A 
HETATM   27  C   UNL     1      -1.536   8.857 -28.964  1.00  0.00     0.019 A 
HETATM   28  C   UNL     1      -0.337   8.690 -28.268  1.00  0.00     0.001 A 
HETATM   29  C   UNL     1       0.629   7.823 -28.761  1.00  0.00     0.002 A 
HETATM   30  C   UNL     1       0.403   7.144 -29.959  1.00  0.00     0.030 A 
BRANCH  26  31
HETATM   31  C   UNL     1      -3.179   8.313 -30.682  1.00  0.00     0.254 C 
HETATM   32  N   UNL     1      -4.062   7.306 -30.409  1.00  0.00    -0.351 N 
HETATM   33  H   UNL     1      -3.712   6.446 -29.991  1.00  0.00     0.163 HD
HETATM   34  O   UNL     1      -3.474   9.288 -31.369  1.00  0.00    -0.268 OA
BRANCH  32  35
HETATM   35  C   UNL     1      -5.399   7.276 -30.950  1.00  0.00     0.187 C 
BRANCH  35  36
HETATM   36  C   UNL     1      -6.328   6.723 -29.934  1.00  0.00     0.070 A 
HETATM   37  O   UNL     1      -5.771   6.082 -28.863  1.00  0.00    -0.325 OA
HETATM   38  C   UNL     1      -6.797   5.633 -28.094  1.00  0.00     0.142 A 
HETATM   39  C   UNL     1      -8.006   5.977 -28.652  1.00  0.00     0.027 A 
HETATM   40  C   UNL     1      -7.704   6.686 -29.839  1.00  0.00     0.036 A 
ENDBRANCH  35  36
ENDBRANCH  32  35
ENDBRANCH  26  31
ENDBRANCH  22  25
ENDBRANCH   1  21
TORSDOF 7
ENDMDL
MODEL 10
REMARK VINA RESULT:     -10.0      2.096     10.609
REMARK  7 active torsions:
REMARK  status: ('A' for Active; 'I' for Inactive)
REMARK    1  A    between atoms: C_2  and  C_3 
REMARK    2  A    between atoms: N_16  and  C_17 
REMARK    3  A    between atoms: C_17  and  C_18 
REMARK       I    between atoms: C_18  and  N_19 
REMARK    4  A    between atoms: N_19  and  C_20 
REMARK    5  A    between atoms: C_21  and  C_22 
REMARK       I    between atoms: C_22  and  N_23 
REMARK    6  A    between atoms: N_23  and  C_24 
REMARK    7  A    between atoms: C_24  and  C_25 
ROOT
HETATM    1  C   UNL     1      -3.348   3.577 -32.435  1.00  0.00     0.240 C 
ENDROOT
BRANCH   1   2
HETATM    2  N   UNL     1      -2.897   4.910 -32.075  1.00  0.00    -0.259 N 
HETATM    3  C   UNL     1      -3.568   6.045 -32.399  1.00  0.00     0.326 A 
HETATM    4  N   UNL     1      -2.821   7.126 -32.016  1.00  0.00    -0.321 N 
HETATM    5  O   UNL     1      -4.668   6.125 -32.914  1.00  0.00    -0.247 OA
HETATM    6  C   UNL     1      -1.522   6.756 -31.488  1.00  0.00     0.140 A 
HETATM    7  H   UNL     1      -3.123   8.071 -32.211  1.00  0.00     0.165 HD
HETATM    8  C   UNL     1      -0.430   7.266 -32.432  1.00  0.00     0.054 C 
HETATM    9  C   UNL     1      -1.648   5.215 -31.605  1.00  0.00     0.261 A 
HETATM   10  O   UNL     1      -0.766   4.404 -31.355  1.00  0.00    -0.270 OA
BRANCH   6  11
HETATM   11  C   UNL     1      -1.316   7.196 -30.043  1.00  0.00    -0.020 A 
HETATM   12  C   UNL     1      -0.036   7.593 -29.608  1.00  0.00     0.022 A 
HETATM   13  C   UNL     1       0.208   8.010 -28.287  1.00  0.00    -0.025 A 
HETATM   14  C   UNL     1      -0.856   8.027 -27.362  1.00  0.00    -0.026 A 
HETATM   15  C   UNL     1       1.488   8.409 -27.869  1.00  0.00     0.012 A 
HETATM   16  C   UNL     1      -2.131   7.627 -27.783  1.00  0.00     0.013 A 
HETATM   17  C   UNL     1      -0.613   8.442 -26.042  1.00  0.00     0.012 A 
HETATM   18  C   UNL     1      -2.358   7.218 -29.102  1.00  0.00     0.011 A 
HETATM   19  C   UNL     1       0.665   8.837 -25.642  1.00  0.00     0.001 A 
HETATM   20  C   UNL     1       1.714   8.821 -26.555  1.00  0.00     0.001 A 
ENDBRANCH   6  11
ENDBRANCH   1   2
BRANCH   1  21
HETATM   21  C   UNL     1      -4.700   3.194 -31.830  1.00  0.00     0.240 C 
HETATM   22  N   UNL     1      -5.778   3.204 -32.709  1.00  0.00    -0.325 N 
HETATM   23  H   UNL     1      -5.477   3.102 -33.671  1.00  0.00     0.169 HD
HETATM   24  O   UNL     1      -4.807   2.972 -30.623  1.00  0.00    -0.271 OA
BRANCH  22  25
HETATM   25  C   UNL     1      -6.944   2.460 -32.392  1.00  0.00     0.050 A 
HETATM   26  C   UNL     1      -7.305   1.214 -32.941  1.00  0.00     0.058 A 
HETATM   27  C   UNL     1      -8.509   0.612 -32.520  1.00  0.00     0.019 A 
HETATM   28  C   UNL     1      -9.333   1.219 -31.571  1.00  0.00     0.001 A 
HETATM   29  C   UNL     1      -8.954   2.428 -31.003  1.00  0.00     0.002 A 
HETATM   30  C   UNL     1      -7.764   3.037 -31.404  1.00  0.00     0.030 A 
BRANCH  26  31
HETATM   31  C   UNL     1      -6.451   0.344 -33.800  1.00  0.00     0.254 C 
HETATM   32  N   UNL     1      -5.647  -0.579 -33.191  1.00  0.00    -0.351 N 
HETATM   33  H   UNL     1      -5.555  -0.557 -32.178  1.00  0.00     0.163 HD
HETATM   34  O   UNL     1      -6.455   0.523 -35.015  1.00  0.00    -0.268 OA
BRANCH  32  35
HETATM   35  C   UNL     1      -4.696  -1.383 -33.919  1.00  0.00     0.187 C 
BRANCH  35  36
HETATM   36  C   UNL     1      -5.325  -2.677 -34.283  1.00  0.00     0.070 A 
HETATM   37  O   UNL     1      -4.552  -3.798 -34.174  1.00  0.00    -0.325 OA
HETATM   38  C   UNL     1      -5.312  -4.845 -34.589  1.00  0.00     0.142 A 
HETATM   39  C   UNL     1      -6.564  -4.415 -34.960  1.00  0.00     0.027 A 
HETATM   40  C   UNL     1      -6.575  -3.014 -34.759  1.00  0.00     0.036 A 
ENDBRANCH  35  36
ENDBRANCH  32  35
ENDBRANCH  26  31
ENDBRANCH  22  25
ENDBRANCH   1  21
TORSDOF 7
ENDMDL
