MODEL 1
REMARK VINA RESULT:      -8.7      0.000      0.000
REMARK  6 active torsions:
REMARK  status: ('A' for Active; 'I' for Inactive)
REMARK    1  A    between atoms: C_7  and  N_8 
REMARK    2  A    between atoms: N_8  and  C_9 
REMARK    3  A    between atoms: C_9  and  C_10 
REMARK    4  A    between atoms: C_12  and  N_13 
REMARK       I    between atoms: N_13  and  C_14 
REMARK    5  A    between atoms: C_14  and  C_15 
REMARK    6  A    between atoms: C_15  and  N_16 
ROOT
HETATM    1  C   UNL     1      -2.939   3.590 -32.453  1.00  0.00    -0.038 A 
HETATM    2  C   UNL     1      -2.292   4.049 -31.297  1.00  0.00     0.038 A 
HETATM    3  C   UNL     1      -1.380   5.102 -31.346  1.00  0.00     0.035 A 
HETATM    4  C   UNL     1      -1.011   5.618 -32.589  1.00  0.00     0.029 A 
HETATM    5  C   UNL     1      -1.607   5.134 -33.757  1.00  0.00     0.003 A 
HETATM    6  C   UNL     1      -2.586   4.141 -33.688  1.00  0.00     0.009 A 
ENDROOT
BRANCH   1   7
HETATM    7  C   UNL     1      -4.031   2.567 -32.335  1.00  0.00     0.176 C 
BRANCH   7   8
HETATM    8  N   UNL     1      -3.570   1.458 -31.508  1.00  0.00    -0.222 N 
HETATM    9  H   UNL     1      -3.306   1.633 -30.550  1.00  0.00     0.178 HD
BRANCH   8  10
HETATM   10  C   UNL     1      -3.595   0.178 -31.910  1.00  0.00     0.679 A 
HETATM   11  N   UNL     1      -4.188  -0.233 -33.022  1.00  0.00    -0.190 N 
HETATM   12  C   UNL     1      -4.027  -1.596 -33.178  1.00  0.00     0.076 A 
HETATM   13  H   UNL     1      -4.690   0.356 -33.671  1.00  0.00     0.184 HD
HETATM   14  C   UNL     1      -3.298  -2.017 -32.068  1.00  0.00     0.076 A 
HETATM   15  C   UNL     1      -4.450  -2.471 -34.169  1.00  0.00     0.032 A 
HETATM   16  C   UNL     1      -2.946  -3.343 -31.855  1.00  0.00     0.032 A 
HETATM   17  N   UNL     1      -3.058  -0.880 -31.329  1.00  0.00    -0.190 N 
HETATM   18  C   UNL     1      -3.363  -4.243 -32.848  1.00  0.00     0.002 A 
HETATM   19  C   UNL     1      -4.096  -3.818 -33.978  1.00  0.00     0.002 A 
HETATM   20  H   UNL     1      -2.589  -0.896 -30.434  1.00  0.00     0.184 HD
ENDBRANCH   8  10
ENDBRANCH   7   8
ENDBRANCH   1   7
BRANCH   3  21
HETATM   21  N   UNL     1      -0.832   5.691 -30.192  1.00  0.00    -0.326 N 
HETATM   22  C   UNL     1       0.327   5.321 -29.533  1.00  0.00     0.242 C 
HETATM   23  O   UNL     1       1.046   4.374 -29.871  1.00  0.00    -0.271 OA
HETATM   24  H   UNL     1      -1.424   6.370 -29.699  1.00  0.00     0.169 HD
BRANCH  22  25
HETATM   25  C   UNL     1       0.648   6.073 -28.250  1.00  0.00     0.253 C 
BRANCH  25  26
HETATM   26  N   UNL     1      -0.483   6.457 -27.422  1.00  0.00    -0.273 N 
HETATM   27  N   UNL     1      -1.392   7.349 -27.882  1.00  0.00    -0.185 NA
HETATM   28  C   UNL     1      -2.325   7.371 -26.924  1.00  0.00     0.140 A 
HETATM   29  C   UNL     1      -2.020   6.505 -25.860  1.00  0.00     0.040 A 
HETATM   30  C   UNL     1      -0.824   5.924 -26.211  1.00  0.00     0.114 A 
ENDBRANCH  25  26
ENDBRANCH  22  25
ENDBRANCH   3  21
TORSDOF 6
ENDMDL
MODEL 2
REMARK VINA RESULT:      -8.5      1.020      1.613
REMARK  6 active torsions:
REMARK  status: ('A' for Active; 'I' for Inactive)
REMARK    1  A    between atoms: C_7  and  N_8 
REMARK    2  A    between atoms: N_8  and  C_9 
REMARK    3  A    between atoms: C_9  and  C_10 
REMARK    4  A    between atoms: C_12  and  N_13 
REMARK       I    between atoms: N_13  and  C_14 
REMARK    5  A    between atoms: C_14  and  C_15 
REMARK    6  A    between atoms: C_15  and  N_16 
ROOT
HETATM    1  C   UNL     1      -3.021   3.633 -32.446  1.00  0.00    -0.038 A 
HETATM    2  C   UNL     1      -2.366   4.076 -31.288  1.00  0.00     0.038 A 
HETATM    3  C   UNL     1      -1.415   5.094 -31.337  1.00  0.00     0.035 A 
HETATM    4  C   UNL     1      -1.018   5.587 -32.581  1.00  0.00     0.029 A 
HETATM    5  C   UNL     1      -1.624   5.118 -33.750  1.00  0.00     0.003 A 
HETATM    6  C   UNL     1      -2.639   4.163 -33.682  1.00  0.00     0.009 A 
ENDROOT
BRANCH   1   7
HETATM    7  C   UNL     1      -4.151   2.653 -32.329  1.00  0.00     0.176 C 
BRANCH   7   8
HETATM    8  N   UNL     1      -3.618   1.296 -32.325  1.00  0.00    -0.222 N 
HETATM    9  H   UNL     1      -2.782   1.096 -31.798  1.00  0.00     0.178 HD
BRANCH   8  10
HETATM   10  C   UNL     1      -4.251   0.253 -32.884  1.00  0.00     0.679 A 
HETATM   11  N   UNL     1      -3.635  -0.842 -33.306  1.00  0.00    -0.190 N 
HETATM   12  C   UNL     1      -4.550  -1.745 -33.811  1.00  0.00     0.076 A 
HETATM   13  H   UNL     1      -2.639  -1.007 -33.270  1.00  0.00     0.184 HD
HETATM   14  C   UNL     1      -5.793  -1.127 -33.690  1.00  0.00     0.076 A 
HETATM   15  C   UNL     1      -4.397  -3.014 -34.353  1.00  0.00     0.032 A 
HETATM   16  C   UNL     1      -6.975  -1.721 -34.110  1.00  0.00     0.032 A 
HETATM   17  N   UNL     1      -5.543   0.095 -33.108  1.00  0.00    -0.190 N 
HETATM   18  C   UNL     1      -6.841  -3.006 -34.660  1.00  0.00     0.002 A 
HETATM   19  C   UNL     1      -5.583  -3.638 -34.777  1.00  0.00     0.002 A 
HETATM   20  H   UNL     1      -6.266   0.784 -32.948  1.00  0.00     0.184 HD
ENDBRANCH   8  10
ENDBRANCH   7   8
ENDBRANCH   1   7
BRANCH   3  21
HETATM   21  N   UNL     1      -0.853   5.670 -30.184  1.00  0.00    -0.326 N 
HETATM   22  C   UNL     1       0.327   5.309 -29.557  1.00  0.00     0.242 C 
HETATM   23  O   UNL     1       1.056   4.383 -29.930  1.00  0.00    -0.271 OA
HETATM   24  H   UNL     1      -1.447   6.327 -29.663  1.00  0.00     0.169 HD
BRANCH  22  25
HETATM   25  C   UNL     1       0.662   6.040 -28.265  1.00  0.00     0.253 C 
BRANCH  25  26
HETATM   26  N   UNL     1      -0.464   6.455 -27.445  1.00  0.00    -0.273 N 
HETATM   27  N   UNL     1      -1.344   7.373 -27.909  1.00  0.00    -0.185 NA
HETATM   28  C   UNL     1      -2.282   7.421 -26.957  1.00  0.00     0.140 A 
HETATM   29  C   UNL     1      -2.009   6.545 -25.892  1.00  0.00     0.040 A 
HETATM   30  C   UNL     1      -0.827   5.931 -26.236  1.00  0.00     0.114 A 
ENDBRANCH  25  26
ENDBRANCH  22  25
ENDBRANCH   3  21
TORSDOF 6
ENDMDL
MODEL 3
REMARK VINA RESULT:      -8.3      2.527      3.556
REMARK  6 active torsions:
REMARK  status: ('A' for Active; 'I' for Inactive)
REMARK    1  A    between atoms: C_7  and  N_8 
REMARK    2  A    between atoms: N_8  and  C_9 
REMARK    3  A    between atoms: C_9  and  C_10 
REMARK    4  A    between atoms: C_12  and  N_13 
REMARK       I    between atoms: N_13  and  C_14 
REMARK    5  A    between atoms: C_14  and  C_15 
REMARK    6  A    between atoms: C_15  and  N_16 
ROOT
HETATM    1  C   UNL     1      -4.740   2.407 -32.697  1.00  0.00    -0.038 A 
HETATM    2  C   UNL     1      -3.718   3.367 -32.668  1.00  0.00     0.038 A 
HETATM    3  C   UNL     1      -3.866   4.603 -33.294  1.00  0.00     0.035 A 
HETATM    4  C   UNL     1      -5.002   4.834 -34.071  1.00  0.00     0.029 A 
HETATM    5  C   UNL     1      -6.007   3.866 -34.154  1.00  0.00     0.003 A 
HETATM    6  C   UNL     1      -5.888   2.666 -33.450  1.00  0.00     0.009 A 
ENDROOT
BRANCH   1   7
HETATM    7  C   UNL     1      -4.606   1.157 -31.877  1.00  0.00     0.176 C 
BRANCH   7   8
HETATM    8  N   UNL     1      -3.770   0.197 -32.588  1.00  0.00    -0.222 N 
HETATM    9  H   UNL     1      -2.771   0.334 -32.610  1.00  0.00     0.178 HD
BRANCH   8  10
HETATM   10  C   UNL     1      -4.242  -0.943 -33.116  1.00  0.00     0.679 A 
HETATM   11  N   UNL     1      -5.435  -1.054 -33.683  1.00  0.00    -0.190 N 
HETATM   12  C   UNL     1      -5.627  -2.339 -34.151  1.00  0.00     0.076 A 
HETATM   13  H   UNL     1      -6.115  -0.313 -33.768  1.00  0.00     0.184 HD
HETATM   14  C   UNL     1      -4.468  -3.037 -33.820  1.00  0.00     0.076 A 
HETATM   15  C   UNL     1      -6.693  -2.933 -34.815  1.00  0.00     0.032 A 
HETATM   16  C   UNL     1      -4.286  -4.381 -34.114  1.00  0.00     0.032 A 
HETATM   17  N   UNL     1      -3.653  -2.123 -33.191  1.00  0.00    -0.190 N 
HETATM   18  C   UNL     1      -5.352  -5.000 -34.787  1.00  0.00     0.002 A 
HETATM   19  C   UNL     1      -6.525  -4.293 -35.131  1.00  0.00     0.002 A 
HETATM   20  H   UNL     1      -2.757  -2.370 -32.792  1.00  0.00     0.184 HD
ENDBRANCH   8  10
ENDBRANCH   7   8
ENDBRANCH   1   7
BRANCH   3  21
HETATM   21  N   UNL     1      -2.933   5.645 -33.156  1.00  0.00    -0.326 N 
HETATM   22  C   UNL     1      -1.857   5.921 -33.981  1.00  0.00     0.242 C 
HETATM   23  O   UNL     1      -1.552   5.248 -34.973  1.00  0.00    -0.271 OA
HETATM   24  H   UNL     1      -2.958   6.170 -32.272  1.00  0.00     0.169 HD
BRANCH  22  25
HETATM   25  C   UNL     1      -0.945   7.061 -33.553  1.00  0.00     0.253 C 
BRANCH  25  26
HETATM   26  N   UNL     1      -0.745   7.228 -32.123  1.00  0.00    -0.273 N 
HETATM   27  N   UNL     1      -1.710   7.795 -31.361  1.00  0.00    -0.185 NA
HETATM   28  C   UNL     1      -1.237   7.682 -30.115  1.00  0.00     0.140 A 
HETATM   29  C   UNL     1       0.019   7.051 -30.075  1.00  0.00     0.040 A 
HETATM   30  C   UNL     1       0.311   6.766 -31.389  1.00  0.00     0.114 A 
ENDBRANCH  25  26
ENDBRANCH  22  25
ENDBRANCH   3  21
TORSDOF 6
ENDMDL
MODEL 4
REMARK VINA RESULT:      -8.2      2.783      4.305
REMARK  6 active torsions:
REMARK  status: ('A' for Active; 'I' for Inactive)
REMARK    1  A    between atoms: C_7  and  N_8 
REMARK    2  A    between atoms: N_8  and  C_9 
REMARK    3  A    between atoms: C_9  and  C_10 
REMARK    4  A    between atoms: C_12  and  N_13 
REMARK       I    between atoms: N_13  and  C_14 
REMARK    5  A    between atoms: C_14  and  C_15 
REMARK    6  A    between atoms: C_15  and  N_16 
ROOT
HETATM    1  C   UNL     1      -6.645   1.745 -32.433  1.00  0.00    -0.038 A 
HETATM    2  C   UNL     1      -5.501   2.457 -32.822  1.00  0.00     0.038 A 
HETATM    3  C   UNL     1      -4.655   3.041 -31.882  1.00  0.00     0.035 A 
HETATM    4  C   UNL     1      -5.028   3.025 -30.537  1.00  0.00     0.029 A 
HETATM    5  C   UNL     1      -6.193   2.364 -30.137  1.00  0.00     0.003 A 
HETATM    6  C   UNL     1      -6.986   1.705 -31.078  1.00  0.00     0.009 A 
ENDROOT
BRANCH   1   7
HETATM    7  C   UNL     1      -7.438   0.995 -33.463  1.00  0.00     0.176 C 
BRANCH   7   8
HETATM    8  N   UNL     1      -6.531   0.420 -34.450  1.00  0.00    -0.222 N 
HETATM    9  H   UNL     1      -6.193   0.998 -35.204  1.00  0.00     0.178 HD
BRANCH   8  10
HETATM   10  C   UNL     1      -6.011  -0.812 -34.344  1.00  0.00     0.679 A 
HETATM   11  N   UNL     1      -6.588  -1.900 -34.833  1.00  0.00    -0.190 N 
HETATM   12  C   UNL     1      -5.805  -3.011 -34.588  1.00  0.00     0.076 A 
HETATM   13  H   UNL     1      -7.474  -1.927 -35.317  1.00  0.00     0.184 HD
HETATM   14  C   UNL     1      -4.694  -2.542 -33.892  1.00  0.00     0.076 A 
HETATM   15  C   UNL     1      -5.975  -4.352 -34.907  1.00  0.00     0.032 A 
HETATM   16  C   UNL     1      -3.674  -3.374 -33.449  1.00  0.00     0.032 A 
HETATM   17  N   UNL     1      -4.876  -1.182 -33.778  1.00  0.00    -0.190 N 
HETATM   18  C   UNL     1      -3.827  -4.733 -33.763  1.00  0.00     0.002 A 
HETATM   19  C   UNL     1      -4.949  -5.210 -34.476  1.00  0.00     0.002 A 
HETATM   20  H   UNL     1      -4.241  -0.585 -33.266  1.00  0.00     0.184 HD
ENDBRANCH   8  10
ENDBRANCH   7   8
ENDBRANCH   1   7
BRANCH   3  21
HETATM   21  N   UNL     1      -3.423   3.626 -32.223  1.00  0.00    -0.326 N 
HETATM   22  C   UNL     1      -3.219   4.810 -32.909  1.00  0.00     0.242 C 
HETATM   23  O   UNL     1      -4.129   5.524 -33.348  1.00  0.00    -0.271 OA
HETATM   24  H   UNL     1      -2.586   3.047 -32.082  1.00  0.00     0.169 HD
BRANCH  22  25
HETATM   25  C   UNL     1      -1.776   5.173 -33.227  1.00  0.00     0.253 C 
BRANCH  25  26
HETATM   26  N   UNL     1      -0.938   5.544 -32.100  1.00  0.00    -0.273 N 
HETATM   27  N   UNL     1      -0.649   4.636 -31.137  1.00  0.00    -0.185 NA
HETATM   28  C   UNL     1       0.214   5.281 -30.344  1.00  0.00     0.140 A 
HETATM   29  C   UNL     1       0.477   6.588 -30.790  1.00  0.00     0.040 A 
HETATM   30  C   UNL     1      -0.280   6.729 -31.930  1.00  0.00     0.114 A 
ENDBRANCH  25  26
ENDBRANCH  22  25
ENDBRANCH   3  21
TORSDOF 6
ENDMDL
MODEL 5
REMARK VINA RESULT:      -8.1      5.804      9.931
REMARK  6 active torsions:
REMARK  status: ('A' for Active; 'I' for Inactive)
REMARK    1  A    between atoms: C_7  and  N_8 
REMARK    2  A    between atoms: N_8  and  C_9 
REMARK    3  A    between atoms: C_9  and  C_10 
REMARK    4  A    between atoms: C_12  and  N_13 
REMARK       I    between atoms: N_13  and  C_14 
REMARK    5  A    between atoms: C_14  and  C_15 
REMARK    6  A    between atoms: C_15  and  N_16 
ROOT
HETATM    1  C   UNL     1      -5.904   0.350 -33.192  1.00  0.00    -0.038 A 
HETATM    2  C   UNL     1      -6.973   1.215 -33.465  1.00  0.00     0.038 A 
HETATM    3  C   UNL     1      -7.935   0.900 -34.424  1.00  0.00     0.035 A 
HETATM    4  C   UNL     1      -7.752  -0.236 -35.214  1.00  0.00     0.029 A 
HETATM    5  C   UNL     1      -6.661  -1.081 -34.991  1.00  0.00     0.003 A 
HETATM    6  C   UNL     1      -5.754  -0.803 -33.968  1.00  0.00     0.009 A 
ENDROOT
BRANCH   1   7
HETATM    7  C   UNL     1      -4.985   0.648 -32.044  1.00  0.00     0.176 C 
BRANCH   7   8
HETATM    8  N   UNL     1      -5.088   2.059 -31.692  1.00  0.00    -0.222 N 
HETATM    9  H   UNL     1      -5.886   2.379 -31.165  1.00  0.00     0.178 HD
BRANCH   8  10
HETATM   10  C   UNL     1      -4.110   2.949 -31.920  1.00  0.00     0.679 A 
HETATM   11  N   UNL     1      -3.953   3.593 -33.068  1.00  0.00    -0.190 N 
HETATM   12  C   UNL     1      -2.878   4.457 -32.992  1.00  0.00     0.076 A 
HETATM   13  H   UNL     1      -4.529   3.477 -33.890  1.00  0.00     0.184 HD
HETATM   14  C   UNL     1      -2.358   4.298 -31.710  1.00  0.00     0.076 A 
HETATM   15  C   UNL     1      -2.331   5.337 -33.916  1.00  0.00     0.032 A 
HETATM   16  C   UNL     1      -1.247   4.994 -31.254  1.00  0.00     0.032 A 
HETATM   17  N   UNL     1      -3.162   3.362 -31.098  1.00  0.00    -0.190 N 
HETATM   18  C   UNL     1      -0.680   5.891 -32.173  1.00  0.00     0.002 A 
HETATM   19  C   UNL     1      -1.210   6.060 -33.471  1.00  0.00     0.002 A 
HETATM   20  H   UNL     1      -2.984   3.011 -30.166  1.00  0.00     0.184 HD
ENDBRANCH   8  10
ENDBRANCH   7   8
ENDBRANCH   1   7
BRANCH   3  21
HETATM   21  N   UNL     1      -9.101   1.662 -34.614  1.00  0.00    -0.326 N 
HETATM   22  C   UNL     1     -10.335   1.467 -34.020  1.00  0.00     0.242 C 
HETATM   23  O   UNL     1     -10.590   0.548 -33.232  1.00  0.00    -0.271 OA
HETATM   24  H   UNL     1      -9.083   2.344 -35.383  1.00  0.00     0.169 HD
BRANCH  22  25
HETATM   25  C   UNL     1     -11.460   2.387 -34.472  1.00  0.00     0.253 C 
BRANCH  25  26
HETATM   26  N   UNL     1     -12.812   1.963 -34.150  1.00  0.00    -0.273 N 
HETATM   27  N   UNL     1     -13.451   1.066 -34.937  1.00  0.00    -0.185 NA
HETATM   28  C   UNL     1     -14.597   0.835 -34.287  1.00  0.00     0.140 A 
HETATM   29  C   UNL     1     -14.696   1.576 -33.097  1.00  0.00     0.040 A 
HETATM   30  C   UNL     1     -13.525   2.295 -33.032  1.00  0.00     0.114 A 
ENDBRANCH  25  26
ENDBRANCH  22  25
ENDBRANCH   3  21
TORSDOF 6
ENDMDL
MODEL 6
REMARK VINA RESULT:      -7.8      4.648      9.109
REMARK  6 active torsions:
REMARK  status: ('A' for Active; 'I' for Inactive)
REMARK    1  A    between atoms: C_7  and  N_8 
REMARK    2  A    between atoms: N_8  and  C_9 
REMARK    3  A    between atoms: C_9  and  C_10 
REMARK    4  A    between atoms: C_12  and  N_13 
REMARK       I    between atoms: N_13  and  C_14 
REMARK    5  A    between atoms: C_14  and  C_15 
REMARK    6  A    between atoms: C_15  and  N_16 
ROOT
HETATM    1  C   UNL     1      -4.874   0.168 -33.143  1.00  0.00    -0.038 A 
HETATM    2  C   UNL     1      -6.006   0.904 -33.519  1.00  0.00     0.038 A 
HETATM    3  C   UNL     1      -7.055   0.315 -34.223  1.00  0.00     0.035 A 
HETATM    4  C   UNL     1      -6.912  -0.999 -34.672  1.00  0.00     0.029 A 
HETATM    5  C   UNL     1      -5.765  -1.732 -34.351  1.00  0.00     0.003 A 
HETATM    6  C   UNL     1      -4.761  -1.159 -33.569  1.00  0.00     0.009 A 
ENDROOT
BRANCH   1   7
HETATM    7  C   UNL     1      -3.845   0.794 -32.249  1.00  0.00     0.176 C 
BRANCH   7   8
HETATM    8  N   UNL     1      -4.229   2.170 -31.957  1.00  0.00    -0.222 N 
HETATM    9  H   UNL     1      -5.132   2.354 -31.547  1.00  0.00     0.178 HD
BRANCH   8  10
HETATM   10  C   UNL     1      -3.393   3.212 -32.084  1.00  0.00     0.679 A 
HETATM   11  N   UNL     1      -3.280   3.935 -33.190  1.00  0.00    -0.190 N 
HETATM   12  C   UNL     1      -2.360   4.949 -33.010  1.00  0.00     0.076 A 
HETATM   13  H   UNL     1      -3.788   3.777 -34.049  1.00  0.00     0.184 HD
HETATM   14  C   UNL     1      -1.889   4.801 -31.708  1.00  0.00     0.076 A 
HETATM   15  C   UNL     1      -1.912   5.954 -33.857  1.00  0.00     0.032 A 
HETATM   16  C   UNL     1      -0.926   5.635 -31.155  1.00  0.00     0.032 A 
HETATM   17  N   UNL     1      -2.566   3.721 -31.189  1.00  0.00    -0.190 N 
HETATM   18  C   UNL     1      -0.460   6.658 -31.996  1.00  0.00     0.002 A 
HETATM   19  C   UNL     1      -0.943   6.815 -33.313  1.00  0.00     0.002 A 
HETATM   20  H   UNL     1      -2.382   3.350 -30.266  1.00  0.00     0.184 HD
ENDBRANCH   8  10
ENDBRANCH   7   8
ENDBRANCH   1   7
BRANCH   3  21
HETATM   21  N   UNL     1      -8.269   0.976 -34.480  1.00  0.00    -0.326 N 
HETATM   22  C   UNL     1      -9.459   0.841 -33.787  1.00  0.00     0.242 C 
HETATM   23  O   UNL     1      -9.623   0.074 -32.830  1.00  0.00    -0.271 OA
HETATM   24  H   UNL     1      -8.327   1.503 -35.359  1.00  0.00     0.169 HD
BRANCH  22  25
HETATM   25  C   UNL     1     -10.654   1.611 -34.331  1.00  0.00     0.253 C 
BRANCH  25  26
HETATM   26  N   UNL     1     -10.467   3.037 -34.535  1.00  0.00    -0.273 N 
HETATM   27  N   UNL     1      -9.446   3.685 -33.925  1.00  0.00    -0.185 NA
HETATM   28  C   UNL     1      -9.517   4.925 -34.422  1.00  0.00     0.140 A 
HETATM   29  C   UNL     1     -10.572   5.074 -35.340  1.00  0.00     0.040 A 
HETATM   30  C   UNL     1     -11.167   3.835 -35.395  1.00  0.00     0.114 A 
ENDBRANCH  25  26
ENDBRANCH  22  25
ENDBRANCH   3  21
TORSDOF 6
ENDMDL
MODEL 7
REMARK VINA RESULT:      -7.6      4.367      9.347
REMARK  6 active torsions:
REMARK  status: ('A' for Active; 'I' for Inactive)
REMARK    1  A    between atoms: C_7  and  N_8 
REMARK    2  A    between atoms: N_8  and  C_9 
REMARK    3  A    between atoms: C_9  and  C_10 
REMARK    4  A    between atoms: C_12  and  N_13 
REMARK       I    between atoms: N_13  and  C_14 
REMARK    5  A    between atoms: C_14  and  C_15 
REMARK    6  A    between atoms: C_15  and  N_16 
ROOT
HETATM    1  C   UNL     1      -7.001   2.912 -33.033  1.00  0.00    -0.038 A 
HETATM    2  C   UNL     1      -6.422   1.887 -33.795  1.00  0.00     0.038 A 
HETATM    3  C   UNL     1      -6.107   0.653 -33.229  1.00  0.00     0.035 A 
HETATM    4  C   UNL     1      -6.251   0.485 -31.851  1.00  0.00     0.029 A 
HETATM    5  C   UNL     1      -6.777   1.517 -31.068  1.00  0.00     0.003 A 
HETATM    6  C   UNL     1      -7.174   2.717 -31.660  1.00  0.00     0.009 A 
ENDROOT
BRANCH   1   7
HETATM    7  C   UNL     1      -7.474   4.163 -33.712  1.00  0.00     0.176 C 
BRANCH   7   8
HETATM    8  N   UNL     1      -6.745   5.309 -33.182  1.00  0.00    -0.222 N 
HETATM    9  H   UNL     1      -7.203   5.926 -32.528  1.00  0.00     0.178 HD
BRANCH   8  10
HETATM   10  C   UNL     1      -5.442   5.526 -33.415  1.00  0.00     0.679 A 
HETATM   11  N   UNL     1      -4.692   6.351 -32.697  1.00  0.00    -0.190 N 
HETATM   12  C   UNL     1      -3.391   6.346 -33.160  1.00  0.00     0.076 A 
HETATM   13  H   UNL     1      -5.014   6.909 -31.919  1.00  0.00     0.184 HD
HETATM   14  C   UNL     1      -3.380   5.465 -34.239  1.00  0.00     0.076 A 
HETATM   15  C   UNL     1      -2.256   7.025 -32.739  1.00  0.00     0.032 A 
HETATM   16  C   UNL     1      -2.241   5.202 -34.987  1.00  0.00     0.032 A 
HETATM   17  N   UNL     1      -4.668   4.989 -34.342  1.00  0.00    -0.190 N 
HETATM   18  C   UNL     1      -1.081   5.878 -34.575  1.00  0.00     0.002 A 
HETATM   19  C   UNL     1      -1.088   6.766 -33.477  1.00  0.00     0.002 A 
HETATM   20  H   UNL     1      -4.965   4.365 -35.080  1.00  0.00     0.184 HD
ENDBRANCH   8  10
ENDBRANCH   7   8
ENDBRANCH   1   7
BRANCH   3  21
HETATM   21  N   UNL     1      -5.673  -0.447 -33.991  1.00  0.00    -0.326 N 
HETATM   22  C   UNL     1      -6.412  -1.559 -34.353  1.00  0.00     0.242 C 
HETATM   23  O   UNL     1      -7.589  -1.748 -34.022  1.00  0.00    -0.271 OA
HETATM   24  H   UNL     1      -4.664  -0.508 -34.175  1.00  0.00     0.169 HD
BRANCH  22  25
HETATM   25  C   UNL     1      -5.671  -2.652 -35.108  1.00  0.00     0.253 C 
BRANCH  25  26
HETATM   26  N   UNL     1      -4.762  -3.476 -34.329  1.00  0.00    -0.273 N 
HETATM   27  N   UNL     1      -3.938  -2.907 -33.417  1.00  0.00    -0.185 NA
HETATM   28  C   UNL     1      -3.347  -3.953 -32.830  1.00  0.00     0.140 A 
HETATM   29  C   UNL     1      -3.782  -5.180 -33.358  1.00  0.00     0.040 A 
HETATM   30  C   UNL     1      -4.700  -4.841 -34.325  1.00  0.00     0.114 A 
ENDBRANCH  25  26
ENDBRANCH  22  25
ENDBRANCH   3  21
TORSDOF 6
ENDMDL
MODEL 8
REMARK VINA RESULT:      -7.6      5.860      9.838
REMARK  6 active torsions:
REMARK  status: ('A' for Active; 'I' for Inactive)
REMARK    1  A    between atoms: C_7  and  N_8 
REMARK    2  A    between atoms: N_8  and  C_9 
REMARK    3  A    between atoms: C_9  and  C_10 
REMARK    4  A    between atoms: C_12  and  N_13 
REMARK       I    between atoms: N_13  and  C_14 
REMARK    5  A    between atoms: C_14  and  C_15 
REMARK    6  A    between atoms: C_15  and  N_16 
ROOT
HETATM    1  C   UNL     1      -6.708   0.582 -31.058  1.00  0.00    -0.038 A 
HETATM    2  C   UNL     1      -7.929   1.251 -31.221  1.00  0.00     0.038 A 
HETATM    3  C   UNL     1      -8.815   0.906 -32.241  1.00  0.00     0.035 A 
HETATM    4  C   UNL     1      -8.416  -0.034 -33.192  1.00  0.00     0.029 A 
HETATM    5  C   UNL     1      -7.178  -0.673 -33.074  1.00  0.00     0.003 A 
HETATM    6  C   UNL     1      -6.337  -0.384 -31.998  1.00  0.00     0.009 A 
ENDROOT
BRANCH   1   7
HETATM    7  C   UNL     1      -5.859   0.871 -29.855  1.00  0.00     0.176 C 
BRANCH   7   8
HETATM    8  N   UNL     1      -5.694   2.313 -29.713  1.00  0.00    -0.222 N 
HETATM    9  H   UNL     1      -5.978   2.760 -28.855  1.00  0.00     0.178 HD
BRANCH   8  10
HETATM   10  C   UNL     1      -5.059   3.075 -30.617  1.00  0.00     0.679 A 
HETATM   11  N   UNL     1      -3.769   2.962 -30.900  1.00  0.00    -0.190 N 
HETATM   12  C   UNL     1      -3.412   3.863 -31.883  1.00  0.00     0.076 A 
HETATM   13  H   UNL     1      -3.128   2.314 -30.466  1.00  0.00     0.184 HD
HETATM   14  C   UNL     1      -4.575   4.567 -32.189  1.00  0.00     0.076 A 
HETATM   15  C   UNL     1      -2.199   4.117 -32.510  1.00  0.00     0.032 A 
HETATM   16  C   UNL     1      -4.616   5.583 -33.133  1.00  0.00     0.032 A 
HETATM   17  N   UNL     1      -5.553   4.032 -31.382  1.00  0.00    -0.190 N 
HETATM   18  C   UNL     1      -3.399   5.854 -33.779  1.00  0.00     0.002 A 
HETATM   19  C   UNL     1      -2.221   5.137 -33.477  1.00  0.00     0.002 A 
HETATM   20  H   UNL     1      -6.498   4.391 -31.354  1.00  0.00     0.184 HD
ENDBRANCH   8  10
ENDBRANCH   7   8
ENDBRANCH   1   7
BRANCH   3  21
HETATM   21  N   UNL     1     -10.110   1.444 -32.341  1.00  0.00    -0.326 N 
HETATM   22  C   UNL     1     -10.494   2.578 -33.036  1.00  0.00     0.242 C 
HETATM   23  O   UNL     1      -9.715   3.305 -33.664  1.00  0.00    -0.271 OA
HETATM   24  H   UNL     1     -10.822   1.046 -31.717  1.00  0.00     0.169 HD
BRANCH  22  25
HETATM   25  C   UNL     1     -11.952   2.993 -32.907  1.00  0.00     0.253 C 
BRANCH  25  26
HETATM   26  N   UNL     1     -12.943   2.025 -33.347  1.00  0.00    -0.273 N 
HETATM   27  N   UNL     1     -12.562   0.927 -34.041  1.00  0.00    -0.185 NA
HETATM   28  C   UNL     1     -13.694   0.228 -34.174  1.00  0.00     0.140 A 
HETATM   29  C   UNL     1     -14.792   0.869 -33.574  1.00  0.00     0.040 A 
HETATM   30  C   UNL     1     -14.275   2.029 -33.044  1.00  0.00     0.114 A 
ENDBRANCH  25  26
ENDBRANCH  22  25
ENDBRANCH   3  21
TORSDOF 6
ENDMDL
MODEL 9
REMARK VINA RESULT:      -7.5      2.370      3.122
REMARK  6 active torsions:
REMARK  status: ('A' for Active; 'I' for Inactive)
REMARK    1  A    between atoms: C_7  and  N_8 
REMARK    2  A    between atoms: N_8  and  C_9 
REMARK    3  A    between atoms: C_9  and  C_10 
REMARK    4  A    between atoms: C_12  and  N_13 
REMARK       I    between atoms: N_13  and  C_14 
REMARK    5  A    between atoms: C_14  and  C_15 
REMARK    6  A    between atoms: C_15  and  N_16 
ROOT
HETATM    1  C   UNL     1      -3.992   5.122 -33.746  1.00  0.00    -0.038 A 
HETATM    2  C   UNL     1      -3.274   4.956 -32.553  1.00  0.00     0.038 A 
HETATM    3  C   UNL     1      -1.884   5.049 -32.524  1.00  0.00     0.035 A 
HETATM    4  C   UNL     1      -1.191   5.179 -33.729  1.00  0.00     0.029 A 
HETATM    5  C   UNL     1      -1.890   5.292 -34.934  1.00  0.00     0.003 A 
HETATM    6  C   UNL     1      -3.286   5.289 -34.940  1.00  0.00     0.009 A 
ENDROOT
BRANCH   1   7
HETATM    7  C   UNL     1      -5.491   5.177 -33.707  1.00  0.00     0.176 C 
BRANCH   7   8
HETATM    8  N   UNL     1      -5.995   4.103 -32.858  1.00  0.00    -0.222 N 
HETATM    9  H   UNL     1      -6.371   4.328 -31.950  1.00  0.00     0.178 HD
BRANCH   8  10
HETATM   10  C   UNL     1      -6.108   2.831 -33.268  1.00  0.00     0.679 A 
HETATM   11  N   UNL     1      -5.419   1.825 -32.747  1.00  0.00    -0.190 N 
HETATM   12  C   UNL     1      -5.767   0.636 -33.358  1.00  0.00     0.076 A 
HETATM   13  H   UNL     1      -4.734   1.903 -32.009  1.00  0.00     0.184 HD
HETATM   14  C   UNL     1      -6.719   0.971 -34.317  1.00  0.00     0.076 A 
HETATM   15  C   UNL     1      -5.336  -0.669 -33.158  1.00  0.00     0.032 A 
HETATM   16  C   UNL     1      -7.306   0.035 -35.158  1.00  0.00     0.032 A 
HETATM   17  N   UNL     1      -6.890   2.333 -34.209  1.00  0.00    -0.190 N 
HETATM   18  C   UNL     1      -6.884  -1.291 -34.970  1.00  0.00     0.002 A 
HETATM   19  C   UNL     1      -5.924  -1.634 -33.993  1.00  0.00     0.002 A 
HETATM   20  H   UNL     1      -7.492   2.861 -34.827  1.00  0.00     0.184 HD
ENDBRANCH   8  10
ENDBRANCH   7   8
ENDBRANCH   1   7
BRANCH   3  21
HETATM   21  N   UNL     1      -1.143   5.044 -31.329  1.00  0.00    -0.326 N 
HETATM   22  C   UNL     1      -0.571   6.133 -30.694  1.00  0.00     0.242 C 
HETATM   23  O   UNL     1      -0.619   7.291 -31.123  1.00  0.00    -0.271 OA
HETATM   24  H   UNL     1      -0.869   4.124 -30.962  1.00  0.00     0.169 HD
BRANCH  22  25
HETATM   25  C   UNL     1       0.258   5.837 -29.453  1.00  0.00     0.253 C 
BRANCH  25  26
HETATM   26  N   UNL     1       0.127   6.773 -28.348  1.00  0.00    -0.273 N 
HETATM   27  N   UNL     1       1.042   7.757 -28.177  1.00  0.00    -0.185 NA
HETATM   28  C   UNL     1       0.549   8.472 -27.159  1.00  0.00     0.140 A 
HETATM   29  C   UNL     1      -0.667   7.954 -26.680  1.00  0.00     0.040 A 
HETATM   30  C   UNL     1      -0.916   6.856 -27.471  1.00  0.00     0.114 A 
ENDBRANCH  25  26
ENDBRANCH  22  25
ENDBRANCH   3  21
TORSDOF 6
ENDMDL
MODEL 10
REMARK VINA RESULT:      -7.5      2.207      3.258
REMARK  6 active torsions:
REMARK  status: ('A' for Active; 'I' for Inactive)
REMARK    1  A    between atoms: C_7  and  N_8 
REMARK    2  A    between atoms: N_8  and  C_9 
REMARK    3  A    between atoms: C_9  and  C_10 
REMARK    4  A    between atoms: C_12  and  N_13 
REMARK       I    between atoms: N_13  and  C_14 
REMARK    5  A    between atoms: C_14  and  C_15 
REMARK    6  A    between atoms: C_15  and  N_16 
ROOT
HETATM    1  C   UNL     1      -5.658   3.048 -32.648  1.00  0.00    -0.038 A 
HETATM    2  C   UNL     1      -4.305   3.355 -32.441  1.00  0.00     0.038 A 
HETATM    3  C   UNL     1      -3.897   4.154 -31.375  1.00  0.00     0.035 A 
HETATM    4  C   UNL     1      -4.868   4.764 -30.579  1.00  0.00     0.029 A 
HETATM    5  C   UNL     1      -6.224   4.510 -30.804  1.00  0.00     0.003 A 
HETATM    6  C   UNL     1      -6.617   3.636 -31.819  1.00  0.00     0.009 A 
ENDROOT
BRANCH   1   7
HETATM    7  C   UNL     1      -6.039   2.055 -33.706  1.00  0.00     0.176 C 
BRANCH   7   8
HETATM    8  N   UNL     1      -6.595   0.863 -33.076  1.00  0.00    -0.222 N 
HETATM    9  H   UNL     1      -7.343   0.962 -32.407  1.00  0.00     0.178 HD
BRANCH   8  10
HETATM   10  C   UNL     1      -6.255  -0.385 -33.431  1.00  0.00     0.679 A 
HETATM   11  N   UNL     1      -7.100  -1.254 -33.968  1.00  0.00    -0.190 N 
HETATM   12  C   UNL     1      -6.456  -2.444 -34.246  1.00  0.00     0.076 A 
HETATM   13  H   UNL     1      -8.079  -1.084 -34.152  1.00  0.00     0.184 HD
HETATM   14  C   UNL     1      -5.139  -2.264 -33.828  1.00  0.00     0.076 A 
HETATM   15  C   UNL     1      -6.905  -3.631 -34.809  1.00  0.00     0.032 A 
HETATM   16  C   UNL     1      -4.174  -3.256 -33.929  1.00  0.00     0.032 A 
HETATM   17  N   UNL     1      -5.078  -0.977 -33.343  1.00  0.00    -0.190 N 
HETATM   18  C   UNL     1      -4.608  -4.464 -34.497  1.00  0.00     0.002 A 
HETATM   19  C   UNL     1      -5.940  -4.646 -34.929  1.00  0.00     0.002 A 
HETATM   20  H   UNL     1      -4.244  -0.590 -32.920  1.00  0.00     0.184 HD
ENDBRANCH   8  10
ENDBRANCH   7   8
ENDBRANCH   1   7
BRANCH   3  21
HETATM   21  N   UNL     1      -2.545   4.355 -31.045  1.00  0.00    -0.326 N 
HETATM   22  C   UNL     1      -1.690   5.312 -31.564  1.00  0.00     0.242 C 
HETATM   23  O   UNL     1      -2.009   6.130 -32.434  1.00  0.00    -0.271 OA
HETATM   24  H   UNL     1      -2.100   3.629 -30.471  1.00  0.00     0.169 HD
BRANCH  22  25
HETATM   25  C   UNL     1      -0.243   5.254 -31.098  1.00  0.00     0.253 C 
BRANCH  25  26
HETATM   26  N   UNL     1       0.096   6.057 -29.935  1.00  0.00    -0.273 N 
HETATM   27  N   UNL     1       0.408   5.459 -28.760  1.00  0.00    -0.185 NA
HETATM   28  C   UNL     1       0.765   6.479 -27.972  1.00  0.00     0.140 A 
HETATM   29  C   UNL     1       0.682   7.718 -28.629  1.00  0.00     0.040 A 
HETATM   30  C   UNL     1       0.249   7.414 -29.899  1.00  0.00     0.114 A 
ENDBRANCH  25  26
ENDBRANCH  22  25
ENDBRANCH   3  21
TORSDOF 6
ENDMDL
