MODEL 1
REMARK VINA RESULT:      -9.2      0.000      0.000
REMARK  2 active torsions:
REMARK  status: ('A' for Active; 'I' for Inactive)
REMARK    1  A    between atoms: O_2  and  C_3 
REMARK    2  A    between atoms: C_4  and  N_5 
REMARK       I    between atoms: N_5  and  C_6 
REMARK       I    between atoms: C_6  and  N_7 
ROOT
HETATM    1  N   UNL     1      -4.058   3.621 -32.599  1.00  0.00    -0.306 N 
HETATM    2  C   UNL     1      -3.538   2.509 -31.983  1.00  0.00     0.323 C 
HETATM    3  N   UNL     1      -4.152   1.323 -32.380  1.00  0.00    -0.328 N 
HETATM    4  C   UNL     1      -3.498   0.087 -31.938  1.00  0.00     0.185 C 
HETATM    5  C   UNL     1      -4.054  -1.050 -32.719  1.00  0.00     0.035 A 
HETATM    6  C   UNL     1      -5.179  -1.040 -33.517  1.00  0.00    -0.020 A 
HETATM    7  C   UNL     1      -5.968   0.206 -33.720  1.00  0.00     0.061 C 
HETATM    8  C   UNL     1      -5.610   1.240 -32.634  1.00  0.00     0.132 C 
HETATM    9  N   UNL     1      -3.524  -2.310 -32.750  1.00  0.00    -0.357 N 
HETATM   10  H   UNL     1      -2.691  -2.613 -32.266  1.00  0.00     0.166 HD
HETATM   11  C   UNL     1      -4.299  -3.123 -33.553  1.00  0.00     0.043 A 
HETATM   12  C   UNL     1      -5.352  -2.346 -34.045  1.00  0.00    -0.001 A 
HETATM   13  C   UNL     1      -4.147  -4.476 -33.879  1.00  0.00     0.030 A 
HETATM   14  C   UNL     1      -5.098  -5.050 -34.727  1.00  0.00     0.002 A 
HETATM   15  C   UNL     1      -6.158  -4.300 -35.230  1.00  0.00     0.001 A 
HETATM   16  C   UNL     1      -6.296  -2.947 -34.899  1.00  0.00     0.014 A 
HETATM   17  O   UNL     1      -2.586   2.523 -31.207  1.00  0.00    -0.247 OA
HETATM   18  H   UNL     1      -4.486   3.457 -33.500  1.00  0.00     0.171 HD
ENDROOT
BRANCH   1  19
HETATM   19  C   UNL     1      -3.747   4.970 -32.335  1.00  0.00     0.071 A 
HETATM   20  C   UNL     1      -2.785   5.581 -33.157  1.00  0.00     0.095 A 
HETATM   21  C   UNL     1      -2.461   6.930 -33.009  1.00  0.00     0.041 A 
HETATM   22  C   UNL     1      -3.082   7.675 -32.009  1.00  0.00     0.026 A 
HETATM   23  C   UNL     1      -4.024   7.068 -31.175  1.00  0.00     0.036 A 
HETATM   24  C   UNL     1      -4.362   5.722 -31.333  1.00  0.00     0.056 A 
HETATM   25 CL   UNL     1      -4.793   8.002 -29.950  1.00  0.00    -0.084 Cl
BRANCH  20  26
HETATM   26  O   UNL     1      -2.183   4.832 -34.141  1.00  0.00    -0.354 OA
HETATM   27  C   UNL     1      -1.140   5.589 -34.762  1.00  0.00     0.210 C 
ENDBRANCH  20  26
ENDBRANCH   1  19
TORSDOF 2
ENDMDL
MODEL 2
REMARK VINA RESULT:      -9.0      1.411      2.237
REMARK  2 active torsions:
REMARK  status: ('A' for Active; 'I' for Inactive)
REMARK    1  A    between atoms: O_2  and  C_3 
REMARK    2  A    between atoms: C_4  and  N_5 
REMARK       I    between atoms: N_5  and  C_6 
REMARK       I    between atoms: C_6  and  N_7 
ROOT
HETATM    1  N   UNL     1      -4.469   3.594 -32.562  1.00  0.00    -0.306 N 
HETATM    2  C   UNL     1      -3.825   2.490 -32.060  1.00  0.00     0.323 C 
HETATM    3  N   UNL     1      -4.428   1.288 -32.424  1.00  0.00    -0.328 N 
HETATM    4  C   UNL     1      -3.665   0.073 -32.117  1.00  0.00     0.185 C 
HETATM    5  C   UNL     1      -4.262  -1.064 -32.867  1.00  0.00     0.035 A 
HETATM    6  C   UNL     1      -5.478  -1.085 -33.518  1.00  0.00    -0.020 A 
HETATM    7  C   UNL     1      -6.344   0.125 -33.571  1.00  0.00     0.061 C 
HETATM    8  C   UNL     1      -5.901   1.138 -32.498  1.00  0.00     0.132 C 
HETATM    9  N   UNL     1      -3.682  -2.294 -33.015  1.00  0.00    -0.357 N 
HETATM   10  H   UNL     1      -2.780  -2.569 -32.651  1.00  0.00     0.166 HD
HETATM   11  C   UNL     1      -4.513  -3.117 -33.746  1.00  0.00     0.043 A 
HETATM   12  C   UNL     1      -5.655  -2.380 -34.072  1.00  0.00    -0.001 A 
HETATM   13  C   UNL     1      -4.340  -4.449 -34.143  1.00  0.00     0.030 A 
HETATM   14  C   UNL     1      -5.363  -5.043 -34.887  1.00  0.00     0.002 A 
HETATM   15  C   UNL     1      -6.512  -4.332 -35.224  1.00  0.00     0.001 A 
HETATM   16  C   UNL     1      -6.670  -3.000 -34.825  1.00  0.00     0.014 A 
HETATM   17  O   UNL     1      -2.784   2.527 -31.409  1.00  0.00    -0.247 OA
HETATM   18  H   UNL     1      -5.000   3.438 -33.408  1.00  0.00     0.171 HD
ENDROOT
BRANCH   1  19
HETATM   19  C   UNL     1      -4.191   4.947 -32.285  1.00  0.00     0.071 A 
HETATM   20  C   UNL     1      -5.023   5.599 -31.359  1.00  0.00     0.095 A 
HETATM   21  C   UNL     1      -4.783   6.919 -30.977  1.00  0.00     0.041 A 
HETATM   22  C   UNL     1      -3.717   7.611 -31.547  1.00  0.00     0.026 A 
HETATM   23  C   UNL     1      -2.898   6.975 -32.483  1.00  0.00     0.036 A 
HETATM   24  C   UNL     1      -3.127   5.648 -32.854  1.00  0.00     0.056 A 
HETATM   25 CL   UNL     1      -1.577   7.838 -33.173  1.00  0.00    -0.084 Cl
BRANCH  20  26
HETATM   26  O   UNL     1      -6.070   4.901 -30.804  1.00  0.00    -0.354 OA
HETATM   27  C   UNL     1      -5.791   4.612 -29.431  1.00  0.00     0.210 C 
ENDBRANCH  20  26
ENDBRANCH   1  19
TORSDOF 2
ENDMDL
MODEL 3
REMARK VINA RESULT:      -8.3      1.858      2.558
REMARK  2 active torsions:
REMARK  status: ('A' for Active; 'I' for Inactive)
REMARK    1  A    between atoms: O_2  and  C_3 
REMARK    2  A    between atoms: C_4  and  N_5 
REMARK       I    between atoms: N_5  and  C_6 
REMARK       I    between atoms: C_6  and  N_7 
ROOT
HETATM    1  N   UNL     1      -4.790   3.120 -31.187  1.00  0.00    -0.306 N 
HETATM    2  C   UNL     1      -5.497   2.727 -32.297  1.00  0.00     0.323 C 
HETATM    3  N   UNL     1      -5.133   1.465 -32.764  1.00  0.00    -0.328 N 
HETATM    4  C   UNL     1      -6.000   0.894 -33.799  1.00  0.00     0.185 C 
HETATM    5  C   UNL     1      -5.693  -0.556 -33.927  1.00  0.00     0.035 A 
HETATM    6  C   UNL     1      -4.609  -1.227 -33.400  1.00  0.00    -0.020 A 
HETATM    7  C   UNL     1      -3.602  -0.523 -32.560  1.00  0.00     0.061 C 
HETATM    8  C   UNL     1      -3.725   1.000 -32.755  1.00  0.00     0.132 C 
HETATM    9  N   UNL     1      -6.456  -1.459 -34.615  1.00  0.00    -0.357 N 
HETATM   10  H   UNL     1      -7.319  -1.255 -35.100  1.00  0.00     0.166 HD
HETATM   11  C   UNL     1      -5.873  -2.708 -34.550  1.00  0.00     0.043 A 
HETATM   12  C   UNL     1      -4.704  -2.588 -33.793  1.00  0.00    -0.001 A 
HETATM   13  C   UNL     1      -6.291  -3.927 -35.099  1.00  0.00     0.030 A 
HETATM   14  C   UNL     1      -5.491  -5.049 -34.871  1.00  0.00     0.002 A 
HETATM   15  C   UNL     1      -4.320  -4.958 -34.122  1.00  0.00     0.001 A 
HETATM   16  C   UNL     1      -3.917  -3.734 -33.576  1.00  0.00     0.014 A 
HETATM   17  O   UNL     1      -6.407   3.374 -32.808  1.00  0.00    -0.247 OA
HETATM   18  H   UNL     1      -4.426   2.368 -30.617  1.00  0.00     0.171 HD
ENDROOT
BRANCH   1  19
HETATM   19  C   UNL     1      -4.830   4.374 -30.546  1.00  0.00     0.071 A 
HETATM   20  C   UNL     1      -3.814   5.291 -30.865  1.00  0.00     0.095 A 
HETATM   21  C   UNL     1      -3.809   6.579 -30.329  1.00  0.00     0.041 A 
HETATM   22  C   UNL     1      -4.814   6.949 -29.437  1.00  0.00     0.026 A 
HETATM   23  C   UNL     1      -5.815   6.035 -29.100  1.00  0.00     0.036 A 
HETATM   24  C   UNL     1      -5.831   4.752 -29.650  1.00  0.00     0.056 A 
HETATM   25 CL   UNL     1      -7.057   6.510 -28.005  1.00  0.00    -0.084 Cl
BRANCH  20  26
HETATM   26  O   UNL     1      -2.832   4.911 -31.749  1.00  0.00    -0.354 OA
HETATM   27  C   UNL     1      -1.545   5.245 -31.223  1.00  0.00     0.210 C 
ENDBRANCH  20  26
ENDBRANCH   1  19
TORSDOF 2
ENDMDL
MODEL 4
REMARK VINA RESULT:      -8.0      3.498      8.758
REMARK  2 active torsions:
REMARK  status: ('A' for Active; 'I' for Inactive)
REMARK    1  A    between atoms: O_2  and  C_3 
REMARK    2  A    between atoms: C_4  and  N_5 
REMARK       I    between atoms: N_5  and  C_6 
REMARK       I    between atoms: C_6  and  N_7 
ROOT
HETATM    1  N   UNL     1      -4.943  -0.043 -33.078  1.00  0.00    -0.306 N 
HETATM    2  C   UNL     1      -5.203   0.418 -31.811  1.00  0.00     0.323 C 
HETATM    3  N   UNL     1      -4.718   1.704 -31.582  1.00  0.00    -0.328 N 
HETATM    4  C   UNL     1      -5.158   2.340 -30.337  1.00  0.00     0.185 C 
HETATM    5  C   UNL     1      -4.853   3.794 -30.412  1.00  0.00     0.035 A 
HETATM    6  C   UNL     1      -4.048   4.428 -31.336  1.00  0.00    -0.020 A 
HETATM    7  C   UNL     1      -3.404   3.672 -32.443  1.00  0.00     0.061 C 
HETATM    8  C   UNL     1      -3.419   2.163 -32.131  1.00  0.00     0.132 C 
HETATM    9  N   UNL     1      -5.329   4.739 -29.545  1.00  0.00    -0.357 N 
HETATM   10  H   UNL     1      -5.952   4.568 -28.768  1.00  0.00     0.166 HD
HETATM   11  C   UNL     1      -4.834   5.980 -29.890  1.00  0.00     0.043 A 
HETATM   12  C   UNL     1      -4.019   5.810 -31.013  1.00  0.00    -0.001 A 
HETATM   13  C   UNL     1      -5.045   7.231 -29.296  1.00  0.00     0.030 A 
HETATM   14  C   UNL     1      -4.404   8.335 -29.864  1.00  0.00     0.002 A 
HETATM   15  C   UNL     1      -3.586   8.195 -30.982  1.00  0.00     0.001 A 
HETATM   16  C   UNL     1      -3.387   6.939 -31.568  1.00  0.00     0.014 A 
HETATM   17  O   UNL     1      -5.852  -0.194 -30.967  1.00  0.00    -0.247 OA
HETATM   18  H   UNL     1      -4.826   0.673 -33.783  1.00  0.00     0.171 HD
ENDROOT
BRANCH   1  19
HETATM   19  C   UNL     1      -5.190  -1.333 -33.587  1.00  0.00     0.071 A 
HETATM   20  C   UNL     1      -6.456  -1.573 -34.147  1.00  0.00     0.095 A 
HETATM   21  C   UNL     1      -6.767  -2.800 -34.732  1.00  0.00     0.041 A 
HETATM   22  C   UNL     1      -5.812  -3.815 -34.734  1.00  0.00     0.026 A 
HETATM   23  C   UNL     1      -4.558  -3.590 -34.161  1.00  0.00     0.036 A 
HETATM   24  C   UNL     1      -4.240  -2.356 -33.590  1.00  0.00     0.056 A 
HETATM   25 CL   UNL     1      -3.384  -4.850 -34.178  1.00  0.00    -0.084 Cl
BRANCH  20  26
HETATM   26  O   UNL     1      -7.386  -0.559 -34.140  1.00  0.00    -0.354 OA
HETATM   27  C   UNL     1      -7.461   0.044 -35.435  1.00  0.00     0.210 C 
ENDBRANCH  20  26
ENDBRANCH   1  19
TORSDOF 2
ENDMDL
MODEL 5
REMARK VINA RESULT:      -7.9      2.948      4.479
REMARK  2 active torsions:
REMARK  status: ('A' for Active; 'I' for Inactive)
REMARK    1  A    between atoms: O_2  and  C_3 
REMARK    2  A    between atoms: C_4  and  N_5 
REMARK       I    between atoms: N_5  and  C_6 
REMARK       I    between atoms: C_6  and  N_7 
ROOT
HETATM    1  N   UNL     1      -2.467   5.676 -30.269  1.00  0.00    -0.306 N 
HETATM    2  C   UNL     1      -3.132   5.805 -31.464  1.00  0.00     0.323 C 
HETATM    3  N   UNL     1      -3.599   4.592 -31.968  1.00  0.00    -0.328 N 
HETATM    4  C   UNL     1      -4.509   4.687 -33.114  1.00  0.00     0.185 C 
HETATM    5  C   UNL     1      -5.178   3.371 -33.299  1.00  0.00     0.035 A 
HETATM    6  C   UNL     1      -4.832   2.172 -32.710  1.00  0.00    -0.020 A 
HETATM    7  C   UNL     1      -3.709   2.088 -31.737  1.00  0.00     0.061 C 
HETATM    8  C   UNL     1      -2.817   3.339 -31.851  1.00  0.00     0.132 C 
HETATM    9  N   UNL     1      -6.256   3.149 -34.110  1.00  0.00    -0.357 N 
HETATM   10  H   UNL     1      -6.734   3.847 -34.663  1.00  0.00     0.166 HD
HETATM   11  C   UNL     1      -6.608   1.815 -34.064  1.00  0.00     0.043 A 
HETATM   12  C   UNL     1      -5.722   1.177 -33.191  1.00  0.00    -0.001 A 
HETATM   13  C   UNL     1      -7.639   1.132 -34.722  1.00  0.00     0.030 A 
HETATM   14  C   UNL     1      -7.762  -0.239 -34.486  1.00  0.00     0.002 A 
HETATM   15  C   UNL     1      -6.892  -0.902 -33.623  1.00  0.00     0.001 A 
HETATM   16  C   UNL     1      -5.870  -0.205 -32.968  1.00  0.00     0.014 A 
HETATM   17  O   UNL     1      -3.362   6.875 -32.021  1.00  0.00    -0.247 OA
HETATM   18  H   UNL     1      -2.729   4.872 -29.713  1.00  0.00     0.171 HD
ENDROOT
BRANCH   1  19
HETATM   19  C   UNL     1      -1.775   6.678 -29.562  1.00  0.00     0.071 A 
HETATM   20  C   UNL     1      -0.372   6.667 -29.637  1.00  0.00     0.095 A 
HETATM   21  C   UNL     1       0.393   7.658 -29.021  1.00  0.00     0.041 A 
HETATM   22  C   UNL     1      -0.248   8.660 -28.294  1.00  0.00     0.026 A 
HETATM   23  C   UNL     1      -1.641   8.665 -28.199  1.00  0.00     0.036 A 
HETATM   24  C   UNL     1      -2.409   7.683 -28.830  1.00  0.00     0.056 A 
HETATM   25 CL   UNL     1      -2.421   9.915 -27.306  1.00  0.00    -0.084 Cl
BRANCH  20  26
HETATM   26  O   UNL     1       0.244   5.673 -30.361  1.00  0.00    -0.354 OA
HETATM   27  C   UNL     1       0.931   4.780 -29.479  1.00  0.00     0.210 C 
ENDBRANCH  20  26
ENDBRANCH   1  19
TORSDOF 2
ENDMDL
MODEL 6
REMARK VINA RESULT:      -7.9      2.763      4.010
REMARK  2 active torsions:
REMARK  status: ('A' for Active; 'I' for Inactive)
REMARK    1  A    between atoms: O_2  and  C_3 
REMARK    2  A    between atoms: C_4  and  N_5 
REMARK       I    between atoms: N_5  and  C_6 
REMARK       I    between atoms: C_6  and  N_7 
ROOT
HETATM    1  N   UNL     1      -6.281   3.356 -31.445  1.00  0.00    -0.306 N 
HETATM    2  C   UNL     1      -6.612   2.781 -32.647  1.00  0.00     0.323 C 
HETATM    3  N   UNL     1      -5.920   1.598 -32.901  1.00  0.00    -0.328 N 
HETATM    4  C   UNL     1      -6.390   0.818 -34.050  1.00  0.00     0.185 C 
HETATM    5  C   UNL     1      -5.801  -0.546 -33.972  1.00  0.00     0.035 A 
HETATM    6  C   UNL     1      -4.774  -0.962 -33.151  1.00  0.00    -0.020 A 
HETATM    7  C   UNL     1      -4.147  -0.034 -32.171  1.00  0.00     0.061 C 
HETATM    8  C   UNL     1      -4.496   1.424 -32.526  1.00  0.00     0.132 C 
HETATM    9  N   UNL     1      -6.195  -1.612 -34.732  1.00  0.00    -0.357 N 
HETATM   10  H   UNL     1      -6.937  -1.607 -35.418  1.00  0.00     0.166 HD
HETATM   11  C   UNL     1      -5.427  -2.716 -34.421  1.00  0.00     0.043 A 
HETATM   12  C   UNL     1      -4.520  -2.330 -33.429  1.00  0.00    -0.001 A 
HETATM   13  C   UNL     1      -5.469  -4.017 -34.938  1.00  0.00     0.030 A 
HETATM   14  C   UNL     1      -4.556  -4.946 -34.431  1.00  0.00     0.002 A 
HETATM   15  C   UNL     1      -3.640  -4.589 -33.444  1.00  0.00     0.001 A 
HETATM   16  C   UNL     1      -3.612  -3.286 -32.934  1.00  0.00     0.014 A 
HETATM   17  O   UNL     1      -7.473   3.209 -33.410  1.00  0.00    -0.247 OA
HETATM   18  H   UNL     1      -5.934   2.718 -30.741  1.00  0.00     0.171 HD
ENDROOT
BRANCH   1  19
HETATM   19  C   UNL     1      -6.703   4.605 -30.948  1.00  0.00     0.071 A 
HETATM   20  C   UNL     1      -7.834   4.616 -30.114  1.00  0.00     0.095 A 
HETATM   21  C   UNL     1      -8.286   5.797 -29.525  1.00  0.00     0.041 A 
HETATM   22  C   UNL     1      -7.619   6.991 -29.795  1.00  0.00     0.026 A 
HETATM   23  C   UNL     1      -6.507   6.990 -30.640  1.00  0.00     0.036 A 
HETATM   24  C   UNL     1      -6.043   5.805 -31.215  1.00  0.00     0.056 A 
HETATM   25 CL   UNL     1      -5.687   8.471 -30.957  1.00  0.00    -0.084 Cl
BRANCH  20  26
HETATM   26  O   UNL     1      -8.478   3.429 -29.856  1.00  0.00    -0.354 OA
HETATM   27  C   UNL     1      -9.762   3.422 -30.485  1.00  0.00     0.210 C 
ENDBRANCH  20  26
ENDBRANCH   1  19
TORSDOF 2
ENDMDL
MODEL 7
REMARK VINA RESULT:      -7.9      4.905      6.462
REMARK  2 active torsions:
REMARK  status: ('A' for Active; 'I' for Inactive)
REMARK    1  A    between atoms: O_2  and  C_3 
REMARK    2  A    between atoms: C_4  and  N_5 
REMARK       I    between atoms: N_5  and  C_6 
REMARK       I    between atoms: C_6  and  N_7 
ROOT
HETATM    1  N   UNL     1      -5.923   3.346 -33.143  1.00  0.00    -0.306 N 
HETATM    2  C   UNL     1      -6.985   4.000 -33.719  1.00  0.00     0.323 C 
HETATM    3  N   UNL     1      -8.101   3.186 -33.899  1.00  0.00    -0.328 N 
HETATM    4  C   UNL     1      -9.335   3.873 -34.294  1.00  0.00     0.185 C 
HETATM    5  C   UNL     1     -10.479   2.942 -34.101  1.00  0.00     0.035 A 
HETATM    6  C   UNL     1     -10.416   1.583 -33.871  1.00  0.00    -0.020 A 
HETATM    7  C   UNL     1      -9.109   0.884 -33.741  1.00  0.00     0.061 C 
HETATM    8  C   UNL     1      -7.980   1.766 -34.308  1.00  0.00     0.132 C 
HETATM    9  N   UNL     1     -11.797   3.305 -34.138  1.00  0.00    -0.357 N 
HETATM   10  H   UNL     1     -12.148   4.241 -34.281  1.00  0.00     0.166 HD
HETATM   11  C   UNL     1     -12.592   2.194 -33.944  1.00  0.00     0.043 A 
HETATM   12  C   UNL     1     -11.745   1.094 -33.778  1.00  0.00    -0.001 A 
HETATM   13  C   UNL     1     -13.988   2.082 -33.902  1.00  0.00     0.030 A 
HETATM   14  C   UNL     1     -14.530   0.812 -33.689  1.00  0.00     0.002 A 
HETATM   15  C   UNL     1     -13.710  -0.302 -33.522  1.00  0.00     0.001 A 
HETATM   16  C   UNL     1     -12.317  -0.174 -33.563  1.00  0.00     0.014 A 
HETATM   17  O   UNL     1      -6.998   5.196 -33.996  1.00  0.00    -0.247 OA
HETATM   18  H   UNL     1      -6.165   2.549 -32.570  1.00  0.00     0.171 HD
ENDROOT
BRANCH   1  19
HETATM   19  C   UNL     1      -4.621   3.844 -32.937  1.00  0.00     0.071 A 
HETATM   20  C   UNL     1      -4.142   3.864 -31.616  1.00  0.00     0.095 A 
HETATM   21  C   UNL     1      -2.843   4.280 -31.325  1.00  0.00     0.041 A 
HETATM   22  C   UNL     1      -2.017   4.710 -32.362  1.00  0.00     0.026 A 
HETATM   23  C   UNL     1      -2.494   4.712 -33.675  1.00  0.00     0.036 A 
HETATM   24  C   UNL     1      -3.789   4.279 -33.969  1.00  0.00     0.056 A 
HETATM   25 CL   UNL     1      -1.460   5.236 -34.948  1.00  0.00    -0.084 Cl
BRANCH  20  26
HETATM   26  O   UNL     1      -4.969   3.434 -30.605  1.00  0.00    -0.354 OA
HETATM   27  C   UNL     1      -5.459   4.554 -29.864  1.00  0.00     0.210 C 
ENDBRANCH  20  26
ENDBRANCH   1  19
TORSDOF 2
ENDMDL
MODEL 8
REMARK VINA RESULT:      -7.8      5.304      8.307
REMARK  2 active torsions:
REMARK  status: ('A' for Active; 'I' for Inactive)
REMARK    1  A    between atoms: O_2  and  C_3 
REMARK    2  A    between atoms: C_4  and  N_5 
REMARK       I    between atoms: N_5  and  C_6 
REMARK       I    between atoms: C_6  and  N_7 
ROOT
HETATM    1  N   UNL     1      -9.501   2.856 -33.122  1.00  0.00    -0.306 N 
HETATM    2  C   UNL     1      -8.591   2.516 -32.151  1.00  0.00     0.323 C 
HETATM    3  N   UNL     1      -7.275   2.813 -32.502  1.00  0.00    -0.328 N 
HETATM    4  C   UNL     1      -6.286   2.688 -31.427  1.00  0.00     0.185 C 
HETATM    5  C   UNL     1      -5.031   3.364 -31.856  1.00  0.00     0.035 A 
HETATM    6  C   UNL     1      -4.711   3.792 -33.128  1.00  0.00    -0.020 A 
HETATM    7  C   UNL     1      -5.673   3.648 -34.254  1.00  0.00     0.061 C 
HETATM    8  C   UNL     1      -6.771   2.633 -33.884  1.00  0.00     0.132 C 
HETATM    9  N   UNL     1      -3.980   3.656 -31.033  1.00  0.00    -0.357 N 
HETATM   10  H   UNL     1      -3.934   3.466 -30.041  1.00  0.00     0.166 HD
HETATM   11  C   UNL     1      -2.973   4.260 -31.758  1.00  0.00     0.043 A 
HETATM   12  C   UNL     1      -3.408   4.354 -33.083  1.00  0.00    -0.001 A 
HETATM   13  C   UNL     1      -1.721   4.730 -31.342  1.00  0.00     0.030 A 
HETATM   14  C   UNL     1      -0.891   5.305 -32.308  1.00  0.00     0.002 A 
HETATM   15  C   UNL     1      -1.297   5.409 -33.636  1.00  0.00     0.001 A 
HETATM   16  C   UNL     1      -2.554   4.939 -34.037  1.00  0.00     0.014 A 
HETATM   17  O   UNL     1      -8.885   2.056 -31.051  1.00  0.00    -0.247 OA
HETATM   18  H   UNL     1      -9.215   3.602 -33.742  1.00  0.00     0.171 HD
ENDROOT
BRANCH   1  19
HETATM   19  C   UNL     1     -10.883   2.583 -33.133  1.00  0.00     0.071 A 
HETATM   20  C   UNL     1     -11.750   3.636 -32.796  1.00  0.00     0.095 A 
HETATM   21  C   UNL     1     -13.135   3.475 -32.843  1.00  0.00     0.041 A 
HETATM   22  C   UNL     1     -13.665   2.236 -33.201  1.00  0.00     0.026 A 
HETATM   23  C   UNL     1     -12.809   1.180 -33.516  1.00  0.00     0.036 A 
HETATM   24  C   UNL     1     -11.422   1.345 -33.487  1.00  0.00     0.056 A 
HETATM   25 CL   UNL     1     -13.477  -0.342 -33.967  1.00  0.00    -0.084 Cl
BRANCH  20  26
HETATM   26  O   UNL     1     -11.210   4.852 -32.448  1.00  0.00    -0.354 OA
HETATM   27  C   UNL     1     -11.467   5.124 -31.068  1.00  0.00     0.210 C 
ENDBRANCH  20  26
ENDBRANCH   1  19
TORSDOF 2
ENDMDL
MODEL 9
REMARK VINA RESULT:      -7.8      3.077      4.867
REMARK  2 active torsions:
REMARK  status: ('A' for Active; 'I' for Inactive)
REMARK    1  A    between atoms: O_2  and  C_3 
REMARK    2  A    between atoms: C_4  and  N_5 
REMARK       I    between atoms: N_5  and  C_6 
REMARK       I    between atoms: C_6  and  N_7 
ROOT
HETATM    1  N   UNL     1      -2.841   5.838 -30.105  1.00  0.00    -0.306 N 
HETATM    2  C   UNL     1      -3.375   5.888 -31.370  1.00  0.00     0.323 C 
HETATM    3  N   UNL     1      -3.760   4.639 -31.855  1.00  0.00    -0.328 N 
HETATM    4  C   UNL     1      -4.542   4.651 -33.095  1.00  0.00     0.185 C 
HETATM    5  C   UNL     1      -5.159   3.309 -33.279  1.00  0.00     0.035 A 
HETATM    6  C   UNL     1      -4.852   2.152 -32.594  1.00  0.00    -0.020 A 
HETATM    7  C   UNL     1      -3.840   2.148 -31.503  1.00  0.00     0.061 C 
HETATM    8  C   UNL     1      -2.967   3.415 -31.588  1.00  0.00     0.132 C 
HETATM    9  N   UNL     1      -6.138   3.017 -34.188  1.00  0.00    -0.357 N 
HETATM   10  H   UNL     1      -6.568   3.673 -34.825  1.00  0.00     0.166 HD
HETATM   11  C   UNL     1      -6.464   1.679 -34.108  1.00  0.00     0.043 A 
HETATM   12  C   UNL     1      -5.664   1.109 -33.113  1.00  0.00    -0.001 A 
HETATM   13  C   UNL     1      -7.402   0.935 -34.836  1.00  0.00     0.030 A 
HETATM   14  C   UNL     1      -7.521  -0.426 -34.541  1.00  0.00     0.002 A 
HETATM   15  C   UNL     1      -6.735  -1.019 -33.556  1.00  0.00     0.001 A 
HETATM   16  C   UNL     1      -5.804  -0.263 -32.834  1.00  0.00     0.014 A 
HETATM   17  O   UNL     1      -3.567   6.922 -32.004  1.00  0.00    -0.247 OA
HETATM   18  H   UNL     1      -3.144   5.057 -29.538  1.00  0.00     0.171 HD
ENDROOT
BRANCH   1  19
HETATM   19  C   UNL     1      -2.251   6.894 -29.383  1.00  0.00     0.071 A 
HETATM   20  C   UNL     1      -3.115   7.778 -28.714  1.00  0.00     0.095 A 
HETATM   21  C   UNL     1      -2.618   8.813 -27.923  1.00  0.00     0.041 A 
HETATM   22  C   UNL     1      -1.239   8.990 -27.820  1.00  0.00     0.026 A 
HETATM   23  C   UNL     1      -0.376   8.128 -28.498  1.00  0.00     0.036 A 
HETATM   24  C   UNL     1      -0.872   7.079 -29.276  1.00  0.00     0.056 A 
HETATM   25 CL   UNL     1       1.326   8.351 -28.353  1.00  0.00    -0.084 Cl
BRANCH  20  26
HETATM   26  O   UNL     1      -4.472   7.587 -28.825  1.00  0.00    -0.354 OA
HETATM   27  C   UNL     1      -5.028   7.277 -27.544  1.00  0.00     0.210 C 
ENDBRANCH  20  26
ENDBRANCH   1  19
TORSDOF 2
ENDMDL
MODEL 10
REMARK VINA RESULT:      -7.7      3.962      9.255
REMARK  2 active torsions:
REMARK  status: ('A' for Active; 'I' for Inactive)
REMARK    1  A    between atoms: O_2  and  C_3 
REMARK    2  A    between atoms: C_4  and  N_5 
REMARK       I    between atoms: N_5  and  C_6 
REMARK       I    between atoms: C_6  and  N_7 
ROOT
HETATM    1  N   UNL     1      -4.321   3.729 -31.852  1.00  0.00    -0.306 N 
HETATM    2  C   UNL     1      -3.015   4.086 -32.083  1.00  0.00     0.323 C 
HETATM    3  N   UNL     1      -2.607   5.193 -31.341  1.00  0.00    -0.328 N 
HETATM    4  C   UNL     1      -1.170   5.483 -31.367  1.00  0.00     0.185 C 
HETATM    5  C   UNL     1      -0.860   6.445 -30.276  1.00  0.00     0.035 A 
HETATM    6  C   UNL     1      -1.762   7.179 -29.533  1.00  0.00    -0.020 A 
HETATM    7  C   UNL     1      -3.229   7.032 -29.739  1.00  0.00     0.061 C 
HETATM    8  C   UNL     1      -3.506   6.344 -31.089  1.00  0.00     0.132 C 
HETATM    9  N   UNL     1       0.398   6.761 -29.845  1.00  0.00    -0.357 N 
HETATM   10  H   UNL     1       1.260   6.371 -30.201  1.00  0.00     0.166 HD
HETATM   11  C   UNL     1       0.325   7.701 -28.838  1.00  0.00     0.043 A 
HETATM   12  C   UNL     1      -1.027   7.984 -28.625  1.00  0.00    -0.001 A 
HETATM   13  C   UNL     1       1.347   8.314 -28.102  1.00  0.00     0.030 A 
HETATM   14  C   UNL     1       0.976   9.245 -27.128  1.00  0.00     0.002 A 
HETATM   15  C   UNL     1      -0.363   9.548 -26.896  1.00  0.00     0.001 A 
HETATM   16  C   UNL     1      -1.374   8.924 -27.636  1.00  0.00     0.014 A 
HETATM   17  O   UNL     1      -2.244   3.470 -32.814  1.00  0.00    -0.247 OA
HETATM   18  H   UNL     1      -4.690   3.997 -30.949  1.00  0.00     0.171 HD
ENDROOT
BRANCH   1  19
HETATM   19  C   UNL     1      -5.070   2.741 -32.521  1.00  0.00     0.071 A 
HETATM   20  C   UNL     1      -6.023   3.179 -33.456  1.00  0.00     0.095 A 
HETATM   21  C   UNL     1      -6.765   2.271 -34.212  1.00  0.00     0.041 A 
HETATM   22  C   UNL     1      -6.577   0.905 -34.012  1.00  0.00     0.026 A 
HETATM   23  C   UNL     1      -5.646   0.463 -33.069  1.00  0.00     0.036 A 
HETATM   24  C   UNL     1      -4.890   1.371 -32.325  1.00  0.00     0.056 A 
HETATM   25 CL   UNL     1      -5.416  -1.229 -32.840  1.00  0.00    -0.084 Cl
BRANCH  20  26
HETATM   26  O   UNL     1      -6.194   4.531 -33.643  1.00  0.00    -0.354 OA
HETATM   27  C   UNL     1      -7.587   4.840 -33.734  1.00  0.00     0.210 C 
ENDBRANCH  20  26
ENDBRANCH   1  19
TORSDOF 2
ENDMDL
