MODEL 1
REMARK VINA RESULT:      -8.7      0.000      0.000
REMARK  8 active torsions:
REMARK  status: ('A' for Active; 'I' for Inactive)
REMARK    1  A    between atoms: C_2  and  C_3 
REMARK    2  A    between atoms: C_3  and  C_4 
REMARK       I    between atoms: C_4  and  N_5 
REMARK    3  A    between atoms: N_8  and  C_9 
REMARK    4  A    between atoms: C_12  and  N_13 
REMARK    5  A    between atoms: N_13  and  C_14 
REMARK    6  A    between atoms: C_14  and  N_15 
REMARK       I    between atoms: N_15  and  C_16 
REMARK    7  A    between atoms: C_16  and  C_17 
REMARK    8  A    between atoms: C_21  and  O_22 
ROOT
HETATM    1  C   UNL     1      -5.395   4.031 -31.092  1.00  0.00     0.030 A 
HETATM    2  C   UNL     1      -5.855   3.042 -30.207  1.00  0.00     0.031 A 
HETATM    3  C   UNL     1      -7.082   2.381 -30.378  1.00  0.00     0.032 A 
HETATM    4  C   UNL     1      -7.891   2.655 -31.471  1.00  0.00     0.034 A 
HETATM    5  C   UNL     1      -7.419   3.561 -32.418  1.00  0.00     0.032 A 
HETATM    6  C   UNL     1      -6.204   4.246 -32.220  1.00  0.00     0.031 A 
ENDROOT
BRANCH   4   7
HETATM    7  N   UNL     1      -9.120   2.008 -31.712  1.00  0.00    -0.333 N 
HETATM    8  H   UNL     1      -9.835   2.139 -30.996  1.00  0.00     0.168 HD
BRANCH   7   9
HETATM    9  C   UNL     1      -9.480   1.144 -32.719  1.00  0.00     0.179 C 
HETATM   10  S   UNL     1     -10.901   1.087 -33.602  1.00  0.00    -0.040 SA
BRANCH   9  11
HETATM   11  N   UNL     1      -8.524   0.215 -33.080  1.00  0.00    -0.299 N 
HETATM   12  C   UNL     1      -7.645   0.218 -34.153  1.00  0.00     0.257 C 
HETATM   13  O   UNL     1      -7.643   1.048 -35.053  1.00  0.00    -0.267 OA
HETATM   14  H   UNL     1      -8.415  -0.508 -32.379  1.00  0.00     0.171 HD
BRANCH  12  15
HETATM   15  C   UNL     1      -6.650  -0.886 -34.141  1.00  0.00     0.034 A 
HETATM   16  C   UNL     1      -7.004  -2.115 -34.698  1.00  0.00     0.044 A 
HETATM   17  C   UNL     1      -6.061  -3.146 -34.750  1.00  0.00     0.068 A 
HETATM   18 CL   UNL     1      -6.538  -4.637 -35.486  1.00  0.00    -0.081 Cl
HETATM   19  C   UNL     1      -4.764  -2.970 -34.234  1.00  0.00     0.089 A 
HETATM   20  C   UNL     1      -4.434  -1.741 -33.649  1.00  0.00     0.039 A 
HETATM   21  C   UNL     1      -5.372  -0.704 -33.600  1.00  0.00     0.020 A 
BRANCH  19  22
HETATM   22  O   UNL     1      -3.904  -4.031 -34.341  1.00  0.00    -0.354 OA
HETATM   23  C   UNL     1      -3.320  -4.537 -33.148  1.00  0.00     0.210 C 
ENDBRANCH  19  22
ENDBRANCH  12  15
ENDBRANCH   9  11
ENDBRANCH   7   9
ENDBRANCH   4   7
BRANCH   1  24
HETATM   24  N   UNL     1      -4.165   4.678 -30.884  1.00  0.00    -0.378 N 
HETATM   25  C   UNL     1      -4.213   6.035 -30.288  1.00  0.00     0.143 C 
HETATM   26  C   UNL     1      -2.847   6.420 -29.694  1.00  0.00     0.145 C 
HETATM   27  N   UNL     1      -1.743   6.290 -30.646  1.00  0.00    -0.349 N 
HETATM   28  C   UNL     1      -0.513   6.918 -30.491  1.00  0.00     0.219 C 
HETATM   29  C   UNL     1      -1.741   5.036 -31.408  1.00  0.00     0.145 C 
HETATM   30  O   UNL     1       0.457   6.631 -31.196  1.00  0.00    -0.273 OA
HETATM   31  C   UNL     1      -3.120   4.586 -31.933  1.00  0.00     0.143 C 
BRANCH  28  32
HETATM   32  C   UNL     1      -0.359   8.003 -29.435  1.00  0.00     0.103 C 
BRANCH  32  33
HETATM   33  C   UNL     1       0.515   7.564 -28.263  1.00  0.00     0.005 C 
HETATM   34  C   UNL     1       1.571   8.586 -27.875  1.00  0.00     0.005 C 
ENDBRANCH  32  33
ENDBRANCH  28  32
ENDBRANCH   1  24
TORSDOF 8
ENDMDL
MODEL 2
REMARK VINA RESULT:      -8.4      1.581      1.877
REMARK  8 active torsions:
REMARK  status: ('A' for Active; 'I' for Inactive)
REMARK    1  A    between atoms: C_2  and  C_3 
REMARK    2  A    between atoms: C_3  and  C_4 
REMARK       I    between atoms: C_4  and  N_5 
REMARK    3  A    between atoms: N_8  and  C_9 
REMARK    4  A    between atoms: C_12  and  N_13 
REMARK    5  A    between atoms: N_13  and  C_14 
REMARK    6  A    between atoms: C_14  and  N_15 
REMARK       I    between atoms: N_15  and  C_16 
REMARK    7  A    between atoms: C_16  and  C_17 
REMARK    8  A    between atoms: C_21  and  O_22 
ROOT
HETATM    1  C   UNL     1      -5.486   5.282 -31.816  1.00  0.00     0.030 A 
HETATM    2  C   UNL     1      -6.673   4.815 -31.228  1.00  0.00     0.031 A 
HETATM    3  C   UNL     1      -7.694   4.196 -31.965  1.00  0.00     0.032 A 
HETATM    4  C   UNL     1      -7.556   3.981 -33.329  1.00  0.00     0.034 A 
HETATM    5  C   UNL     1      -6.352   4.347 -33.926  1.00  0.00     0.032 A 
HETATM    6  C   UNL     1      -5.347   4.999 -33.185  1.00  0.00     0.031 A 
ENDROOT
BRANCH   4   7
HETATM    7  N   UNL     1      -8.534   3.343 -34.120  1.00  0.00    -0.333 N 
HETATM    8  H   UNL     1      -9.040   3.948 -34.768  1.00  0.00     0.168 HD
BRANCH   7   9
HETATM    9  C   UNL     1      -8.983   2.045 -34.089  1.00  0.00     0.179 C 
HETATM   10  S   UNL     1     -10.556   1.472 -34.129  1.00  0.00    -0.040 SA
BRANCH   9  11
HETATM   11  N   UNL     1      -8.002   1.073 -34.058  1.00  0.00    -0.299 N 
HETATM   12  C   UNL     1      -7.533   0.320 -32.991  1.00  0.00     0.257 C 
HETATM   13  O   UNL     1      -7.871   0.476 -31.824  1.00  0.00    -0.267 OA
HETATM   14  H   UNL     1      -7.672   0.838 -34.985  1.00  0.00     0.171 HD
BRANCH  12  15
HETATM   15  C   UNL     1      -6.565  -0.743 -33.362  1.00  0.00     0.034 A 
HETATM   16  C   UNL     1      -7.033  -1.877 -34.027  1.00  0.00     0.044 A 
HETATM   17  C   UNL     1      -6.128  -2.860 -34.438  1.00  0.00     0.068 A 
HETATM   18 CL   UNL     1      -6.756  -4.226 -35.293  1.00  0.00    -0.081 Cl
HETATM   19  C   UNL     1      -4.751  -2.733 -34.176  1.00  0.00     0.089 A 
HETATM   20  C   UNL     1      -4.300  -1.606 -33.479  1.00  0.00     0.039 A 
HETATM   21  C   UNL     1      -5.201  -0.616 -33.072  1.00  0.00     0.020 A 
BRANCH  19  22
HETATM   22  O   UNL     1      -3.938  -3.739 -34.627  1.00  0.00    -0.354 OA
HETATM   23  C   UNL     1      -3.508  -4.718 -33.690  1.00  0.00     0.210 C 
ENDBRANCH  19  22
ENDBRANCH  12  15
ENDBRANCH   9  11
ENDBRANCH   7   9
ENDBRANCH   4   7
BRANCH   1  24
HETATM   24  N   UNL     1      -4.488   5.905 -31.047  1.00  0.00    -0.378 N 
HETATM   25  C   UNL     1      -3.102   5.404 -31.215  1.00  0.00     0.143 C 
HETATM   26  C   UNL     1      -2.082   6.436 -30.706  1.00  0.00     0.145 C 
HETATM   27  N   UNL     1      -2.333   6.871 -29.332  1.00  0.00    -0.349 N 
HETATM   28  C   UNL     1      -1.376   7.480 -28.529  1.00  0.00     0.219 C 
HETATM   29  C   UNL     1      -3.732   7.209 -29.046  1.00  0.00     0.145 C 
HETATM   30  O   UNL     1      -1.672   8.014 -27.457  1.00  0.00    -0.273 OA
HETATM   31  C   UNL     1      -4.774   6.233 -29.630  1.00  0.00     0.143 C 
BRANCH  28  32
HETATM   32  C   UNL     1       0.080   7.476 -28.971  1.00  0.00     0.103 C 
BRANCH  32  33
HETATM   33  C   UNL     1       1.052   7.465 -27.795  1.00  0.00     0.005 C 
HETATM   34  C   UNL     1       1.742   8.800 -27.564  1.00  0.00     0.005 C 
ENDBRANCH  32  33
ENDBRANCH  28  32
ENDBRANCH   1  24
TORSDOF 8
ENDMDL
MODEL 3
REMARK VINA RESULT:      -8.1      1.773      2.387
REMARK  8 active torsions:
REMARK  status: ('A' for Active; 'I' for Inactive)
REMARK    1  A    between atoms: C_2  and  C_3 
REMARK    2  A    between atoms: C_3  and  C_4 
REMARK       I    between atoms: C_4  and  N_5 
REMARK    3  A    between atoms: N_8  and  C_9 
REMARK    4  A    between atoms: C_12  and  N_13 
REMARK    5  A    between atoms: N_13  and  C_14 
REMARK    6  A    between atoms: C_14  and  N_15 
REMARK       I    between atoms: N_15  and  C_16 
REMARK    7  A    between atoms: C_16  and  C_17 
REMARK    8  A    between atoms: C_21  and  O_22 
ROOT
HETATM    1  C   UNL     1      -6.422   4.364 -30.218  1.00  0.00     0.030 A 
HETATM    2  C   UNL     1      -7.730   4.729 -30.577  1.00  0.00     0.031 A 
HETATM    3  C   UNL     1      -8.705   3.792 -30.951  1.00  0.00     0.032 A 
HETATM    4  C   UNL     1      -8.423   2.433 -30.947  1.00  0.00     0.034 A 
HETATM    5  C   UNL     1      -7.165   2.031 -30.505  1.00  0.00     0.032 A 
HETATM    6  C   UNL     1      -6.182   2.981 -30.165  1.00  0.00     0.031 A 
ENDROOT
BRANCH   4   7
HETATM    7  N   UNL     1      -9.366   1.441 -31.288  1.00  0.00    -0.333 N 
HETATM    8  H   UNL     1      -9.931   1.086 -30.516  1.00  0.00     0.168 HD
BRANCH   7   9
HETATM    9  C   UNL     1      -9.580   0.803 -32.485  1.00  0.00     0.179 C 
HETATM   10  S   UNL     1     -10.898   0.906 -33.515  1.00  0.00    -0.040 SA
BRANCH   9  11
HETATM   11  N   UNL     1      -8.552  -0.010 -32.923  1.00  0.00    -0.299 N 
HETATM   12  C   UNL     1      -7.509   0.270 -33.793  1.00  0.00     0.257 C 
HETATM   13  O   UNL     1      -7.383   1.315 -34.419  1.00  0.00    -0.267 OA
HETATM   14  H   UNL     1      -8.541  -0.899 -32.439  1.00  0.00     0.171 HD
BRANCH  12  15
HETATM   15  C   UNL     1      -6.500  -0.813 -33.919  1.00  0.00     0.034 A 
HETATM   16  C   UNL     1      -5.386  -0.795 -33.080  1.00  0.00     0.044 A 
HETATM   17  C   UNL     1      -4.457  -1.838 -33.142  1.00  0.00     0.068 A 
HETATM   18 CL   UNL     1      -3.115  -1.787 -32.053  1.00  0.00    -0.081 Cl
HETATM   19  C   UNL     1      -4.619  -2.899 -34.051  1.00  0.00     0.089 A 
HETATM   20  C   UNL     1      -5.725  -2.887 -34.910  1.00  0.00     0.039 A 
HETATM   21  C   UNL     1      -6.661  -1.849 -34.847  1.00  0.00     0.020 A 
BRANCH  19  22
HETATM   22  O   UNL     1      -3.666  -3.883 -34.032  1.00  0.00    -0.354 OA
HETATM   23  C   UNL     1      -4.081  -5.206 -33.717  1.00  0.00     0.210 C 
ENDBRANCH  19  22
ENDBRANCH  12  15
ENDBRANCH   9  11
ENDBRANCH   7   9
ENDBRANCH   4   7
BRANCH   1  24
HETATM   24  N   UNL     1      -5.470   5.332 -29.856  1.00  0.00    -0.378 N 
HETATM   25  C   UNL     1      -4.151   5.260 -30.530  1.00  0.00     0.143 C 
HETATM   26  C   UNL     1      -3.401   6.598 -30.410  1.00  0.00     0.145 C 
HETATM   27  N   UNL     1      -3.274   7.069 -29.031  1.00  0.00    -0.349 N 
HETATM   28  C   UNL     1      -2.341   8.015 -28.622  1.00  0.00     0.219 C 
HETATM   29  C   UNL     1      -4.511   6.994 -28.245  1.00  0.00     0.145 C 
HETATM   30  O   UNL     1      -2.391   8.537 -27.505  1.00  0.00    -0.273 OA
HETATM   31  C   UNL     1      -5.324   5.696 -28.426  1.00  0.00     0.143 C 
BRANCH  28  32
HETATM   32  C   UNL     1      -1.215   8.407 -29.567  1.00  0.00     0.103 C 
BRANCH  32  33
HETATM   33  C   UNL     1       0.016   7.516 -29.418  1.00  0.00     0.005 C 
HETATM   34  C   UNL     1       0.371   6.754 -30.684  1.00  0.00     0.005 C 
ENDBRANCH  32  33
ENDBRANCH  28  32
ENDBRANCH   1  24
TORSDOF 8
ENDMDL
MODEL 4
REMARK VINA RESULT:      -7.9      4.497     10.791
REMARK  8 active torsions:
REMARK  status: ('A' for Active; 'I' for Inactive)
REMARK    1  A    between atoms: C_2  and  C_3 
REMARK    2  A    between atoms: C_3  and  C_4 
REMARK       I    between atoms: C_4  and  N_5 
REMARK    3  A    between atoms: N_8  and  C_9 
REMARK    4  A    between atoms: C_12  and  N_13 
REMARK    5  A    between atoms: N_13  and  C_14 
REMARK    6  A    between atoms: C_14  and  N_15 
REMARK       I    between atoms: N_15  and  C_16 
REMARK    7  A    between atoms: C_16  and  C_17 
REMARK    8  A    between atoms: C_21  and  O_22 
ROOT
HETATM    1  C   UNL     1      -4.162   1.972 -31.748  1.00  0.00     0.030 A 
HETATM    2  C   UNL     1      -3.271   2.988 -32.130  1.00  0.00     0.031 A 
HETATM    3  C   UNL     1      -3.428   4.325 -31.733  1.00  0.00     0.032 A 
HETATM    4  C   UNL     1      -4.471   4.700 -30.897  1.00  0.00     0.034 A 
HETATM    5  C   UNL     1      -5.316   3.700 -30.423  1.00  0.00     0.032 A 
HETATM    6  C   UNL     1      -5.171   2.367 -30.855  1.00  0.00     0.031 A 
ENDROOT
BRANCH   4   7
HETATM    7  N   UNL     1      -4.668   6.021 -30.443  1.00  0.00    -0.333 N 
HETATM    8  H   UNL     1      -4.730   6.732 -31.171  1.00  0.00     0.168 HD
BRANCH   7   9
HETATM    9  C   UNL     1      -4.696   6.518 -29.162  1.00  0.00     0.179 C 
HETATM   10  S   UNL     1      -6.017   6.867 -28.194  1.00  0.00    -0.040 SA
BRANCH   9  11
HETATM   11  N   UNL     1      -3.463   6.725 -28.574  1.00  0.00    -0.299 N 
HETATM   12  C   UNL     1      -2.300   7.253 -29.116  1.00  0.00     0.257 C 
HETATM   13  O   UNL     1      -2.149   7.548 -30.295  1.00  0.00    -0.267 OA
HETATM   14  H   UNL     1      -3.483   6.544 -27.579  1.00  0.00     0.171 HD
BRANCH  12  15
HETATM   15  C   UNL     1      -1.202   7.464 -28.138  1.00  0.00     0.034 A 
HETATM   16  C   UNL     1      -1.452   8.236 -27.003  1.00  0.00     0.044 A 
HETATM   17  C   UNL     1      -0.449   8.395 -26.042  1.00  0.00     0.068 A 
HETATM   18 CL   UNL     1      -0.823   9.329 -24.635  1.00  0.00    -0.081 Cl
HETATM   19  C   UNL     1       0.816   7.803 -26.208  1.00  0.00     0.089 A 
HETATM   20  C   UNL     1       1.063   7.058 -27.368  1.00  0.00     0.039 A 
HETATM   21  C   UNL     1       0.061   6.890 -28.330  1.00  0.00     0.020 A 
BRANCH  19  22
HETATM   22  O   UNL     1       1.732   8.002 -25.209  1.00  0.00    -0.354 OA
HETATM   23  C   UNL     1       2.660   9.067 -25.360  1.00  0.00     0.210 C 
ENDBRANCH  19  22
ENDBRANCH  12  15
ENDBRANCH   9  11
ENDBRANCH   7   9
ENDBRANCH   4   7
BRANCH   1  24
HETATM   24  N   UNL     1      -3.977   0.644 -32.171  1.00  0.00    -0.378 N 
HETATM   25  C   UNL     1      -4.951   0.112 -33.155  1.00  0.00     0.143 C 
HETATM   26  C   UNL     1      -4.386  -1.128 -33.869  1.00  0.00     0.145 C 
HETATM   27  N   UNL     1      -3.929  -2.169 -32.948  1.00  0.00    -0.349 N 
HETATM   28  C   UNL     1      -3.742  -3.497 -33.317  1.00  0.00     0.219 C 
HETATM   29  C   UNL     1      -3.104  -1.681 -31.837  1.00  0.00     0.145 C 
HETATM   30  O   UNL     1      -3.168  -4.301 -32.578  1.00  0.00    -0.273 OA
HETATM   31  C   UNL     1      -3.607  -0.384 -31.169  1.00  0.00     0.143 C 
BRANCH  28  32
HETATM   32  C   UNL     1      -4.274  -3.979 -34.658  1.00  0.00     0.103 C 
BRANCH  32  33
HETATM   33  C   UNL     1      -5.564  -4.784 -34.524  1.00  0.00     0.005 C 
HETATM   34  C   UNL     1      -6.790  -4.063 -35.060  1.00  0.00     0.005 C 
ENDBRANCH  32  33
ENDBRANCH  28  32
ENDBRANCH   1  24
TORSDOF 8
ENDMDL
MODEL 5
REMARK VINA RESULT:      -7.9      3.479      5.786
REMARK  8 active torsions:
REMARK  status: ('A' for Active; 'I' for Inactive)
REMARK    1  A    between atoms: C_2  and  C_3 
REMARK    2  A    between atoms: C_3  and  C_4 
REMARK       I    between atoms: C_4  and  N_5 
REMARK    3  A    between atoms: N_8  and  C_9 
REMARK    4  A    between atoms: C_12  and  N_13 
REMARK    5  A    between atoms: N_13  and  C_14 
REMARK    6  A    between atoms: C_14  and  N_15 
REMARK       I    between atoms: N_15  and  C_16 
REMARK    7  A    between atoms: C_16  and  C_17 
REMARK    8  A    between atoms: C_21  and  O_22 
ROOT
HETATM    1  C   UNL     1      -0.399   7.091 -29.334  1.00  0.00     0.030 A 
HETATM    2  C   UNL     1      -1.747   7.315 -29.660  1.00  0.00     0.031 A 
HETATM    3  C   UNL     1      -2.397   6.643 -30.707  1.00  0.00     0.032 A 
HETATM    4  C   UNL     1      -1.732   5.683 -31.456  1.00  0.00     0.034 A 
HETATM    5  C   UNL     1      -0.423   5.369 -31.098  1.00  0.00     0.032 A 
HETATM    6  C   UNL     1       0.232   6.073 -30.068  1.00  0.00     0.031 A 
ENDROOT
BRANCH   4   7
HETATM    7  N   UNL     1      -2.336   4.957 -32.504  1.00  0.00    -0.333 N 
HETATM    8  H   UNL     1      -1.704   4.634 -33.238  1.00  0.00     0.168 HD
BRANCH   7   9
HETATM    9  C   UNL     1      -3.663   4.694 -32.743  1.00  0.00     0.179 C 
HETATM   10  S   UNL     1      -4.947   5.763 -32.853  1.00  0.00    -0.040 SA
BRANCH   9  11
HETATM   11  N   UNL     1      -3.980   3.367 -32.960  1.00  0.00    -0.299 N 
HETATM   12  C   UNL     1      -3.664   2.245 -32.208  1.00  0.00     0.257 C 
HETATM   13  O   UNL     1      -2.932   2.245 -31.227  1.00  0.00    -0.267 OA
HETATM   14  H   UNL     1      -4.619   3.253 -33.737  1.00  0.00     0.171 HD
BRANCH  12  15
HETATM   15  C   UNL     1      -4.305   0.988 -32.673  1.00  0.00     0.034 A 
HETATM   16  C   UNL     1      -5.572   1.054 -33.254  1.00  0.00     0.044 A 
HETATM   17  C   UNL     1      -6.164  -0.110 -33.752  1.00  0.00     0.068 A 
HETATM   18 CL   UNL     1      -7.718   0.033 -34.498  1.00  0.00    -0.081 Cl
HETATM   19  C   UNL     1      -5.511  -1.353 -33.660  1.00  0.00     0.089 A 
HETATM   20  C   UNL     1      -4.255  -1.409 -33.045  1.00  0.00     0.039 A 
HETATM   21  C   UNL     1      -3.655  -0.246 -32.551  1.00  0.00     0.020 A 
BRANCH  19  22
HETATM   22  O   UNL     1      -6.162  -2.437 -34.187  1.00  0.00    -0.354 OA
HETATM   23  C   UNL     1      -5.393  -3.389 -34.910  1.00  0.00     0.210 C 
ENDBRANCH  19  22
ENDBRANCH  12  15
ENDBRANCH   9  11
ENDBRANCH   7   9
ENDBRANCH   4   7
BRANCH   1  24
HETATM   24  N   UNL     1       0.221   7.788 -28.283  1.00  0.00    -0.378 N 
HETATM   25  C   UNL     1       0.829   6.972 -27.204  1.00  0.00     0.143 C 
HETATM   26  C   UNL     1       1.847   7.799 -26.400  1.00  0.00     0.145 C 
HETATM   27  N   UNL     1       1.296   9.051 -25.881  1.00  0.00    -0.349 N 
HETATM   28  C   UNL     1       1.866   9.770 -24.836  1.00  0.00     0.219 C 
HETATM   29  C   UNL     1       0.520   9.826 -26.856  1.00  0.00     0.145 C 
HETATM   30  O   UNL     1       1.498  10.914 -24.558  1.00  0.00    -0.273 OA
HETATM   31  C   UNL     1      -0.439   8.998 -27.736  1.00  0.00     0.143 C 
BRANCH  28  32
HETATM   32  C   UNL     1       2.962   9.126 -24.000  1.00  0.00     0.103 C 
BRANCH  32  33
HETATM   33  C   UNL     1       2.567   8.968 -22.534  1.00  0.00     0.005 C 
HETATM   34  C   UNL     1       3.565   8.163 -21.719  1.00  0.00     0.005 C 
ENDBRANCH  32  33
ENDBRANCH  28  32
ENDBRANCH   1  24
TORSDOF 8
ENDMDL
MODEL 6
REMARK VINA RESULT:      -7.4      4.350     10.929
REMARK  8 active torsions:
REMARK  status: ('A' for Active; 'I' for Inactive)
REMARK    1  A    between atoms: C_2  and  C_3 
REMARK    2  A    between atoms: C_3  and  C_4 
REMARK       I    between atoms: C_4  and  N_5 
REMARK    3  A    between atoms: N_8  and  C_9 
REMARK    4  A    between atoms: C_12  and  N_13 
REMARK    5  A    between atoms: N_13  and  C_14 
REMARK    6  A    between atoms: C_14  and  N_15 
REMARK       I    between atoms: N_15  and  C_16 
REMARK    7  A    between atoms: C_16  and  C_17 
REMARK    8  A    between atoms: C_21  and  O_22 
ROOT
HETATM    1  C   UNL     1      -5.211   2.550 -31.355  1.00  0.00     0.030 A 
HETATM    2  C   UNL     1      -5.970   2.861 -30.215  1.00  0.00     0.031 A 
HETATM    3  C   UNL     1      -5.852   4.082 -29.533  1.00  0.00     0.032 A 
HETATM    4  C   UNL     1      -4.988   5.069 -29.987  1.00  0.00     0.034 A 
HETATM    5  C   UNL     1      -4.291   4.830 -31.168  1.00  0.00     0.032 A 
HETATM    6  C   UNL     1      -4.390   3.588 -31.826  1.00  0.00     0.031 A 
ENDROOT
BRANCH   4   7
HETATM    7  N   UNL     1      -4.843   6.325 -29.361  1.00  0.00    -0.333 N 
HETATM    8  H   UNL     1      -5.394   6.461 -28.513  1.00  0.00     0.168 HD
BRANCH   7   9
HETATM    9  C   UNL     1      -4.145   7.436 -29.767  1.00  0.00     0.179 C 
HETATM   10  S   UNL     1      -4.503   8.517 -30.995  1.00  0.00    -0.040 SA
BRANCH   9  11
HETATM   11  N   UNL     1      -3.007   7.727 -29.039  1.00  0.00    -0.299 N 
HETATM   12  C   UNL     1      -1.684   7.401 -29.295  1.00  0.00     0.257 C 
HETATM   13  O   UNL     1      -1.306   6.681 -30.211  1.00  0.00    -0.267 OA
HETATM   14  H   UNL     1      -3.201   8.353 -28.268  1.00  0.00     0.171 HD
BRANCH  12  15
HETATM   15  C   UNL     1      -0.704   8.013 -28.361  1.00  0.00     0.034 A 
HETATM   16  C   UNL     1      -1.174   8.621 -27.196  1.00  0.00     0.044 A 
HETATM   17  C   UNL     1      -0.263   9.149 -26.277  1.00  0.00     0.068 A 
HETATM   18 CL   UNL     1      -0.897   9.857 -24.832  1.00  0.00    -0.081 Cl
HETATM   19  C   UNL     1       1.122   9.092 -26.514  1.00  0.00     0.089 A 
HETATM   20  C   UNL     1       1.578   8.508 -27.702  1.00  0.00     0.039 A 
HETATM   21  C   UNL     1       0.671   7.972 -28.622  1.00  0.00     0.020 A 
BRANCH  19  22
HETATM   22  O   UNL     1       1.939   9.623 -25.551  1.00  0.00    -0.354 OA
HETATM   23  C   UNL     1       2.632   8.723 -24.696  1.00  0.00     0.210 C 
ENDBRANCH  19  22
ENDBRANCH  12  15
ENDBRANCH   9  11
ENDBRANCH   7   9
ENDBRANCH   4   7
BRANCH   1  24
HETATM   24  N   UNL     1      -5.351   1.314 -32.008  1.00  0.00    -0.378 N 
HETATM   25  C   UNL     1      -4.254   0.910 -32.921  1.00  0.00     0.143 C 
HETATM   26  C   UNL     1      -4.294  -0.604 -33.188  1.00  0.00     0.145 C 
HETATM   27  N   UNL     1      -5.594  -1.075 -33.668  1.00  0.00    -0.349 N 
HETATM   28  C   UNL     1      -5.781  -2.283 -34.329  1.00  0.00     0.219 C 
HETATM   29  C   UNL     1      -6.743  -0.561 -32.915  1.00  0.00     0.145 C 
HETATM   30  O   UNL     1      -6.906  -2.741 -34.539  1.00  0.00    -0.273 OA
HETATM   31  C   UNL     1      -6.676   0.938 -32.558  1.00  0.00     0.143 C 
BRANCH  28  32
HETATM   32  C   UNL     1      -4.567  -3.057 -34.823  1.00  0.00     0.103 C 
BRANCH  32  33
HETATM   33  C   UNL     1      -4.454  -4.441 -34.189  1.00  0.00     0.005 C 
HETATM   34  C   UNL     1      -3.445  -4.510 -33.055  1.00  0.00     0.005 C 
ENDBRANCH  32  33
ENDBRANCH  28  32
ENDBRANCH   1  24
TORSDOF 8
ENDMDL
MODEL 7
REMARK VINA RESULT:      -7.4      6.640     11.335
REMARK  8 active torsions:
REMARK  status: ('A' for Active; 'I' for Inactive)
REMARK    1  A    between atoms: C_2  and  C_3 
REMARK    2  A    between atoms: C_3  and  C_4 
REMARK       I    between atoms: C_4  and  N_5 
REMARK    3  A    between atoms: N_8  and  C_9 
REMARK    4  A    between atoms: C_12  and  N_13 
REMARK    5  A    between atoms: N_13  and  C_14 
REMARK    6  A    between atoms: C_14  and  N_15 
REMARK       I    between atoms: N_15  and  C_16 
REMARK    7  A    between atoms: C_16  and  C_17 
REMARK    8  A    between atoms: C_21  and  O_22 
ROOT
HETATM    1  C   UNL     1       2.432   9.443 -24.271  1.00  0.00     0.030 A 
HETATM    2  C   UNL     1       1.203  10.121 -24.239  1.00  0.00     0.031 A 
HETATM    3  C   UNL     1       0.230   9.978 -25.240  1.00  0.00     0.032 A 
HETATM    4  C   UNL     1       0.430   9.113 -26.307  1.00  0.00     0.034 A 
HETATM    5  C   UNL     1       1.598   8.354 -26.319  1.00  0.00     0.032 A 
HETATM    6  C   UNL     1       2.584   8.531 -25.328  1.00  0.00     0.031 A 
ENDROOT
BRANCH   4   7
HETATM    7  N   UNL     1      -0.518   8.906 -27.330  1.00  0.00    -0.333 N 
HETATM    8  H   UNL     1      -0.663   9.694 -27.963  1.00  0.00     0.168 HD
BRANCH   7   9
HETATM    9  C   UNL     1      -1.353   7.839 -27.555  1.00  0.00     0.179 C 
HETATM   10  S   UNL     1      -2.337   7.022 -26.473  1.00  0.00    -0.040 SA
BRANCH   9  11
HETATM   11  N   UNL     1      -1.421   7.397 -28.863  1.00  0.00    -0.299 N 
HETATM   12  C   UNL     1      -0.402   7.180 -29.779  1.00  0.00     0.257 C 
HETATM   13  O   UNL     1       0.777   7.450 -29.590  1.00  0.00    -0.267 OA
HETATM   14  H   UNL     1      -2.357   7.110 -29.116  1.00  0.00     0.171 HD
BRANCH  12  15
HETATM   15  C   UNL     1      -0.840   6.558 -31.055  1.00  0.00     0.034 A 
HETATM   16  C   UNL     1      -1.528   5.344 -31.011  1.00  0.00     0.044 A 
HETATM   17  C   UNL     1      -2.001   4.775 -32.197  1.00  0.00     0.068 A 
HETATM   18 CL   UNL     1      -2.881   3.291 -32.082  1.00  0.00    -0.081 Cl
HETATM   19  C   UNL     1      -1.779   5.398 -33.439  1.00  0.00     0.089 A 
HETATM   20  C   UNL     1      -1.059   6.598 -33.471  1.00  0.00     0.039 A 
HETATM   21  C   UNL     1      -0.590   7.175 -32.286  1.00  0.00     0.020 A 
BRANCH  19  22
HETATM   22  O   UNL     1      -2.290   4.773 -34.546  1.00  0.00    -0.354 OA
HETATM   23  C   UNL     1      -3.456   5.326 -35.143  1.00  0.00     0.210 C 
ENDBRANCH  19  22
ENDBRANCH  12  15
ENDBRANCH   9  11
ENDBRANCH   7   9
ENDBRANCH   4   7
BRANCH   1  24
HETATM   24  N   UNL     1       3.386   9.618 -23.254  1.00  0.00    -0.378 N 
HETATM   25  C   UNL     1       3.540   8.509 -22.281  1.00  0.00     0.143 C 
HETATM   26  C   UNL     1       4.886   8.611 -21.543  1.00  0.00     0.145 C 
HETATM   27  N   UNL     1       5.104   9.913 -20.912  1.00  0.00    -0.349 N 
HETATM   28  C   UNL     1       6.026  10.132 -19.895  1.00  0.00     0.219 C 
HETATM   29  C   UNL     1       4.792  11.064 -21.767  1.00  0.00     0.145 C 
HETATM   30  O   UNL     1       6.329  11.270 -19.527  1.00  0.00    -0.273 OA
HETATM   31  C   UNL     1       3.491  10.938 -22.586  1.00  0.00     0.143 C 
BRANCH  28  32
HETATM   32  C   UNL     1       6.670   8.940 -19.204  1.00  0.00     0.103 C 
BRANCH  32  33
HETATM   33  C   UNL     1       8.195   8.988 -19.247  1.00  0.00     0.005 C 
HETATM   34  C   UNL     1       8.782   8.501 -20.561  1.00  0.00     0.005 C 
ENDBRANCH  32  33
ENDBRANCH  28  32
ENDBRANCH   1  24
TORSDOF 8
ENDMDL
MODEL 8
REMARK VINA RESULT:      -7.1      7.449     11.681
REMARK  8 active torsions:
REMARK  status: ('A' for Active; 'I' for Inactive)
REMARK    1  A    between atoms: C_2  and  C_3 
REMARK    2  A    between atoms: C_3  and  C_4 
REMARK       I    between atoms: C_4  and  N_5 
REMARK    3  A    between atoms: N_8  and  C_9 
REMARK    4  A    between atoms: C_12  and  N_13 
REMARK    5  A    between atoms: N_13  and  C_14 
REMARK    6  A    between atoms: C_14  and  N_15 
REMARK       I    between atoms: N_15  and  C_16 
REMARK    7  A    between atoms: C_16  and  C_17 
REMARK    8  A    between atoms: C_21  and  O_22 
ROOT
HETATM    1  C   UNL     1      -9.735   2.547 -32.094  1.00  0.00     0.030 A 
HETATM    2  C   UNL     1     -10.776   2.937 -32.953  1.00  0.00     0.031 A 
HETATM    3  C   UNL     1     -11.782   3.837 -32.567  1.00  0.00     0.032 A 
HETATM    4  C   UNL     1     -11.769   4.419 -31.307  1.00  0.00     0.034 A 
HETATM    5  C   UNL     1     -10.699   4.127 -30.466  1.00  0.00     0.032 A 
HETATM    6  C   UNL     1      -9.713   3.196 -30.849  1.00  0.00     0.031 A 
ENDROOT
BRANCH   4   7
HETATM    7  N   UNL     1     -12.736   5.348 -30.869  1.00  0.00    -0.333 N 
HETATM    8  H   UNL     1     -13.704   5.114 -31.092  1.00  0.00     0.168 HD
BRANCH   7   9
HETATM    9  C   UNL     1     -12.574   6.573 -30.270  1.00  0.00     0.179 C 
HETATM   10  S   UNL     1     -11.817   7.946 -30.861  1.00  0.00    -0.040 SA
BRANCH   9  11
HETATM   11  N   UNL     1     -13.143   6.708 -29.018  1.00  0.00    -0.299 N 
HETATM   12  C   UNL     1     -14.459   6.525 -28.619  1.00  0.00     0.257 C 
HETATM   13  O   UNL     1     -15.393   6.293 -29.376  1.00  0.00    -0.267 OA
HETATM   14  H   UNL     1     -12.448   6.868 -28.301  1.00  0.00     0.171 HD
BRANCH  12  15
HETATM   15  C   UNL     1     -14.679   6.616 -27.153  1.00  0.00     0.034 A 
HETATM   16  C   UNL     1     -13.694   7.205 -26.360  1.00  0.00     0.044 A 
HETATM   17  C   UNL     1     -13.909   7.354 -24.987  1.00  0.00     0.068 A 
HETATM   18 CL   UNL     1     -12.672   8.126 -24.057  1.00  0.00    -0.081 Cl
HETATM   19  C   UNL     1     -15.099   6.903 -24.387  1.00  0.00     0.089 A 
HETATM   20  C   UNL     1     -16.065   6.284 -25.189  1.00  0.00     0.039 A 
HETATM   21  C   UNL     1     -15.857   6.139 -26.565  1.00  0.00     0.020 A 
BRANCH  19  22
HETATM   22  O   UNL     1     -15.228   7.103 -23.038  1.00  0.00    -0.354 OA
HETATM   23  C   UNL     1     -16.116   8.122 -22.598  1.00  0.00     0.210 C 
ENDBRANCH  19  22
ENDBRANCH  12  15
ENDBRANCH   9  11
ENDBRANCH   7   9
ENDBRANCH   4   7
BRANCH   1  24
HETATM   24  N   UNL     1      -8.749   1.637 -32.513  1.00  0.00    -0.378 N 
HETATM   25  C   UNL     1      -9.190   0.527 -33.391  1.00  0.00     0.143 C 
HETATM   26  C   UNL     1      -7.994  -0.090 -34.136  1.00  0.00     0.145 C 
HETATM   27  N   UNL     1      -6.909  -0.507 -33.247  1.00  0.00    -0.349 N 
HETATM   28  C   UNL     1      -5.918  -1.411 -33.611  1.00  0.00     0.219 C 
HETATM   29  C   UNL     1      -6.543   0.483 -32.227  1.00  0.00     0.145 C 
HETATM   30  O   UNL     1      -4.912  -1.586 -32.918  1.00  0.00    -0.273 OA
HETATM   31  C   UNL     1      -7.733   1.180 -31.535  1.00  0.00     0.143 C 
BRANCH  28  32
HETATM   32  C   UNL     1      -6.082  -2.222 -34.888  1.00  0.00     0.103 C 
BRANCH  32  33
HETATM   33  C   UNL     1      -6.797  -3.550 -34.654  1.00  0.00     0.005 C 
HETATM   34  C   UNL     1      -6.182  -4.714 -35.412  1.00  0.00     0.005 C 
ENDBRANCH  32  33
ENDBRANCH  28  32
ENDBRANCH   1  24
TORSDOF 8
ENDMDL
MODEL 9
REMARK VINA RESULT:      -7.1      4.589      7.052
REMARK  8 active torsions:
REMARK  status: ('A' for Active; 'I' for Inactive)
REMARK    1  A    between atoms: C_2  and  C_3 
REMARK    2  A    between atoms: C_3  and  C_4 
REMARK       I    between atoms: C_4  and  N_5 
REMARK    3  A    between atoms: N_8  and  C_9 
REMARK    4  A    between atoms: C_12  and  N_13 
REMARK    5  A    between atoms: N_13  and  C_14 
REMARK    6  A    between atoms: C_14  and  N_15 
REMARK       I    between atoms: N_15  and  C_16 
REMARK    7  A    between atoms: C_16  and  C_17 
REMARK    8  A    between atoms: C_21  and  O_22 
ROOT
HETATM    1  C   UNL     1      -6.674   2.759 -33.383  1.00  0.00     0.030 A 
HETATM    2  C   UNL     1      -7.518   2.893 -32.269  1.00  0.00     0.031 A 
HETATM    3  C   UNL     1      -8.747   2.224 -32.162  1.00  0.00     0.032 A 
HETATM    4  C   UNL     1      -9.171   1.353 -33.156  1.00  0.00     0.034 A 
HETATM    5  C   UNL     1      -8.313   1.125 -34.229  1.00  0.00     0.032 A 
HETATM    6  C   UNL     1      -7.098   1.828 -34.345  1.00  0.00     0.031 A 
ENDROOT
BRANCH   4   7
HETATM    7  N   UNL     1     -10.381   0.632 -33.096  1.00  0.00    -0.333 N 
HETATM    8  H   UNL     1     -10.322  -0.293 -32.670  1.00  0.00     0.168 HD
BRANCH   7   9
HETATM    9  C   UNL     1     -11.618   0.941 -33.608  1.00  0.00     0.179 C 
HETATM   10  S   UNL     1     -13.002  -0.001 -33.663  1.00  0.00    -0.040 SA
BRANCH   9  11
HETATM   11  N   UNL     1     -11.753   2.218 -34.117  1.00  0.00    -0.299 N 
HETATM   12  C   UNL     1     -12.161   3.385 -33.488  1.00  0.00     0.257 C 
HETATM   13  O   UNL     1     -12.579   3.450 -32.339  1.00  0.00    -0.267 OA
HETATM   14  H   UNL     1     -11.400   2.287 -35.063  1.00  0.00     0.171 HD
BRANCH  12  15
HETATM   15  C   UNL     1     -12.044   4.610 -34.320  1.00  0.00     0.034 A 
HETATM   16  C   UNL     1     -13.208   5.210 -34.802  1.00  0.00     0.044 A 
HETATM   17  C   UNL     1     -13.120   6.396 -35.535  1.00  0.00     0.068 A 
HETATM   18 CL   UNL     1     -14.596   7.120 -36.076  1.00  0.00    -0.081 Cl
HETATM   19  C   UNL     1     -11.874   6.988 -35.811  1.00  0.00     0.089 A 
HETATM   20  C   UNL     1     -10.713   6.358 -35.349  1.00  0.00     0.039 A 
HETATM   21  C   UNL     1     -10.795   5.173 -34.609  1.00  0.00     0.020 A 
BRANCH  19  22
HETATM   22  O   UNL     1     -11.887   8.157 -36.526  1.00  0.00    -0.354 OA
HETATM   23  C   UNL     1     -11.530   9.355 -35.848  1.00  0.00     0.210 C 
ENDBRANCH  19  22
ENDBRANCH  12  15
ENDBRANCH   9  11
ENDBRANCH   7   9
ENDBRANCH   4   7
BRANCH   1  24
HETATM   24  N   UNL     1      -5.453   3.452 -33.459  1.00  0.00    -0.378 N 
HETATM   25  C   UNL     1      -4.699   3.623 -32.193  1.00  0.00     0.143 C 
HETATM   26  C   UNL     1      -3.224   3.957 -32.476  1.00  0.00     0.145 C 
HETATM   27  N   UNL     1      -3.050   5.106 -33.364  1.00  0.00    -0.349 N 
HETATM   28  C   UNL     1      -1.867   5.830 -33.466  1.00  0.00     0.219 C 
HETATM   29  C   UNL     1      -3.907   5.091 -34.555  1.00  0.00     0.145 C 
HETATM   30  O   UNL     1      -1.688   6.658 -34.362  1.00  0.00    -0.273 OA
HETATM   31  C   UNL     1      -5.369   4.668 -34.304  1.00  0.00     0.143 C 
BRANCH  28  32
HETATM   32  C   UNL     1      -0.769   5.610 -32.436  1.00  0.00     0.103 C 
BRANCH  32  33
HETATM   33  C   UNL     1      -0.247   6.917 -31.845  1.00  0.00     0.005 C 
HETATM   34  C   UNL     1       0.371   6.756 -30.466  1.00  0.00     0.005 C 
ENDBRANCH  32  33
ENDBRANCH  28  32
ENDBRANCH   1  24
TORSDOF 8
ENDMDL
MODEL 10
REMARK VINA RESULT:      -7.1      3.942      9.871
REMARK  8 active torsions:
REMARK  status: ('A' for Active; 'I' for Inactive)
REMARK    1  A    between atoms: C_2  and  C_3 
REMARK    2  A    between atoms: C_3  and  C_4 
REMARK       I    between atoms: C_4  and  N_5 
REMARK    3  A    between atoms: N_8  and  C_9 
REMARK    4  A    between atoms: C_12  and  N_13 
REMARK    5  A    between atoms: N_13  and  C_14 
REMARK    6  A    between atoms: C_14  and  N_15 
REMARK       I    between atoms: N_15  and  C_16 
REMARK    7  A    between atoms: C_16  and  C_17 
REMARK    8  A    between atoms: C_21  and  O_22 
ROOT
HETATM    1  C   UNL     1      -6.564   2.660 -31.463  1.00  0.00     0.030 A 
HETATM    2  C   UNL     1      -7.423   2.811 -30.362  1.00  0.00     0.031 A 
HETATM    3  C   UNL     1      -7.603   4.036 -29.702  1.00  0.00     0.032 A 
HETATM    4  C   UNL     1      -6.957   5.183 -30.141  1.00  0.00     0.034 A 
HETATM    5  C   UNL     1      -6.173   5.088 -31.288  1.00  0.00     0.032 A 
HETATM    6  C   UNL     1      -5.969   3.847 -31.923  1.00  0.00     0.031 A 
ENDROOT
BRANCH   4   7
HETATM    7  N   UNL     1      -7.116   6.447 -29.537  1.00  0.00    -0.333 N 
HETATM    8  H   UNL     1      -7.961   6.564 -28.977  1.00  0.00     0.168 HD
BRANCH   7   9
HETATM    9  C   UNL     1      -6.358   7.586 -29.661  1.00  0.00     0.179 C 
HETATM   10  S   UNL     1      -6.771   9.060 -30.340  1.00  0.00    -0.040 SA
BRANCH   9  11
HETATM   11  N   UNL     1      -5.088   7.521 -29.119  1.00  0.00    -0.299 N 
HETATM   12  C   UNL     1      -4.688   7.167 -27.839  1.00  0.00     0.257 C 
HETATM   13  O   UNL     1      -5.449   6.933 -26.908  1.00  0.00    -0.267 OA
HETATM   14  H   UNL     1      -4.371   7.666 -29.818  1.00  0.00     0.171 HD
BRANCH  12  15
HETATM   15  C   UNL     1      -3.217   7.070 -27.655  1.00  0.00     0.034 A 
HETATM   16  C   UNL     1      -2.392   7.161 -28.777  1.00  0.00     0.044 A 
HETATM   17  C   UNL     1      -1.004   7.132 -28.617  1.00  0.00     0.068 A 
HETATM   18 CL   UNL     1      -0.026   7.288 -30.035  1.00  0.00    -0.081 Cl
HETATM   19  C   UNL     1      -0.423   6.995 -27.343  1.00  0.00     0.089 A 
HETATM   20  C   UNL     1      -1.264   6.872 -26.230  1.00  0.00     0.039 A 
HETATM   21  C   UNL     1      -2.654   6.907 -26.384  1.00  0.00     0.020 A 
BRANCH  19  22
HETATM   22  O   UNL     1       0.945   6.990 -27.281  1.00  0.00    -0.354 OA
HETATM   23  C   UNL     1       1.567   7.722 -26.234  1.00  0.00     0.210 C 
ENDBRANCH  19  22
ENDBRANCH  12  15
ENDBRANCH   9  11
ENDBRANCH   7   9
ENDBRANCH   4   7
BRANCH   1  24
HETATM   24  N   UNL     1      -6.402   1.415 -32.095  1.00  0.00    -0.378 N 
HETATM   25  C   UNL     1      -5.131   1.196 -32.828  1.00  0.00     0.143 C 
HETATM   26  C   UNL     1      -4.883  -0.305 -33.055  1.00  0.00     0.145 C 
HETATM   27  N   UNL     1      -6.003  -0.986 -33.706  1.00  0.00    -0.349 N 
HETATM   28  C   UNL     1      -5.891  -2.211 -34.353  1.00  0.00     0.219 C 
HETATM   29  C   UNL     1      -7.320  -0.667 -33.143  1.00  0.00     0.145 C 
HETATM   30  O   UNL     1      -6.883  -2.850 -34.712  1.00  0.00    -0.273 OA
HETATM   31  C   UNL     1      -7.552   0.824 -32.821  1.00  0.00     0.143 C 
BRANCH  28  32
HETATM   32  C   UNL     1      -4.508  -2.775 -34.644  1.00  0.00     0.103 C 
BRANCH  32  33
HETATM   33  C   UNL     1      -3.932  -3.557 -33.466  1.00  0.00     0.005 C 
HETATM   34  C   UNL     1      -3.444  -4.947 -33.839  1.00  0.00     0.005 C 
ENDBRANCH  32  33
ENDBRANCH  28  32
ENDBRANCH   1  24
TORSDOF 8
ENDMDL
