MODEL 1
REMARK VINA RESULT:      -8.6      0.000      0.000
REMARK  4 active torsions:
REMARK  status: ('A' for Active; 'I' for Inactive)
REMARK    1  A    between atoms: C_9  and  C_10 
REMARK    2  A    between atoms: C_18  and  C_19 
REMARK       I    between atoms: C_19  and  N_20 
REMARK    3  A    between atoms: N_20  and  C_21 
REMARK    4  A    between atoms: C_24  and  O_25 
ROOT
HETATM    1  C   UNL     1     -10.518   0.426 -33.056  1.00  0.00     0.070 C 
HETATM    2  C   UNL     1      -9.841   1.655 -32.504  1.00  0.00     0.037 C 
HETATM    3  N   UNL     1     -10.641   2.791 -32.413  1.00  0.00    -0.192 N 
HETATM    4  C   UNL     1     -10.270   3.903 -31.750  1.00  0.00     0.725 A 
HETATM    5  N   UNL     1      -9.004   3.989 -31.238  1.00  0.00    -0.084 N 
HETATM    6  N   UNL     1      -8.829   5.137 -30.551  1.00  0.00    -0.149 NA
HETATM    7  C   UNL     1     -10.026   5.712 -30.722  1.00  0.00     0.275 A 
HETATM    8  N   UNL     1     -10.935   4.989 -31.453  1.00  0.00    -0.054 NA
HETATM    9  C   UNL     1      -7.984   2.945 -31.386  1.00  0.00     0.202 C 
HETATM   10  C   UNL     1      -8.565   1.698 -32.046  1.00  0.00     0.062 C 
HETATM   11  H   UNL     1     -11.615   2.707 -32.694  1.00  0.00     0.184 HD
ENDROOT
BRANCH  10  12
HETATM   12  C   UNL     1      -7.632   0.538 -32.038  1.00  0.00     0.256 C 
HETATM   13  N   UNL     1      -7.245   0.137 -33.298  1.00  0.00    -0.323 N 
HETATM   14  H   UNL     1      -7.630   0.643 -34.085  1.00  0.00     0.169 HD
HETATM   15  O   UNL     1      -7.253   0.101 -30.960  1.00  0.00    -0.267 OA
BRANCH  13  16
HETATM   16  C   UNL     1      -6.363  -0.916 -33.623  1.00  0.00     0.035 A 
HETATM   17  C   UNL     1      -5.015  -0.944 -33.267  1.00  0.00     0.032 A 
HETATM   18  C   UNL     1      -4.212  -2.030 -33.628  1.00  0.00     0.039 A 
HETATM   19  C   UNL     1      -4.739  -3.109 -34.340  1.00  0.00     0.068 A 
HETATM   20  C   UNL     1      -6.084  -3.087 -34.697  1.00  0.00     0.039 A 
HETATM   21  C   UNL     1      -6.889  -1.994 -34.345  1.00  0.00     0.032 A 
BRANCH  19  22
HETATM   22  O   UNL     1      -3.844  -4.103 -34.620  1.00  0.00    -0.356 OA
HETATM   23  C   UNL     1      -3.389  -4.888 -33.525  1.00  0.00     0.210 C 
ENDBRANCH  19  22
ENDBRANCH  13  16
ENDBRANCH  10  12
BRANCH   9  24
HETATM   24  C   UNL     1      -6.773   3.486 -32.147  1.00  0.00    -0.026 A 
HETATM   25  C   UNL     1      -5.478   3.456 -31.598  1.00  0.00     0.035 A 
HETATM   26  C   UNL     1      -4.387   3.972 -32.308  1.00  0.00     0.056 A 
HETATM   27 CL   UNL     1      -2.833   3.893 -31.556  1.00  0.00    -0.083 Cl
HETATM   28  C   UNL     1      -4.579   4.531 -33.575  1.00  0.00     0.055 A 
HETATM   29 CL   UNL     1      -3.281   5.187 -34.507  1.00  0.00    -0.083 Cl
HETATM   30  C   UNL     1      -5.862   4.576 -34.123  1.00  0.00     0.026 A 
HETATM   31  C   UNL     1      -6.951   4.061 -33.415  1.00  0.00     0.011 A 
ENDBRANCH   9  24
TORSDOF 4
ENDMDL
MODEL 2
REMARK VINA RESULT:      -8.4      1.682      1.900
REMARK  4 active torsions:
REMARK  status: ('A' for Active; 'I' for Inactive)
REMARK    1  A    between atoms: C_9  and  C_10 
REMARK    2  A    between atoms: C_18  and  C_19 
REMARK       I    between atoms: C_19  and  N_20 
REMARK    3  A    between atoms: N_20  and  C_21 
REMARK    4  A    between atoms: C_24  and  O_25 
ROOT
HETATM    1  C   UNL     1      -9.626   2.257 -34.074  1.00  0.00     0.070 C 
HETATM    2  C   UNL     1      -8.774   3.386 -33.549  1.00  0.00     0.037 C 
HETATM    3  N   UNL     1      -9.314   4.661 -33.693  1.00  0.00    -0.192 N 
HETATM    4  C   UNL     1      -8.798   5.751 -33.093  1.00  0.00     0.725 A 
HETATM    5  N   UNL     1      -7.619   5.646 -32.407  1.00  0.00    -0.084 N 
HETATM    6  N   UNL     1      -7.288   6.814 -31.817  1.00  0.00    -0.149 NA
HETATM    7  C   UNL     1      -8.301   7.590 -32.223  1.00  0.00     0.275 A 
HETATM    8  N   UNL     1      -9.244   6.977 -33.008  1.00  0.00    -0.054 NA
HETATM    9  C   UNL     1      -6.839   4.408 -32.296  1.00  0.00     0.202 C 
HETATM   10  C   UNL     1      -7.588   3.230 -32.911  1.00  0.00     0.062 C 
HETATM   11  H   UNL     1     -10.239   4.738 -34.108  1.00  0.00     0.184 HD
ENDROOT
BRANCH  10  12
HETATM   12  C   UNL     1      -6.937   1.917 -32.648  1.00  0.00     0.256 C 
HETATM   13  N   UNL     1      -6.537   1.264 -33.793  1.00  0.00    -0.323 N 
HETATM   14  H   UNL     1      -6.731   1.717 -34.677  1.00  0.00     0.169 HD
HETATM   15  O   UNL     1      -6.760   1.574 -31.486  1.00  0.00    -0.267 OA
BRANCH  13  16
HETATM   16  C   UNL     1      -5.883   0.016 -33.878  1.00  0.00     0.035 A 
HETATM   17  C   UNL     1      -4.653  -0.263 -33.283  1.00  0.00     0.032 A 
HETATM   18  C   UNL     1      -4.076  -1.530 -33.416  1.00  0.00     0.039 A 
HETATM   19  C   UNL     1      -4.718  -2.541 -34.132  1.00  0.00     0.068 A 
HETATM   20  C   UNL     1      -5.946  -2.269 -34.727  1.00  0.00     0.039 A 
HETATM   21  C   UNL     1      -6.522  -0.996 -34.604  1.00  0.00     0.032 A 
BRANCH  19  22
HETATM   22  O   UNL     1      -4.045  -3.730 -34.174  1.00  0.00    -0.356 OA
HETATM   23  C   UNL     1      -4.822  -4.905 -34.363  1.00  0.00     0.210 C 
ENDBRANCH  19  22
ENDBRANCH  13  16
ENDBRANCH  10  12
BRANCH   9  24
HETATM   24  C   UNL     1      -5.453   4.594 -32.915  1.00  0.00    -0.026 A 
HETATM   25  C   UNL     1      -4.280   4.532 -32.140  1.00  0.00     0.035 A 
HETATM   26  C   UNL     1      -3.023   4.720 -32.728  1.00  0.00     0.056 A 
HETATM   27 CL   UNL     1      -1.638   4.627 -31.699  1.00  0.00    -0.083 Cl
HETATM   28  C   UNL     1      -2.924   4.980 -34.097  1.00  0.00     0.055 A 
HETATM   29 CL   UNL     1      -1.407   5.224 -34.888  1.00  0.00    -0.083 Cl
HETATM   30  C   UNL     1      -4.082   5.056 -34.873  1.00  0.00     0.026 A 
HETATM   31  C   UNL     1      -5.337   4.867 -34.287  1.00  0.00     0.011 A 
ENDBRANCH   9  24
TORSDOF 4
ENDMDL
MODEL 3
REMARK VINA RESULT:      -8.3      3.763      5.156
REMARK  4 active torsions:
REMARK  status: ('A' for Active; 'I' for Inactive)
REMARK    1  A    between atoms: C_9  and  C_10 
REMARK    2  A    between atoms: C_18  and  C_19 
REMARK       I    between atoms: C_19  and  N_20 
REMARK    3  A    between atoms: N_20  and  C_21 
REMARK    4  A    between atoms: C_24  and  O_25 
ROOT
HETATM    1  C   UNL     1      -7.819   3.156 -30.086  1.00  0.00     0.070 C 
HETATM    2  C   UNL     1      -8.676   3.644 -31.228  1.00  0.00     0.037 C 
HETATM    3  N   UNL     1      -9.043   4.986 -31.171  1.00  0.00    -0.192 N 
HETATM    4  C   UNL     1      -9.615   5.638 -32.201  1.00  0.00     0.725 A 
HETATM    5  N   UNL     1      -9.974   4.940 -33.322  1.00  0.00    -0.084 N 
HETATM    6  N   UNL     1     -10.467   5.759 -34.274  1.00  0.00    -0.149 NA
HETATM    7  C   UNL     1     -10.408   6.937 -33.640  1.00  0.00     0.275 A 
HETATM    8  N   UNL     1      -9.895   6.904 -32.368  1.00  0.00    -0.054 NA
HETATM    9  C   UNL     1      -9.803   3.491 -33.478  1.00  0.00     0.202 C 
HETATM   10  C   UNL     1      -9.039   2.897 -32.299  1.00  0.00     0.062 C 
HETATM   11  H   UNL     1      -8.691   5.539 -30.393  1.00  0.00     0.184 HD
ENDROOT
BRANCH  10  12
HETATM   12  C   UNL     1      -8.663   1.471 -32.500  1.00  0.00     0.256 C 
HETATM   13  N   UNL     1      -7.514   1.307 -33.244  1.00  0.00    -0.323 N 
HETATM   14  H   UNL     1      -7.059   2.144 -33.584  1.00  0.00     0.169 HD
HETATM   15  O   UNL     1      -9.337   0.605 -31.958  1.00  0.00    -0.267 OA
BRANCH  13  16
HETATM   16  C   UNL     1      -6.893   0.090 -33.595  1.00  0.00     0.035 A 
HETATM   17  C   UNL     1      -7.407  -0.808 -34.531  1.00  0.00     0.032 A 
HETATM   18  C   UNL     1      -6.724  -1.993 -34.822  1.00  0.00     0.039 A 
HETATM   19  C   UNL     1      -5.515  -2.299 -34.194  1.00  0.00     0.068 A 
HETATM   20  C   UNL     1      -4.997  -1.407 -33.259  1.00  0.00     0.039 A 
HETATM   21  C   UNL     1      -5.686  -0.223 -32.959  1.00  0.00     0.032 A 
BRANCH  19  22
HETATM   22  O   UNL     1      -4.954  -3.484 -34.578  1.00  0.00    -0.356 OA
HETATM   23  C   UNL     1      -5.844  -4.533 -34.936  1.00  0.00     0.210 C 
ENDBRANCH  19  22
ENDBRANCH  13  16
ENDBRANCH  10  12
BRANCH   9  24
HETATM   24  C   UNL     1     -11.159   2.814 -33.684  1.00  0.00    -0.026 A 
HETATM   25  C   UNL     1     -12.220   2.985 -32.777  1.00  0.00     0.035 A 
HETATM   26  C   UNL     1     -13.447   2.341 -32.979  1.00  0.00     0.056 A 
HETATM   27 CL   UNL     1     -14.693   2.610 -31.812  1.00  0.00    -0.083 Cl
HETATM   28  C   UNL     1     -13.626   1.512 -34.090  1.00  0.00     0.055 A 
HETATM   29 CL   UNL     1     -15.111   0.685 -34.402  1.00  0.00    -0.083 Cl
HETATM   30  C   UNL     1     -12.575   1.325 -34.990  1.00  0.00     0.026 A 
HETATM   31  C   UNL     1     -11.351   1.968 -34.789  1.00  0.00     0.011 A 
ENDBRANCH   9  24
TORSDOF 4
ENDMDL
MODEL 4
REMARK VINA RESULT:      -8.0      2.064      2.810
REMARK  4 active torsions:
REMARK  status: ('A' for Active; 'I' for Inactive)
REMARK    1  A    between atoms: C_9  and  C_10 
REMARK    2  A    between atoms: C_18  and  C_19 
REMARK       I    between atoms: C_19  and  N_20 
REMARK    3  A    between atoms: N_20  and  C_21 
REMARK    4  A    between atoms: C_24  and  O_25 
ROOT
HETATM    1  C   UNL     1      -9.272   4.026 -33.830  1.00  0.00     0.070 C 
HETATM    2  C   UNL     1      -8.378   4.208 -32.629  1.00  0.00     0.037 C 
HETATM    3  N   UNL     1      -8.798   5.165 -31.710  1.00  0.00    -0.192 N 
HETATM    4  C   UNL     1      -8.247   5.304 -30.488  1.00  0.00     0.725 A 
HETATM    5  N   UNL     1      -7.144   4.565 -30.160  1.00  0.00    -0.084 N 
HETATM    6  N   UNL     1      -6.770   4.782 -28.882  1.00  0.00    -0.149 NA
HETATM    7  C   UNL     1      -7.678   5.694 -28.511  1.00  0.00     0.275 A 
HETATM    8  N   UNL     1      -8.598   6.042 -29.467  1.00  0.00    -0.054 NA
HETATM    9  C   UNL     1      -6.480   3.628 -31.073  1.00  0.00     0.202 C 
HETATM   10  C   UNL     1      -7.267   3.474 -32.371  1.00  0.00     0.062 C 
HETATM   11  H   UNL     1      -9.675   5.645 -31.895  1.00  0.00     0.184 HD
ENDROOT
BRANCH  10  12
HETATM   12  C   UNL     1      -6.751   2.388 -33.247  1.00  0.00     0.256 C 
HETATM   13  N   UNL     1      -6.894   1.129 -32.704  1.00  0.00    -0.323 N 
HETATM   14  H   UNL     1      -7.310   1.067 -31.783  1.00  0.00     0.169 HD
HETATM   15  O   UNL     1      -6.322   2.683 -34.355  1.00  0.00    -0.267 OA
BRANCH  13  16
HETATM   16  C   UNL     1      -6.518  -0.099 -33.288  1.00  0.00     0.035 A 
HETATM   17  C   UNL     1      -7.402  -0.954 -33.945  1.00  0.00     0.032 A 
HETATM   18  C   UNL     1      -6.943  -2.154 -34.499  1.00  0.00     0.039 A 
HETATM   19  C   UNL     1      -5.598  -2.515 -34.416  1.00  0.00     0.068 A 
HETATM   20  C   UNL     1      -4.711  -1.666 -33.762  1.00  0.00     0.039 A 
HETATM   21  C   UNL     1      -5.170  -0.468 -33.197  1.00  0.00     0.032 A 
BRANCH  19  22
HETATM   22  O   UNL     1      -5.288  -3.709 -35.006  1.00  0.00    -0.356 OA
HETATM   23  C   UNL     1      -6.375  -4.555 -35.358  1.00  0.00     0.210 C 
ENDBRANCH  19  22
ENDBRANCH  13  16
ENDBRANCH  10  12
BRANCH   9  24
HETATM   24  C   UNL     1      -5.036   4.062 -31.326  1.00  0.00    -0.026 A 
HETATM   25  C   UNL     1      -4.706   5.391 -31.651  1.00  0.00     0.035 A 
HETATM   26  C   UNL     1      -3.377   5.760 -31.893  1.00  0.00     0.056 A 
HETATM   27 CL   UNL     1      -3.066   7.415 -32.285  1.00  0.00    -0.083 Cl
HETATM   28  C   UNL     1      -2.361   4.803 -31.821  1.00  0.00     0.055 A 
HETATM   29 CL   UNL     1      -0.702   5.187 -32.110  1.00  0.00    -0.083 Cl
HETATM   30  C   UNL     1      -2.679   3.479 -31.512  1.00  0.00     0.026 A 
HETATM   31  C   UNL     1      -4.005   3.110 -31.270  1.00  0.00     0.011 A 
ENDBRANCH   9  24
TORSDOF 4
ENDMDL
MODEL 5
REMARK VINA RESULT:      -7.7      3.519      6.151
REMARK  4 active torsions:
REMARK  status: ('A' for Active; 'I' for Inactive)
REMARK    1  A    between atoms: C_9  and  C_10 
REMARK    2  A    between atoms: C_18  and  C_19 
REMARK       I    between atoms: C_19  and  N_20 
REMARK    3  A    between atoms: N_20  and  C_21 
REMARK    4  A    between atoms: C_24  and  O_25 
ROOT
HETATM    1  C   UNL     1      -6.145  -0.627 -32.168  1.00  0.00     0.070 C 
HETATM    2  C   UNL     1      -5.711   0.812 -32.290  1.00  0.00     0.037 C 
HETATM    3  N   UNL     1      -4.534   1.142 -31.623  1.00  0.00    -0.192 N 
HETATM    4  C   UNL     1      -3.890   2.311 -31.800  1.00  0.00     0.725 A 
HETATM    5  N   UNL     1      -4.462   3.284 -32.571  1.00  0.00    -0.084 N 
HETATM    6  N   UNL     1      -3.651   4.356 -32.694  1.00  0.00    -0.149 NA
HETATM    7  C   UNL     1      -2.617   3.969 -31.936  1.00  0.00     0.275 A 
HETATM    8  N   UNL     1      -2.726   2.725 -31.369  1.00  0.00    -0.054 NA
HETATM    9  C   UNL     1      -5.775   3.158 -33.215  1.00  0.00     0.202 C 
HETATM   10  C   UNL     1      -6.341   1.752 -33.038  1.00  0.00     0.062 C 
HETATM   11  H   UNL     1      -4.045   0.398 -31.132  1.00  0.00     0.184 HD
ENDROOT
BRANCH  10  12
HETATM   12  C   UNL     1      -7.571   1.507 -33.839  1.00  0.00     0.256 C 
HETATM   13  N   UNL     1      -8.734   1.819 -33.168  1.00  0.00    -0.323 N 
HETATM   14  H   UNL     1      -8.644   2.159 -32.219  1.00  0.00     0.169 HD
HETATM   15  O   UNL     1      -7.450   1.129 -34.997  1.00  0.00    -0.267 OA
BRANCH  13  16
HETATM   16  C   UNL     1     -10.053   1.712 -33.656  1.00  0.00     0.035 A 
HETATM   17  C   UNL     1     -10.640   2.630 -34.526  1.00  0.00     0.032 A 
HETATM   18  C   UNL     1     -11.957   2.446 -34.964  1.00  0.00     0.039 A 
HETATM   19  C   UNL     1     -12.703   1.342 -34.549  1.00  0.00     0.068 A 
HETATM   20  C   UNL     1     -12.123   0.423 -33.681  1.00  0.00     0.039 A 
HETATM   21  C   UNL     1     -10.807   0.610 -33.234  1.00  0.00     0.032 A 
BRANCH  19  22
HETATM   22  O   UNL     1     -13.971   1.285 -35.059  1.00  0.00    -0.356 OA
HETATM   23  C   UNL     1     -14.965   0.675 -34.247  1.00  0.00     0.210 C 
ENDBRANCH  19  22
ENDBRANCH  13  16
ENDBRANCH  10  12
BRANCH   9  24
HETATM   24  C   UNL     1      -6.731   4.231 -32.694  1.00  0.00    -0.026 A 
HETATM   25  C   UNL     1      -7.014   4.370 -31.323  1.00  0.00     0.035 A 
HETATM   26  C   UNL     1      -7.906   5.351 -30.871  1.00  0.00     0.056 A 
HETATM   27 CL   UNL     1      -8.193   5.448 -29.170  1.00  0.00    -0.083 Cl
HETATM   28  C   UNL     1      -8.531   6.201 -31.787  1.00  0.00     0.055 A 
HETATM   29 CL   UNL     1      -9.643   7.432 -31.302  1.00  0.00    -0.083 Cl
HETATM   30  C   UNL     1      -8.267   6.064 -33.151  1.00  0.00     0.026 A 
HETATM   31  C   UNL     1      -7.377   5.085 -33.602  1.00  0.00     0.011 A 
ENDBRANCH   9  24
TORSDOF 4
ENDMDL
MODEL 6
REMARK VINA RESULT:      -7.7      3.243      5.933
REMARK  4 active torsions:
REMARK  status: ('A' for Active; 'I' for Inactive)
REMARK    1  A    between atoms: C_9  and  C_10 
REMARK    2  A    between atoms: C_18  and  C_19 
REMARK       I    between atoms: C_19  and  N_20 
REMARK    3  A    between atoms: N_20  and  C_21 
REMARK    4  A    between atoms: C_24  and  O_25 
ROOT
HETATM    1  C   UNL     1      -8.838   5.285 -30.969  1.00  0.00     0.070 C 
HETATM    2  C   UNL     1      -9.162   4.192 -31.957  1.00  0.00     0.037 C 
HETATM    3  N   UNL     1     -10.446   3.664 -31.867  1.00  0.00    -0.192 N 
HETATM    4  C   UNL     1     -10.974   2.846 -32.798  1.00  0.00     0.725 A 
HETATM    5  N   UNL     1     -10.187   2.402 -33.825  1.00  0.00    -0.084 N 
HETATM    6  N   UNL     1     -10.894   1.651 -34.696  1.00  0.00    -0.149 NA
HETATM    7  C   UNL     1     -12.096   1.656 -34.107  1.00  0.00     0.275 A 
HETATM    8  N   UNL     1     -12.185   2.375 -32.941  1.00  0.00    -0.054 NA
HETATM    9  C   UNL     1      -8.767   2.736 -33.978  1.00  0.00     0.202 C 
HETATM   10  C   UNL     1      -8.327   3.759 -32.934  1.00  0.00     0.062 C 
HETATM   11  H   UNL     1     -11.074   4.062 -31.173  1.00  0.00     0.184 HD
ENDROOT
BRANCH  10  12
HETATM   12  C   UNL     1      -6.955   4.284 -33.167  1.00  0.00     0.256 C 
HETATM   13  N   UNL     1      -6.070   3.977 -32.156  1.00  0.00    -0.323 N 
HETATM   14  H   UNL     1      -6.430   3.452 -31.369  1.00  0.00     0.169 HD
HETATM   15  O   UNL     1      -6.720   4.862 -34.220  1.00  0.00    -0.267 OA
BRANCH  13  16
HETATM   16  C   UNL     1      -4.703   4.317 -32.087  1.00  0.00     0.035 A 
HETATM   17  C   UNL     1      -3.710   3.719 -32.862  1.00  0.00     0.032 A 
HETATM   18  C   UNL     1      -2.375   4.120 -32.731  1.00  0.00     0.039 A 
HETATM   19  C   UNL     1      -2.012   5.127 -31.837  1.00  0.00     0.068 A 
HETATM   20  C   UNL     1      -2.999   5.728 -31.062  1.00  0.00     0.039 A 
HETATM   21  C   UNL     1      -4.335   5.321 -31.183  1.00  0.00     0.032 A 
BRANCH  19  22
HETATM   22  O   UNL     1      -0.678   5.423 -31.818  1.00  0.00    -0.356 OA
HETATM   23  C   UNL     1      -0.321   6.798 -31.846  1.00  0.00     0.210 C 
ENDBRANCH  19  22
ENDBRANCH  13  16
ENDBRANCH  10  12
BRANCH   9  24
HETATM   24  C   UNL     1      -7.912   1.468 -33.934  1.00  0.00    -0.026 A 
HETATM   25  C   UNL     1      -7.353   0.991 -32.735  1.00  0.00     0.035 A 
HETATM   26  C   UNL     1      -6.561  -0.164 -32.724  1.00  0.00     0.056 A 
HETATM   27 CL   UNL     1      -5.915  -0.675 -31.205  1.00  0.00    -0.083 Cl
HETATM   28  C   UNL     1      -6.313  -0.853 -33.914  1.00  0.00     0.055 A 
HETATM   29 CL   UNL     1      -5.345  -2.282 -33.975  1.00  0.00    -0.083 Cl
HETATM   30  C   UNL     1      -6.854  -0.380 -35.112  1.00  0.00     0.026 A 
HETATM   31  C   UNL     1      -7.644   0.772 -35.124  1.00  0.00     0.011 A 
ENDBRANCH   9  24
TORSDOF 4
ENDMDL
MODEL 7
REMARK VINA RESULT:      -7.5      3.197      4.551
REMARK  4 active torsions:
REMARK  status: ('A' for Active; 'I' for Inactive)
REMARK    1  A    between atoms: C_9  and  C_10 
REMARK    2  A    between atoms: C_18  and  C_19 
REMARK       I    between atoms: C_19  and  N_20 
REMARK    3  A    between atoms: N_20  and  C_21 
REMARK    4  A    between atoms: C_24  and  O_25 
ROOT
HETATM    1  C   UNL     1      -5.977   2.618 -30.145  1.00  0.00     0.070 C 
HETATM    2  C   UNL     1      -7.057   3.378 -30.873  1.00  0.00     0.037 C 
HETATM    3  N   UNL     1      -7.663   4.400 -30.150  1.00  0.00    -0.192 N 
HETATM    4  C   UNL     1      -8.483   5.312 -30.707  1.00  0.00     0.725 A 
HETATM    5  N   UNL     1      -8.849   5.174 -32.017  1.00  0.00    -0.084 N 
HETATM    6  N   UNL     1      -9.614   6.208 -32.425  1.00  0.00    -0.149 NA
HETATM    7  C   UNL     1      -9.697   6.915 -31.291  1.00  0.00     0.275 A 
HETATM    8  N   UNL     1      -9.020   6.398 -30.216  1.00  0.00    -0.054 NA
HETATM    9  C   UNL     1      -8.427   4.062 -32.877  1.00  0.00     0.202 C 
HETATM   10  C   UNL     1      -7.411   3.172 -32.166  1.00  0.00     0.062 C 
HETATM   11  H   UNL     1      -7.323   4.578 -29.208  1.00  0.00     0.184 HD
ENDROOT
BRANCH  10  12
HETATM   12  C   UNL     1      -6.799   2.150 -33.058  1.00  0.00     0.256 C 
HETATM   13  N   UNL     1      -6.972   0.858 -32.612  1.00  0.00    -0.323 N 
HETATM   14  H   UNL     1      -7.471   0.732 -31.740  1.00  0.00     0.169 HD
HETATM   15  O   UNL     1      -6.273   2.521 -34.099  1.00  0.00    -0.267 OA
BRANCH  13  16
HETATM   16  C   UNL     1      -6.525  -0.326 -33.235  1.00  0.00     0.035 A 
HETATM   17  C   UNL     1      -7.326  -1.135 -34.040  1.00  0.00     0.032 A 
HETATM   18  C   UNL     1      -6.800  -2.293 -34.623  1.00  0.00     0.039 A 
HETATM   19  C   UNL     1      -5.468  -2.657 -34.422  1.00  0.00     0.068 A 
HETATM   20  C   UNL     1      -4.664  -1.853 -33.621  1.00  0.00     0.039 A 
HETATM   21  C   UNL     1      -5.191  -0.697 -33.027  1.00  0.00     0.032 A 
BRANCH  19  22
HETATM   22  O   UNL     1      -5.087  -3.806 -35.057  1.00  0.00    -0.356 OA
HETATM   23  C   UNL     1      -6.113  -4.731 -35.388  1.00  0.00     0.210 C 
ENDBRANCH  19  22
ENDBRANCH  13  16
ENDBRANCH  10  12
BRANCH   9  24
HETATM   24  C   UNL     1      -9.643   3.271 -33.362  1.00  0.00    -0.026 A 
HETATM   25  C   UNL     1     -10.319   3.604 -34.550  1.00  0.00     0.035 A 
HETATM   26  C   UNL     1     -11.440   2.874 -34.964  1.00  0.00     0.056 A 
HETATM   27 CL   UNL     1     -12.207   3.355 -36.436  1.00  0.00    -0.083 Cl
HETATM   28  C   UNL     1     -11.902   1.805 -34.192  1.00  0.00     0.055 A 
HETATM   29 CL   UNL     1     -13.278   0.862 -34.642  1.00  0.00    -0.083 Cl
HETATM   30  C   UNL     1     -11.245   1.474 -33.005  1.00  0.00     0.026 A 
HETATM   31  C   UNL     1     -10.127   2.202 -32.591  1.00  0.00     0.011 A 
ENDBRANCH   9  24
TORSDOF 4
ENDMDL
MODEL 8
REMARK VINA RESULT:      -7.4      1.648      2.048
REMARK  4 active torsions:
REMARK  status: ('A' for Active; 'I' for Inactive)
REMARK    1  A    between atoms: C_9  and  C_10 
REMARK    2  A    between atoms: C_18  and  C_19 
REMARK       I    between atoms: C_19  and  N_20 
REMARK    3  A    between atoms: N_20  and  C_21 
REMARK    4  A    between atoms: C_24  and  O_25 
ROOT
HETATM    1  C   UNL     1     -11.997   1.296 -34.981  1.00  0.00     0.070 C 
HETATM    2  C   UNL     1     -11.510   2.269 -33.936  1.00  0.00     0.037 C 
HETATM    3  N   UNL     1     -12.241   3.448 -33.828  1.00  0.00    -0.192 N 
HETATM    4  C   UNL     1     -12.085   4.322 -32.815  1.00  0.00     0.725 A 
HETATM    5  N   UNL     1     -11.084   4.123 -31.904  1.00  0.00    -0.084 N 
HETATM    6  N   UNL     1     -11.118   5.052 -30.926  1.00  0.00    -0.149 NA
HETATM    7  C   UNL     1     -12.149   5.802 -31.334  1.00  0.00     0.275 A 
HETATM    8  N   UNL     1     -12.767   5.389 -32.487  1.00  0.00    -0.054 NA
HETATM    9  C   UNL     1     -10.123   3.016 -31.967  1.00  0.00     0.202 C 
HETATM   10  C   UNL     1     -10.481   2.039 -33.083  1.00  0.00     0.062 C 
HETATM   11  H   UNL     1     -13.053   3.558 -34.430  1.00  0.00     0.184 HD
ENDROOT
BRANCH  10  12
HETATM   12  C   UNL     1      -9.662   0.797 -33.062  1.00  0.00     0.256 C 
HETATM   13  N   UNL     1      -8.415   0.952 -33.628  1.00  0.00    -0.323 N 
HETATM   14  H   UNL     1      -8.188   1.863 -34.005  1.00  0.00     0.169 HD
HETATM   15  O   UNL     1     -10.119  -0.196 -32.511  1.00  0.00    -0.267 OA
BRANCH  13  16
HETATM   16  C   UNL     1      -7.407  -0.027 -33.749  1.00  0.00     0.035 A 
HETATM   17  C   UNL     1      -6.345  -0.168 -32.856  1.00  0.00     0.032 A 
HETATM   18  C   UNL     1      -5.388  -1.170 -33.049  1.00  0.00     0.039 A 
HETATM   19  C   UNL     1      -5.479  -2.052 -34.127  1.00  0.00     0.068 A 
HETATM   20  C   UNL     1      -6.537  -1.916 -35.021  1.00  0.00     0.039 A 
HETATM   21  C   UNL     1      -7.491  -0.907 -34.835  1.00  0.00     0.032 A 
BRANCH  19  22
HETATM   22  O   UNL     1      -4.482  -2.984 -34.190  1.00  0.00    -0.356 OA
HETATM   23  C   UNL     1      -4.858  -4.308 -34.544  1.00  0.00     0.210 C 
ENDBRANCH  19  22
ENDBRANCH  13  16
ENDBRANCH  10  12
BRANCH   9  24
HETATM   24  C   UNL     1      -8.698   3.554 -32.110  1.00  0.00    -0.026 A 
HETATM   25  C   UNL     1      -7.698   3.267 -31.164  1.00  0.00     0.035 A 
HETATM   26  C   UNL     1      -6.405   3.783 -31.309  1.00  0.00     0.056 A 
HETATM   27 CL   UNL     1      -5.241   3.378 -30.097  1.00  0.00    -0.083 Cl
HETATM   28  C   UNL     1      -6.097   4.600 -32.401  1.00  0.00     0.055 A 
HETATM   29 CL   UNL     1      -4.524   5.273 -32.643  1.00  0.00    -0.083 Cl
HETATM   30  C   UNL     1      -7.086   4.901 -33.340  1.00  0.00     0.026 A 
HETATM   31  C   UNL     1      -8.377   4.385 -33.195  1.00  0.00     0.011 A 
ENDBRANCH   9  24
TORSDOF 4
ENDMDL
MODEL 9
REMARK VINA RESULT:      -7.2      3.799      6.193
REMARK  4 active torsions:
REMARK  status: ('A' for Active; 'I' for Inactive)
REMARK    1  A    between atoms: C_9  and  C_10 
REMARK    2  A    between atoms: C_18  and  C_19 
REMARK       I    between atoms: C_19  and  N_20 
REMARK    3  A    between atoms: N_20  and  C_21 
REMARK    4  A    between atoms: C_24  and  O_25 
ROOT
HETATM    1  C   UNL     1      -3.836   1.262 -31.520  1.00  0.00     0.070 C 
HETATM    2  C   UNL     1      -3.951   2.627 -32.151  1.00  0.00     0.037 C 
HETATM    3  N   UNL     1      -2.747   3.216 -32.528  1.00  0.00    -0.192 N 
HETATM    4  C   UNL     1      -2.676   4.322 -33.294  1.00  0.00     0.725 A 
HETATM    5  N   UNL     1      -3.825   4.984 -33.627  1.00  0.00    -0.084 N 
HETATM    6  N   UNL     1      -3.573   6.023 -34.450  1.00  0.00    -0.149 NA
HETATM    7  C   UNL     1      -2.240   5.947 -34.542  1.00  0.00     0.275 A 
HETATM    8  N   UNL     1      -1.653   4.920 -33.847  1.00  0.00    -0.054 NA
HETATM    9  C   UNL     1      -5.164   4.586 -33.176  1.00  0.00     0.202 C 
HETATM   10  C   UNL     1      -5.119   3.260 -32.423  1.00  0.00     0.062 C 
HETATM   11  H   UNL     1      -1.894   2.683 -32.380  1.00  0.00     0.184 HD
ENDROOT
BRANCH  10  12
HETATM   12  C   UNL     1      -6.468   2.709 -32.119  1.00  0.00     0.256 C 
HETATM   13  N   UNL     1      -7.121   2.215 -33.228  1.00  0.00    -0.323 N 
HETATM   14  H   UNL     1      -6.642   2.285 -34.117  1.00  0.00     0.169 HD
HETATM   15  O   UNL     1      -6.840   2.683 -30.954  1.00  0.00    -0.267 OA
BRANCH  13  16
HETATM   16  C   UNL     1      -8.398   1.619 -33.269  1.00  0.00     0.035 A 
HETATM   17  C   UNL     1      -8.715   0.408 -32.655  1.00  0.00     0.032 A 
HETATM   18  C   UNL     1     -10.011  -0.112 -32.743  1.00  0.00     0.039 A 
HETATM   19  C   UNL     1     -11.013   0.572 -33.434  1.00  0.00     0.068 A 
HETATM   20  C   UNL     1     -10.704   1.782 -34.047  1.00  0.00     0.039 A 
HETATM   21  C   UNL     1      -9.403   2.299 -33.969  1.00  0.00     0.032 A 
BRANCH  19  22
HETATM   22  O   UNL     1     -12.232  -0.046 -33.433  1.00  0.00    -0.356 OA
HETATM   23  C   UNL     1     -13.356   0.744 -33.798  1.00  0.00     0.210 C 
ENDBRANCH  19  22
ENDBRANCH  13  16
ENDBRANCH  10  12
BRANCH   9  24
HETATM   24  C   UNL     1      -5.799   5.699 -32.342  1.00  0.00    -0.026 A 
HETATM   25  C   UNL     1      -6.998   6.326 -32.730  1.00  0.00     0.035 A 
HETATM   26  C   UNL     1      -7.551   7.353 -31.957  1.00  0.00     0.056 A 
HETATM   27 CL   UNL     1      -9.026   8.065 -32.511  1.00  0.00    -0.083 Cl
HETATM   28  C   UNL     1      -6.909   7.773 -30.789  1.00  0.00     0.055 A 
HETATM   29 CL   UNL     1      -7.533   9.036 -29.788  1.00  0.00    -0.083 Cl
HETATM   30  C   UNL     1      -5.712   7.166 -30.402  1.00  0.00     0.026 A 
HETATM   31  C   UNL     1      -5.159   6.140 -31.172  1.00  0.00     0.011 A 
ENDBRANCH   9  24
TORSDOF 4
ENDMDL
MODEL 10
REMARK VINA RESULT:      -7.1      4.471      6.359
REMARK  4 active torsions:
REMARK  status: ('A' for Active; 'I' for Inactive)
REMARK    1  A    between atoms: C_9  and  C_10 
REMARK    2  A    between atoms: C_18  and  C_19 
REMARK       I    between atoms: C_19  and  N_20 
REMARK    3  A    between atoms: N_20  and  C_21 
REMARK    4  A    between atoms: C_24  and  O_25 
ROOT
HETATM    1  C   UNL     1      -0.309   4.874 -30.436  1.00  0.00     0.070 C 
HETATM    2  C   UNL     1      -1.395   5.896 -30.664  1.00  0.00     0.037 C 
HETATM    3  N   UNL     1      -1.215   7.115 -30.017  1.00  0.00    -0.192 N 
HETATM    4  C   UNL     1      -1.963   8.205 -30.277  1.00  0.00     0.725 A 
HETATM    5  N   UNL     1      -3.032   8.100 -31.124  1.00  0.00    -0.084 N 
HETATM    6  N   UNL     1      -3.622   9.297 -31.322  1.00  0.00    -0.149 NA
HETATM    7  C   UNL     1      -2.872  10.075 -30.531  1.00  0.00     0.275 A 
HETATM    8  N   UNL     1      -1.848   9.443 -29.873  1.00  0.00    -0.054 NA
HETATM    9  C   UNL     1      -3.454   6.849 -31.764  1.00  0.00     0.202 C 
HETATM   10  C   UNL     1      -2.460   5.725 -31.485  1.00  0.00     0.062 C 
HETATM   11  H   UNL     1      -0.368   7.239 -29.468  1.00  0.00     0.184 HD
ENDROOT
BRANCH  10  12
HETATM   12  C   UNL     1      -2.730   4.492 -32.273  1.00  0.00     0.256 C 
HETATM   13  N   UNL     1      -3.560   3.599 -31.629  1.00  0.00    -0.323 N 
HETATM   14  H   UNL     1      -3.885   3.853 -30.704  1.00  0.00     0.169 HD
HETATM   15  O   UNL     1      -2.267   4.406 -33.402  1.00  0.00    -0.267 OA
BRANCH  13  16
HETATM   16  C   UNL     1      -4.011   2.354 -32.113  1.00  0.00     0.035 A 
HETATM   17  C   UNL     1      -3.333   1.150 -31.924  1.00  0.00     0.032 A 
HETATM   18  C   UNL     1      -3.855  -0.042 -32.438  1.00  0.00     0.039 A 
HETATM   19  C   UNL     1      -5.063  -0.056 -33.137  1.00  0.00     0.068 A 
HETATM   20  C   UNL     1      -5.744   1.142 -33.328  1.00  0.00     0.039 A 
HETATM   21  C   UNL     1      -5.218   2.340 -32.823  1.00  0.00     0.032 A 
BRANCH  19  22
HETATM   22  O   UNL     1      -5.457  -1.289 -33.576  1.00  0.00    -0.356 OA
HETATM   23  C   UNL     1      -4.431  -2.198 -33.950  1.00  0.00     0.210 C 
ENDBRANCH  19  22
ENDBRANCH  13  16
ENDBRANCH  10  12
BRANCH   9  24
HETATM   24  C   UNL     1      -4.874   6.480 -31.331  1.00  0.00    -0.026 A 
HETATM   25  C   UNL     1      -5.195   6.219 -29.987  1.00  0.00     0.035 A 
HETATM   26  C   UNL     1      -6.500   5.869 -29.618  1.00  0.00     0.056 A 
HETATM   27 CL   UNL     1      -6.802   5.566 -27.943  1.00  0.00    -0.083 Cl
HETATM   28  C   UNL     1      -7.498   5.767 -30.590  1.00  0.00     0.055 A 
HETATM   29 CL   UNL     1      -9.127   5.337 -30.207  1.00  0.00    -0.083 Cl
HETATM   30  C   UNL     1      -7.186   6.011 -31.929  1.00  0.00     0.026 A 
HETATM   31  C   UNL     1      -5.885   6.362 -32.298  1.00  0.00     0.011 A 
ENDBRANCH   9  24
TORSDOF 4
ENDMDL
