MODEL 1
REMARK VINA RESULT:      -9.2      0.000      0.000
REMARK  9 active torsions:
REMARK  status: ('A' for Active; 'I' for Inactive)
REMARK    1  A    between atoms: C_4  and  S_5 
REMARK    2  A    between atoms: S_5  and  C_6 
REMARK    3  A    between atoms: C_6  and  C_7 
REMARK       I    between atoms: C_7  and  N_8 
REMARK    4  A    between atoms: N_8  and  C_9 
REMARK    5  A    between atoms: C_9  and  C_10 
REMARK    6  A    between atoms: C_20  and  C_21 
REMARK    7  A    between atoms: C_26  and  C_27 
REMARK       I    between atoms: C_27  and  N_28 
REMARK    8  A    between atoms: N_28  and  C_29 
REMARK    9  A    between atoms: C_31  and  C_32 
ROOT
HETATM    1  C   UNL     1      -5.623   0.634 -29.411  1.00  0.00     0.069 C 
HETATM    2  C   UNL     1      -6.058   1.862 -30.177  1.00  0.00     0.019 C 
HETATM    3  N   UNL     1      -6.416   2.947 -29.397  1.00  0.00    -0.353 N 
HETATM    4  C   UNL     1      -6.694   4.223 -29.853  1.00  0.00     0.087 C 
HETATM    5  C   UNL     1      -6.840   4.397 -31.188  1.00  0.00     0.057 C 
HETATM    6  C   UNL     1      -7.300   5.695 -31.832  1.00  0.00     0.019 C 
HETATM    7  N   UNL     1      -7.679   6.772 -32.366  1.00  0.00    -0.096 N 
HETATM    8  C   UNL     1      -6.724   3.210 -32.157  1.00  0.00     0.129 C 
HETATM    9  C   UNL     1      -6.129   1.952 -31.527  1.00  0.00     0.048 C 
HETATM   10  H   UNL     1      -6.450   2.800 -28.393  1.00  0.00     0.166 HD
ENDROOT
BRANCH   4  11
HETATM   11  S   UNL     1      -6.921   5.566 -28.735  1.00  0.00    -0.102 SA
BRANCH  11  12
HETATM   12  C   UNL     1      -5.194   5.980 -28.337  1.00  0.00     0.183 C 
BRANCH  12  13
HETATM   13  C   UNL     1      -4.450   6.667 -29.466  1.00  0.00     0.227 C 
HETATM   14  N   UNL     1      -3.188   6.207 -29.754  1.00  0.00    -0.356 N 
HETATM   15  H   UNL     1      -2.785   5.464 -29.196  1.00  0.00     0.162 HD
HETATM   16  O   UNL     1      -4.935   7.650 -30.026  1.00  0.00    -0.273 OA
BRANCH  14  17
HETATM   17  C   UNL     1      -2.350   6.923 -30.689  1.00  0.00     0.161 C 
BRANCH  17  18
HETATM   18  C   UNL     1      -2.143   6.185 -31.984  1.00  0.00    -0.041 A 
HETATM   19  C   UNL     1      -2.730   4.930 -32.205  1.00  0.00     0.009 A 
HETATM   20  C   UNL     1      -2.587   4.286 -33.435  1.00  0.00     0.001 A 
HETATM   21  C   UNL     1      -1.867   4.893 -34.462  1.00  0.00     0.000 A 
HETATM   22  C   UNL     1      -1.289   6.144 -34.261  1.00  0.00     0.001 A 
HETATM   23  C   UNL     1      -1.428   6.788 -33.030  1.00  0.00     0.009 A 
ENDBRANCH  17  18
ENDBRANCH  14  17
ENDBRANCH  12  13
ENDBRANCH  11  12
ENDBRANCH   4  11
BRANCH   8  24
HETATM   24  C   UNL     1      -8.058   2.930 -32.814  1.00  0.00     0.066 A 
HETATM   25  O   UNL     1      -9.076   2.570 -31.978  1.00  0.00    -0.326 OA
HETATM   26  C   UNL     1     -10.170   2.361 -32.754  1.00  0.00     0.142 A 
HETATM   27  C   UNL     1      -9.878   2.606 -34.075  1.00  0.00     0.027 A 
HETATM   28  C   UNL     1      -8.513   2.981 -34.116  1.00  0.00     0.035 A 
ENDBRANCH   8  24
BRANCH   9  29
HETATM   29  C   UNL     1      -5.544   0.863 -32.394  1.00  0.00     0.255 C 
HETATM   30  N   UNL     1      -6.398  -0.159 -32.746  1.00  0.00    -0.323 N 
HETATM   31  H   UNL     1      -7.369  -0.108 -32.465  1.00  0.00     0.169 HD
HETATM   32  O   UNL     1      -4.388   0.963 -32.794  1.00  0.00    -0.268 OA
BRANCH  30  33
HETATM   33  C   UNL     1      -6.079  -1.328 -33.474  1.00  0.00     0.035 A 
HETATM   34  C   UNL     1      -5.033  -2.195 -33.152  1.00  0.00     0.045 A 
HETATM   35  C   UNL     1      -4.799  -3.360 -33.906  1.00  0.00     0.050 A 
HETATM   36  C   UNL     1      -5.616  -3.632 -35.013  1.00  0.00     0.016 A 
HETATM   37  C   UNL     1      -6.660  -2.773 -35.343  1.00  0.00     0.003 A 
HETATM   38  C   UNL     1      -6.896  -1.634 -34.572  1.00  0.00     0.029 A 
BRANCH  35  39
HETATM   39  C   UNL     1      -3.669  -4.290 -33.542  1.00  0.00     0.417 C 
HETATM   40  F   UNL     1      -2.830  -4.557 -34.583  1.00  0.00    -0.166 F 
HETATM   41  F   UNL     1      -2.874  -3.794 -32.551  1.00  0.00    -0.166 F 
HETATM   42  F   UNL     1      -4.110  -5.497 -33.095  1.00  0.00    -0.166 F 
ENDBRANCH  35  39
ENDBRANCH  30  33
ENDBRANCH   9  29
TORSDOF 9
ENDMDL
MODEL 2
REMARK VINA RESULT:      -9.1      2.806      4.779
REMARK  9 active torsions:
REMARK  status: ('A' for Active; 'I' for Inactive)
REMARK    1  A    between atoms: C_4  and  S_5 
REMARK    2  A    between atoms: S_5  and  C_6 
REMARK    3  A    between atoms: C_6  and  C_7 
REMARK       I    between atoms: C_7  and  N_8 
REMARK    4  A    between atoms: N_8  and  C_9 
REMARK    5  A    between atoms: C_9  and  C_10 
REMARK    6  A    between atoms: C_20  and  C_21 
REMARK    7  A    between atoms: C_26  and  C_27 
REMARK       I    between atoms: C_27  and  N_28 
REMARK    8  A    between atoms: N_28  and  C_29 
REMARK    9  A    between atoms: C_31  and  C_32 
ROOT
HETATM    1  C   UNL     1      -7.516   3.889 -30.786  1.00  0.00     0.069 C 
HETATM    2  C   UNL     1      -6.186   4.606 -30.752  1.00  0.00     0.019 C 
HETATM    3  N   UNL     1      -6.254   5.960 -30.474  1.00  0.00    -0.353 N 
HETATM    4  C   UNL     1      -5.180   6.798 -30.232  1.00  0.00     0.087 C 
HETATM    5  C   UNL     1      -3.939   6.322 -30.489  1.00  0.00     0.057 C 
HETATM    6  C   UNL     1      -2.675   7.164 -30.426  1.00  0.00     0.019 C 
HETATM    7  N   UNL     1      -1.625   7.861 -30.373  1.00  0.00    -0.096 N 
HETATM    8  C   UNL     1      -3.736   4.906 -31.053  1.00  0.00     0.129 C 
HETATM    9  C   UNL     1      -4.983   4.026 -30.981  1.00  0.00     0.048 C 
HETATM   10  H   UNL     1      -7.181   6.371 -30.416  1.00  0.00     0.166 HD
ENDROOT
BRANCH   4  11
HETATM   11  S   UNL     1      -5.418   8.453 -29.675  1.00  0.00    -0.102 SA
BRANCH  11  12
HETATM   12  C   UNL     1      -5.951   8.167 -27.958  1.00  0.00     0.183 C 
BRANCH  12  13
HETATM   13  C   UNL     1      -4.969   7.354 -27.137  1.00  0.00     0.227 C 
HETATM   14  N   UNL     1      -3.724   7.897 -26.932  1.00  0.00    -0.356 N 
HETATM   15  H   UNL     1      -3.489   8.787 -27.355  1.00  0.00     0.162 HD
HETATM   16  O   UNL     1      -5.262   6.220 -26.757  1.00  0.00    -0.273 OA
BRANCH  14  17
HETATM   17  C   UNL     1      -2.679   7.108 -26.318  1.00  0.00     0.161 C 
BRANCH  17  18
HETATM   18  C   UNL     1      -1.304   7.451 -26.826  1.00  0.00    -0.041 A 
HETATM   19  C   UNL     1      -0.420   6.451 -27.257  1.00  0.00     0.009 A 
HETATM   20  C   UNL     1       0.826   6.787 -27.788  1.00  0.00     0.001 A 
HETATM   21  C   UNL     1       1.199   8.124 -27.906  1.00  0.00     0.000 A 
HETATM   22  C   UNL     1       0.326   9.128 -27.491  1.00  0.00     0.001 A 
HETATM   23  C   UNL     1      -0.919   8.794 -26.957  1.00  0.00     0.009 A 
ENDBRANCH  17  18
ENDBRANCH  14  17
ENDBRANCH  12  13
ENDBRANCH  11  12
ENDBRANCH   4  11
BRANCH   8  24
HETATM   24  C   UNL     1      -3.178   4.972 -32.458  1.00  0.00     0.066 A 
HETATM   25  O   UNL     1      -3.990   5.532 -33.402  1.00  0.00    -0.326 OA
HETATM   26  C   UNL     1      -3.314   5.490 -34.580  1.00  0.00     0.142 A 
HETATM   27  C   UNL     1      -2.070   4.934 -34.401  1.00  0.00     0.027 A 
HETATM   28  C   UNL     1      -1.976   4.603 -33.028  1.00  0.00     0.035 A 
ENDBRANCH   8  24
BRANCH   9  29
HETATM   29  C   UNL     1      -4.867   2.524 -31.071  1.00  0.00     0.255 C 
HETATM   30  N   UNL     1      -4.651   2.005 -32.329  1.00  0.00    -0.323 N 
HETATM   31  H   UNL     1      -4.524   2.639 -33.107  1.00  0.00     0.169 HD
HETATM   32  O   UNL     1      -4.902   1.851 -30.045  1.00  0.00    -0.268 OA
BRANCH  30  33
HETATM   33  C   UNL     1      -4.588   0.640 -32.693  1.00  0.00     0.035 A 
HETATM   34  C   UNL     1      -5.547  -0.011 -33.472  1.00  0.00     0.045 A 
HETATM   35  C   UNL     1      -5.397  -1.366 -33.822  1.00  0.00     0.050 A 
HETATM   36  C   UNL     1      -4.280  -2.073 -33.353  1.00  0.00     0.016 A 
HETATM   37  C   UNL     1      -3.321  -1.432 -32.574  1.00  0.00     0.003 A 
HETATM   38  C   UNL     1      -3.470  -0.082 -32.255  1.00  0.00     0.029 A 
BRANCH  35  39
HETATM   39  C   UNL     1      -6.438  -2.054 -34.669  1.00  0.00     0.417 C 
HETATM   40  F   UNL     1      -7.379  -2.718 -33.940  1.00  0.00    -0.166 F 
HETATM   41  F   UNL     1      -7.133  -1.188 -35.461  1.00  0.00    -0.166 F 
HETATM   42  F   UNL     1      -5.897  -2.975 -35.513  1.00  0.00    -0.166 F 
ENDBRANCH  35  39
ENDBRANCH  30  33
ENDBRANCH   9  29
TORSDOF 9
ENDMDL
MODEL 3
REMARK VINA RESULT:      -9.1      2.796      4.681
REMARK  9 active torsions:
REMARK  status: ('A' for Active; 'I' for Inactive)
REMARK    1  A    between atoms: C_4  and  S_5 
REMARK    2  A    between atoms: S_5  and  C_6 
REMARK    3  A    between atoms: C_6  and  C_7 
REMARK       I    between atoms: C_7  and  N_8 
REMARK    4  A    between atoms: N_8  and  C_9 
REMARK    5  A    between atoms: C_9  and  C_10 
REMARK    6  A    between atoms: C_20  and  C_21 
REMARK    7  A    between atoms: C_26  and  C_27 
REMARK       I    between atoms: C_27  and  N_28 
REMARK    8  A    between atoms: N_28  and  C_29 
REMARK    9  A    between atoms: C_31  and  C_32 
ROOT
HETATM    1  C   UNL     1      -7.980   4.095 -31.142  1.00  0.00     0.069 C 
HETATM    2  C   UNL     1      -6.539   4.541 -31.052  1.00  0.00     0.019 C 
HETATM    3  N   UNL     1      -6.344   5.801 -30.515  1.00  0.00    -0.353 N 
HETATM    4  C   UNL     1      -5.126   6.367 -30.183  1.00  0.00     0.087 C 
HETATM    5  C   UNL     1      -4.003   5.738 -30.604  1.00  0.00     0.057 C 
HETATM    6  C   UNL     1      -2.602   6.309 -30.458  1.00  0.00     0.019 C 
HETATM    7  N   UNL     1      -1.439   6.782 -30.337  1.00  0.00    -0.096 N 
HETATM    8  C   UNL     1      -4.084   4.452 -31.442  1.00  0.00     0.129 C 
HETATM    9  C   UNL     1      -5.472   3.813 -31.464  1.00  0.00     0.048 C 
HETATM   10  H   UNL     1      -7.175   6.351 -30.321  1.00  0.00     0.166 HD
ENDROOT
BRANCH   4  11
HETATM   11  S   UNL     1      -5.034   7.891 -29.303  1.00  0.00    -0.102 SA
BRANCH  11  12
HETATM   12  C   UNL     1      -5.538   7.359 -27.637  1.00  0.00     0.183 C 
BRANCH  12  13
HETATM   13  C   UNL     1      -4.417   7.388 -26.616  1.00  0.00     0.227 C 
HETATM   14  N   UNL     1      -3.274   6.692 -26.923  1.00  0.00    -0.356 N 
HETATM   15  H   UNL     1      -3.224   6.162 -27.785  1.00  0.00     0.162 HD
HETATM   16  O   UNL     1      -4.579   7.939 -25.527  1.00  0.00    -0.273 OA
BRANCH  14  17
HETATM   17  C   UNL     1      -2.238   6.522 -25.929  1.00  0.00     0.161 C 
BRANCH  17  18
HETATM   18  C   UNL     1      -0.965   7.249 -26.270  1.00  0.00    -0.041 A 
HETATM   19  C   UNL     1      -0.714   8.540 -25.782  1.00  0.00     0.009 A 
HETATM   20  C   UNL     1       0.498   9.177 -26.051  1.00  0.00     0.001 A 
HETATM   21  C   UNL     1       1.479   8.528 -26.798  1.00  0.00     0.000 A 
HETATM   22  C   UNL     1       1.248   7.241 -27.280  1.00  0.00     0.001 A 
HETATM   23  C   UNL     1       0.034   6.604 -27.016  1.00  0.00     0.009 A 
ENDBRANCH  17  18
ENDBRANCH  14  17
ENDBRANCH  12  13
ENDBRANCH  11  12
ENDBRANCH   4  11
BRANCH   8  24
HETATM   24  C   UNL     1      -3.559   4.698 -32.840  1.00  0.00     0.066 A 
HETATM   25  O   UNL     1      -4.477   5.111 -33.763  1.00  0.00    -0.326 OA
HETATM   26  C   UNL     1      -3.814   5.268 -34.937  1.00  0.00     0.142 A 
HETATM   27  C   UNL     1      -2.478   4.986 -34.777  1.00  0.00     0.027 A 
HETATM   28  C   UNL     1      -2.309   4.623 -33.419  1.00  0.00     0.035 A 
ENDBRANCH   8  24
BRANCH   9  29
HETATM   29  C   UNL     1      -5.642   2.364 -31.850  1.00  0.00     0.255 C 
HETATM   30  N   UNL     1      -5.855   2.112 -33.187  1.00  0.00    -0.323 N 
HETATM   31  H   UNL     1      -5.830   2.881 -33.843  1.00  0.00     0.169 HD
HETATM   32  O   UNL     1      -5.522   1.491 -30.994  1.00  0.00    -0.268 OA
BRANCH  30  33
HETATM   33  C   UNL     1      -6.125   0.861 -33.790  1.00  0.00     0.035 A 
HETATM   34  C   UNL     1      -5.307  -0.264 -33.666  1.00  0.00     0.045 A 
HETATM   35  C   UNL     1      -5.661  -1.486 -34.267  1.00  0.00     0.050 A 
HETATM   36  C   UNL     1      -6.839  -1.559 -35.025  1.00  0.00     0.016 A 
HETATM   37  C   UNL     1      -7.660  -0.442 -35.155  1.00  0.00     0.003 A 
HETATM   38  C   UNL     1      -7.309   0.757 -34.533  1.00  0.00     0.029 A 
BRANCH  35  39
HETATM   39  C   UNL     1      -4.771  -2.695 -34.121  1.00  0.00     0.417 C 
HETATM   40  F   UNL     1      -4.092  -2.729 -32.940  1.00  0.00    -0.166 F 
HETATM   41  F   UNL     1      -5.460  -3.870 -34.181  1.00  0.00    -0.166 F 
HETATM   42  F   UNL     1      -3.827  -2.768 -35.100  1.00  0.00    -0.166 F 
ENDBRANCH  35  39
ENDBRANCH  30  33
ENDBRANCH   9  29
TORSDOF 9
ENDMDL
MODEL 4
REMARK VINA RESULT:      -8.9      2.766      6.266
REMARK  9 active torsions:
REMARK  status: ('A' for Active; 'I' for Inactive)
REMARK    1  A    between atoms: C_4  and  S_5 
REMARK    2  A    between atoms: S_5  and  C_6 
REMARK    3  A    between atoms: C_6  and  C_7 
REMARK       I    between atoms: C_7  and  N_8 
REMARK    4  A    between atoms: N_8  and  C_9 
REMARK    5  A    between atoms: C_9  and  C_10 
REMARK    6  A    between atoms: C_20  and  C_21 
REMARK    7  A    between atoms: C_26  and  C_27 
REMARK       I    between atoms: C_27  and  N_28 
REMARK    8  A    between atoms: N_28  and  C_29 
REMARK    9  A    between atoms: C_31  and  C_32 
ROOT
HETATM    1  C   UNL     1     -10.005   1.206 -32.975  1.00  0.00     0.069 C 
HETATM    2  C   UNL     1      -9.218   2.288 -32.271  1.00  0.00     0.019 C 
HETATM    3  N   UNL     1      -9.916   3.456 -32.020  1.00  0.00    -0.353 N 
HETATM    4  C   UNL     1      -9.473   4.523 -31.258  1.00  0.00     0.087 C 
HETATM    5  C   UNL     1      -8.171   4.536 -30.889  1.00  0.00     0.057 C 
HETATM    6  C   UNL     1      -7.496   5.705 -30.189  1.00  0.00     0.019 C 
HETATM    7  N   UNL     1      -6.937   6.674 -29.607  1.00  0.00    -0.096 N 
HETATM    8  C   UNL     1      -7.213   3.415 -31.326  1.00  0.00     0.129 C 
HETATM    9  C   UNL     1      -7.918   2.188 -31.900  1.00  0.00     0.048 C 
HETATM   10  H   UNL     1     -10.850   3.525 -32.410  1.00  0.00     0.166 HD
ENDROOT
BRANCH   4  11
HETATM   11  S   UNL     1     -10.548   5.854 -30.836  1.00  0.00    -0.102 SA
BRANCH  11  12
HETATM   12  C   UNL     1     -10.391   6.906 -32.313  1.00  0.00     0.183 C 
BRANCH  12  13
HETATM   13  C   UNL     1     -10.669   6.183 -33.616  1.00  0.00     0.227 C 
HETATM   14  N   UNL     1     -11.971   5.822 -33.866  1.00  0.00    -0.356 N 
HETATM   15  H   UNL     1     -12.686   6.012 -33.175  1.00  0.00     0.162 HD
HETATM   16  O   UNL     1      -9.743   5.861 -34.361  1.00  0.00    -0.273 OA
BRANCH  14  17
HETATM   17  C   UNL     1     -12.286   4.974 -34.994  1.00  0.00     0.161 C 
BRANCH  17  18
HETATM   18  C   UNL     1     -12.806   3.621 -34.589  1.00  0.00    -0.041 A 
HETATM   19  C   UNL     1     -12.573   2.488 -35.382  1.00  0.00     0.009 A 
HETATM   20  C   UNL     1     -13.003   1.228 -34.963  1.00  0.00     0.001 A 
HETATM   21  C   UNL     1     -13.658   1.083 -33.741  1.00  0.00     0.000 A 
HETATM   22  C   UNL     1     -13.887   2.199 -32.938  1.00  0.00     0.001 A 
HETATM   23  C   UNL     1     -13.461   3.460 -33.358  1.00  0.00     0.009 A 
ENDBRANCH  17  18
ENDBRANCH  14  17
ENDBRANCH  12  13
ENDBRANCH  11  12
ENDBRANCH   4  11
BRANCH   8  24
HETATM   24  C   UNL     1      -6.166   3.955 -32.275  1.00  0.00     0.066 A 
HETATM   25  O   UNL     1      -6.630   4.487 -33.443  1.00  0.00    -0.326 OA
HETATM   26  C   UNL     1      -5.545   4.903 -34.147  1.00  0.00     0.142 A 
HETATM   27  C   UNL     1      -4.392   4.670 -33.436  1.00  0.00     0.027 A 
HETATM   28  C   UNL     1      -4.791   4.061 -32.222  1.00  0.00     0.035 A 
ENDBRANCH   8  24
BRANCH   9  29
HETATM   29  C   UNL     1      -7.207   0.858 -31.969  1.00  0.00     0.255 C 
HETATM   30  N   UNL     1      -6.618   0.545 -33.175  1.00  0.00    -0.323 N 
HETATM   31  H   UNL     1      -6.635   1.227 -33.922  1.00  0.00     0.169 HD
HETATM   32  O   UNL     1      -7.128   0.161 -30.962  1.00  0.00    -0.268 OA
BRANCH  30  33
HETATM   33  C   UNL     1      -5.968  -0.662 -33.522  1.00  0.00     0.035 A 
HETATM   34  C   UNL     1      -6.624  -1.798 -34.001  1.00  0.00     0.045 A 
HETATM   35  C   UNL     1      -5.904  -2.952 -34.360  1.00  0.00     0.050 A 
HETATM   36  C   UNL     1      -4.510  -2.964 -34.203  1.00  0.00     0.016 A 
HETATM   37  C   UNL     1      -3.848  -1.836 -33.725  1.00  0.00     0.003 A 
HETATM   38  C   UNL     1      -4.573  -0.690 -33.397  1.00  0.00     0.029 A 
BRANCH  35  39
HETATM   39  C   UNL     1      -6.625  -4.170 -34.880  1.00  0.00     0.417 C 
HETATM   40  F   UNL     1      -7.625  -4.601 -34.061  1.00  0.00    -0.166 F 
HETATM   41  F   UNL     1      -7.211  -3.960 -36.093  1.00  0.00    -0.166 F 
HETATM   42  F   UNL     1      -5.793  -5.235 -35.051  1.00  0.00    -0.166 F 
ENDBRANCH  35  39
ENDBRANCH  30  33
ENDBRANCH   9  29
TORSDOF 9
ENDMDL
MODEL 5
REMARK VINA RESULT:      -8.8      4.410      8.656
REMARK  9 active torsions:
REMARK  status: ('A' for Active; 'I' for Inactive)
REMARK    1  A    between atoms: C_4  and  S_5 
REMARK    2  A    between atoms: S_5  and  C_6 
REMARK    3  A    between atoms: C_6  and  C_7 
REMARK       I    between atoms: C_7  and  N_8 
REMARK    4  A    between atoms: N_8  and  C_9 
REMARK    5  A    between atoms: C_9  and  C_10 
REMARK    6  A    between atoms: C_20  and  C_21 
REMARK    7  A    between atoms: C_26  and  C_27 
REMARK       I    between atoms: C_27  and  N_28 
REMARK    8  A    between atoms: N_28  and  C_29 
REMARK    9  A    between atoms: C_31  and  C_32 
ROOT
HETATM    1  C   UNL     1      -4.299   4.821 -34.754  1.00  0.00     0.069 C 
HETATM    2  C   UNL     1      -5.316   4.475 -33.691  1.00  0.00     0.019 C 
HETATM    3  N   UNL     1      -6.589   4.200 -34.160  1.00  0.00    -0.353 N 
HETATM    4  C   UNL     1      -7.645   3.708 -33.413  1.00  0.00     0.087 C 
HETATM    5  C   UNL     1      -7.507   3.685 -32.066  1.00  0.00     0.057 C 
HETATM    6  C   UNL     1      -8.626   3.325 -31.103  1.00  0.00     0.019 C 
HETATM    7  N   UNL     1      -9.554   3.025 -30.303  1.00  0.00    -0.096 N 
HETATM    8  C   UNL     1      -6.229   4.210 -31.393  1.00  0.00     0.129 C 
HETATM    9  C   UNL     1      -5.067   4.435 -32.359  1.00  0.00     0.048 C 
HETATM   10  H   UNL     1      -6.754   4.346 -35.151  1.00  0.00     0.166 HD
ENDROOT
BRANCH   4  11
HETATM   11  S   UNL     1      -9.146   3.194 -34.179  1.00  0.00    -0.102 SA
BRANCH  11  12
HETATM   12  C   UNL     1      -9.030   1.387 -33.989  1.00  0.00     0.183 C 
BRANCH  12  13
HETATM   13  C   UNL     1      -7.704   0.805 -34.441  1.00  0.00     0.227 C 
HETATM   14  N   UNL     1      -7.090  -0.084 -33.593  1.00  0.00    -0.356 N 
HETATM   15  H   UNL     1      -7.511  -0.294 -32.695  1.00  0.00     0.162 HD
HETATM   16  O   UNL     1      -7.174   1.194 -35.482  1.00  0.00    -0.273 OA
BRANCH  14  17
HETATM   17  C   UNL     1      -5.746  -0.540 -33.867  1.00  0.00     0.161 C 
BRANCH  17  18
HETATM   18  C   UNL     1      -5.665  -2.021 -34.122  1.00  0.00    -0.041 A 
HETATM   19  C   UNL     1      -6.773  -2.736 -34.597  1.00  0.00     0.009 A 
HETATM   20  C   UNL     1      -6.666  -4.096 -34.894  1.00  0.00     0.001 A 
HETATM   21  C   UNL     1      -5.448  -4.753 -34.732  1.00  0.00     0.000 A 
HETATM   22  C   UNL     1      -4.335  -4.052 -34.272  1.00  0.00     0.001 A 
HETATM   23  C   UNL     1      -4.442  -2.693 -33.971  1.00  0.00     0.009 A 
ENDBRANCH  17  18
ENDBRANCH  14  17
ENDBRANCH  12  13
ENDBRANCH  11  12
ENDBRANCH   4  11
BRANCH   8  24
HETATM   24  C   UNL     1      -6.531   5.451 -30.582  1.00  0.00     0.066 A 
HETATM   25  O   UNL     1      -6.340   5.350 -29.233  1.00  0.00    -0.326 OA
HETATM   26  C   UNL     1      -6.667   6.553 -28.696  1.00  0.00     0.142 A 
HETATM   27  C   UNL     1      -7.041   7.436 -29.682  1.00  0.00     0.027 A 
HETATM   28  C   UNL     1      -6.948   6.727 -30.904  1.00  0.00     0.035 A 
ENDBRANCH   8  24
BRANCH   9  29
HETATM   29  C   UNL     1      -3.650   4.520 -31.847  1.00  0.00     0.255 C 
HETATM   30  N   UNL     1      -3.181   5.784 -31.561  1.00  0.00    -0.323 N 
HETATM   31  H   UNL     1      -3.808   6.572 -31.648  1.00  0.00     0.169 HD
HETATM   32  O   UNL     1      -3.015   3.488 -31.649  1.00  0.00    -0.268 OA
BRANCH  30  33
HETATM   33  C   UNL     1      -1.875   6.139 -31.151  1.00  0.00     0.035 A 
HETATM   34  C   UNL     1      -1.587   6.896 -30.014  1.00  0.00     0.045 A 
HETATM   35  C   UNL     1      -0.257   7.180 -29.650  1.00  0.00     0.050 A 
HETATM   36  C   UNL     1       0.787   6.717 -30.464  1.00  0.00     0.016 A 
HETATM   37  C   UNL     1       0.508   5.964 -31.601  1.00  0.00     0.003 A 
HETATM   38  C   UNL     1      -0.814   5.669 -31.936  1.00  0.00     0.029 A 
BRANCH  35  39
HETATM   39  C   UNL     1       0.039   7.994 -28.416  1.00  0.00     0.417 C 
HETATM   40  F   UNL     1      -0.826   9.031 -28.229  1.00  0.00    -0.166 F 
HETATM   41  F   UNL     1      -0.021   7.257 -27.269  1.00  0.00    -0.166 F 
HETATM   42  F   UNL     1       1.285   8.542 -28.440  1.00  0.00    -0.166 F 
ENDBRANCH  35  39
ENDBRANCH  30  33
ENDBRANCH   9  29
TORSDOF 9
ENDMDL
MODEL 6
REMARK VINA RESULT:      -8.8      4.842      6.978
REMARK  9 active torsions:
REMARK  status: ('A' for Active; 'I' for Inactive)
REMARK    1  A    between atoms: C_4  and  S_5 
REMARK    2  A    between atoms: S_5  and  C_6 
REMARK    3  A    between atoms: C_6  and  C_7 
REMARK       I    between atoms: C_7  and  N_8 
REMARK    4  A    between atoms: N_8  and  C_9 
REMARK    5  A    between atoms: C_9  and  C_10 
REMARK    6  A    between atoms: C_20  and  C_21 
REMARK    7  A    between atoms: C_26  and  C_27 
REMARK       I    between atoms: C_27  and  N_28 
REMARK    8  A    between atoms: N_28  and  C_29 
REMARK    9  A    between atoms: C_31  and  C_32 
ROOT
HETATM    1  C   UNL     1      -7.919   4.916 -33.466  1.00  0.00     0.069 C 
HETATM    2  C   UNL     1      -7.041   3.753 -33.065  1.00  0.00     0.019 C 
HETATM    3  N   UNL     1      -5.680   3.969 -33.196  1.00  0.00    -0.353 N 
HETATM    4  C   UNL     1      -4.674   3.130 -32.751  1.00  0.00     0.087 C 
HETATM    5  C   UNL     1      -5.026   1.890 -32.336  1.00  0.00     0.057 C 
HETATM    6  C   UNL     1      -4.030   0.801 -31.968  1.00  0.00     0.019 C 
HETATM    7  N   UNL     1      -3.205  -0.102 -31.662  1.00  0.00    -0.096 N 
HETATM    8  C   UNL     1      -6.491   1.426 -32.382  1.00  0.00     0.129 C 
HETATM    9  C   UNL     1      -7.491   2.557 -32.615  1.00  0.00     0.048 C 
HETATM   10  H   UNL     1      -5.394   4.838 -33.636  1.00  0.00     0.166 HD
ENDROOT
BRANCH   4  11
HETATM   11  S   UNL     1      -2.985   3.628 -32.786  1.00  0.00    -0.102 SA
BRANCH  11  12
HETATM   12  C   UNL     1      -3.077   5.091 -33.865  1.00  0.00     0.183 C 
BRANCH  12  13
HETATM   13  C   UNL     1      -2.052   6.161 -33.539  1.00  0.00     0.227 C 
HETATM   14  N   UNL     1      -1.224   5.929 -32.468  1.00  0.00    -0.356 N 
HETATM   15  H   UNL     1      -1.340   5.087 -31.917  1.00  0.00     0.162 HD
HETATM   16  O   UNL     1      -2.041   7.224 -34.161  1.00  0.00    -0.273 OA
BRANCH  14  17
HETATM   17  C   UNL     1      -0.350   6.975 -31.986  1.00  0.00     0.161 C 
BRANCH  17  18
HETATM   18  C   UNL     1       0.020   6.814 -30.536  1.00  0.00    -0.041 A 
HETATM   19  C   UNL     1       0.402   5.567 -30.019  1.00  0.00     0.009 A 
HETATM   20  C   UNL     1       0.807   5.444 -28.689  1.00  0.00     0.001 A 
HETATM   21  C   UNL     1       0.848   6.567 -27.864  1.00  0.00     0.000 A 
HETATM   22  C   UNL     1       0.481   7.813 -28.367  1.00  0.00     0.001 A 
HETATM   23  C   UNL     1       0.072   7.937 -29.696  1.00  0.00     0.009 A 
ENDBRANCH  17  18
ENDBRANCH  14  17
ENDBRANCH  12  13
ENDBRANCH  11  12
ENDBRANCH   4  11
BRANCH   8  24
HETATM   24  C   UNL     1      -6.661   0.312 -33.392  1.00  0.00     0.066 A 
HETATM   25  O   UNL     1      -6.740  -0.953 -32.884  1.00  0.00    -0.326 OA
HETATM   26  C   UNL     1      -6.883  -1.795 -33.940  1.00  0.00     0.142 A 
HETATM   27  C   UNL     1      -6.923  -1.088 -35.118  1.00  0.00     0.027 A 
HETATM   28  C   UNL     1      -6.786   0.277 -34.766  1.00  0.00     0.035 A 
ENDBRANCH   8  24
BRANCH   9  29
HETATM   29  C   UNL     1      -8.948   2.376 -32.262  1.00  0.00     0.255 C 
HETATM   30  N   UNL     1      -9.799   2.107 -33.312  1.00  0.00    -0.323 N 
HETATM   31  H   UNL     1      -9.413   1.988 -34.239  1.00  0.00     0.169 HD
HETATM   32  O   UNL     1      -9.294   2.408 -31.085  1.00  0.00    -0.268 OA
BRANCH  30  33
HETATM   33  C   UNL     1     -11.206   1.979 -33.261  1.00  0.00     0.035 A 
HETATM   34  C   UNL     1     -12.073   2.985 -32.830  1.00  0.00     0.045 A 
HETATM   35  C   UNL     1     -13.467   2.795 -32.842  1.00  0.00     0.050 A 
HETATM   36  C   UNL     1     -13.985   1.562 -33.265  1.00  0.00     0.016 A 
HETATM   37  C   UNL     1     -13.128   0.552 -33.695  1.00  0.00     0.003 A 
HETATM   38  C   UNL     1     -11.749   0.764 -33.701  1.00  0.00     0.029 A 
BRANCH  35  39
HETATM   39  C   UNL     1     -14.391   3.893 -32.379  1.00  0.00     0.417 C 
HETATM   40  F   UNL     1     -15.704   3.529 -32.366  1.00  0.00    -0.166 F 
HETATM   41  F   UNL     1     -14.117   4.316 -31.111  1.00  0.00    -0.166 F 
HETATM   42  F   UNL     1     -14.316   5.003 -33.164  1.00  0.00    -0.166 F 
ENDBRANCH  35  39
ENDBRANCH  30  33
ENDBRANCH   9  29
TORSDOF 9
ENDMDL
MODEL 7
REMARK VINA RESULT:      -8.7      2.962      4.478
REMARK  9 active torsions:
REMARK  status: ('A' for Active; 'I' for Inactive)
REMARK    1  A    between atoms: C_4  and  S_5 
REMARK    2  A    between atoms: S_5  and  C_6 
REMARK    3  A    between atoms: C_6  and  C_7 
REMARK       I    between atoms: C_7  and  N_8 
REMARK    4  A    between atoms: N_8  and  C_9 
REMARK    5  A    between atoms: C_9  and  C_10 
REMARK    6  A    between atoms: C_20  and  C_21 
REMARK    7  A    between atoms: C_26  and  C_27 
REMARK       I    between atoms: C_27  and  N_28 
REMARK    8  A    between atoms: N_28  and  C_29 
REMARK    9  A    between atoms: C_31  and  C_32 
ROOT
HETATM    1  C   UNL     1      -9.226   2.977 -30.413  1.00  0.00     0.069 C 
HETATM    2  C   UNL     1     -10.011   3.342 -31.652  1.00  0.00     0.019 C 
HETATM    3  N   UNL     1     -10.588   4.600 -31.635  1.00  0.00    -0.353 N 
HETATM    4  C   UNL     1     -11.215   5.224 -32.698  1.00  0.00     0.087 C 
HETATM    5  C   UNL     1     -11.483   4.479 -33.797  1.00  0.00     0.057 C 
HETATM    6  C   UNL     1     -12.302   4.971 -34.979  1.00  0.00     0.019 C 
HETATM    7  N   UNL     1     -12.980   5.379 -35.961  1.00  0.00    -0.096 N 
HETATM    8  C   UNL     1     -11.124   2.985 -33.847  1.00  0.00     0.129 C 
HETATM    9  C   UNL     1     -10.186   2.536 -32.727  1.00  0.00     0.048 C 
HETATM   10  H   UNL     1     -10.520   5.124 -30.768  1.00  0.00     0.166 HD
ENDROOT
BRANCH   4  11
HETATM   11  S   UNL     1     -11.711   6.912 -32.605  1.00  0.00    -0.102 SA
BRANCH  11  12
HETATM   12  C   UNL     1     -10.202   7.749 -33.183  1.00  0.00     0.183 C 
BRANCH  12  13
HETATM   13  C   UNL     1      -9.020   7.603 -32.244  1.00  0.00     0.227 C 
HETATM   14  N   UNL     1      -7.767   7.619 -32.808  1.00  0.00    -0.356 N 
HETATM   15  H   UNL     1      -7.670   7.691 -33.814  1.00  0.00     0.162 HD
HETATM   16  O   UNL     1      -9.198   7.387 -31.045  1.00  0.00    -0.273 OA
BRANCH  14  17
HETATM   17  C   UNL     1      -6.606   7.304 -32.007  1.00  0.00     0.161 C 
BRANCH  17  18
HETATM   18  C   UNL     1      -6.043   5.938 -32.293  1.00  0.00    -0.041 A 
HETATM   19  C   UNL     1      -5.308   5.686 -33.461  1.00  0.00     0.009 A 
HETATM   20  C   UNL     1      -4.735   4.433 -33.683  1.00  0.00     0.001 A 
HETATM   21  C   UNL     1      -4.878   3.421 -32.735  1.00  0.00     0.000 A 
HETATM   22  C   UNL     1      -5.596   3.661 -31.565  1.00  0.00     0.001 A 
HETATM   23  C   UNL     1      -6.173   4.912 -31.344  1.00  0.00     0.009 A 
ENDBRANCH  17  18
ENDBRANCH  14  17
ENDBRANCH  12  13
ENDBRANCH  11  12
ENDBRANCH   4  11
BRANCH   8  24
HETATM   24  C   UNL     1     -12.378   2.141 -33.898  1.00  0.00     0.066 A 
HETATM   25  O   UNL     1     -13.283   2.346 -32.897  1.00  0.00    -0.326 OA
HETATM   26  C   UNL     1     -14.320   1.498 -33.120  1.00  0.00     0.142 A 
HETATM   27  C   UNL     1     -14.107   0.768 -34.266  1.00  0.00     0.027 A 
HETATM   28  C   UNL     1     -12.854   1.187 -34.774  1.00  0.00     0.035 A 
ENDBRANCH   8  24
BRANCH   9  29
HETATM   29  C   UNL     1      -9.394   1.257 -32.857  1.00  0.00     0.255 C 
HETATM   30  N   UNL     1      -8.086   1.391 -33.269  1.00  0.00    -0.323 N 
HETATM   31  H   UNL     1      -7.706   2.318 -33.405  1.00  0.00     0.169 HD
HETATM   32  O   UNL     1      -9.911   0.191 -32.537  1.00  0.00    -0.268 OA
BRANCH  30  33
HETATM   33  C   UNL     1      -7.166   0.353 -33.545  1.00  0.00     0.035 A 
HETATM   34  C   UNL     1      -6.002   0.117 -32.811  1.00  0.00     0.045 A 
HETATM   35  C   UNL     1      -5.153  -0.959 -33.126  1.00  0.00     0.050 A 
HETATM   36  C   UNL     1      -5.472  -1.786 -34.213  1.00  0.00     0.016 A 
HETATM   37  C   UNL     1      -6.630  -1.557 -34.952  1.00  0.00     0.003 A 
HETATM   38  C   UNL     1      -7.476  -0.501 -34.613  1.00  0.00     0.029 A 
BRANCH  35  39
HETATM   39  C   UNL     1      -3.901  -1.205 -32.321  1.00  0.00     0.417 C 
HETATM   40  F   UNL     1      -3.967  -0.711 -31.052  1.00  0.00    -0.166 F 
HETATM   41  F   UNL     1      -3.612  -2.530 -32.183  1.00  0.00    -0.166 F 
HETATM   42  F   UNL     1      -2.799  -0.642 -32.888  1.00  0.00    -0.166 F 
ENDBRANCH  35  39
ENDBRANCH  30  33
ENDBRANCH   9  29
TORSDOF 9
ENDMDL
MODEL 8
REMARK VINA RESULT:      -8.6      2.220      2.963
REMARK  9 active torsions:
REMARK  status: ('A' for Active; 'I' for Inactive)
REMARK    1  A    between atoms: C_4  and  S_5 
REMARK    2  A    between atoms: S_5  and  C_6 
REMARK    3  A    between atoms: C_6  and  C_7 
REMARK       I    between atoms: C_7  and  N_8 
REMARK    4  A    between atoms: N_8  and  C_9 
REMARK    5  A    between atoms: C_9  and  C_10 
REMARK    6  A    between atoms: C_20  and  C_21 
REMARK    7  A    between atoms: C_26  and  C_27 
REMARK       I    between atoms: C_27  and  N_28 
REMARK    8  A    between atoms: N_28  and  C_29 
REMARK    9  A    between atoms: C_31  and  C_32 
ROOT
HETATM    1  C   UNL     1      -5.635   0.619 -29.487  1.00  0.00     0.069 C 
HETATM    2  C   UNL     1      -6.201   1.823 -30.205  1.00  0.00     0.019 C 
HETATM    3  N   UNL     1      -6.587   2.869 -29.386  1.00  0.00    -0.353 N 
HETATM    4  C   UNL     1      -6.982   4.128 -29.802  1.00  0.00     0.087 C 
HETATM    5  C   UNL     1      -7.219   4.309 -31.123  1.00  0.00     0.057 C 
HETATM    6  C   UNL     1      -7.806   5.580 -31.716  1.00  0.00     0.019 C 
HETATM    7  N   UNL     1      -8.292   6.634 -32.208  1.00  0.00    -0.096 N 
HETATM    8  C   UNL     1      -7.076   3.147 -32.119  1.00  0.00     0.129 C 
HETATM    9  C   UNL     1      -6.357   1.926 -31.547  1.00  0.00     0.048 C 
HETATM   10  H   UNL     1      -6.551   2.706 -28.385  1.00  0.00     0.166 HD
ENDROOT
BRANCH   4  11
HETATM   11  S   UNL     1      -7.236   5.436 -28.649  1.00  0.00    -0.102 SA
BRANCH  11  12
HETATM   12  C   UNL     1      -5.748   6.444 -28.934  1.00  0.00     0.183 C 
BRANCH  12  13
HETATM   13  C   UNL     1      -4.848   6.569 -27.721  1.00  0.00     0.227 C 
HETATM   14  N   UNL     1      -3.538   6.915 -27.947  1.00  0.00    -0.356 N 
HETATM   15  H   UNL     1      -3.208   7.039 -28.896  1.00  0.00     0.162 HD
HETATM   16  O   UNL     1      -5.267   6.279 -26.600  1.00  0.00    -0.273 OA
BRANCH  14  17
HETATM   17  C   UNL     1      -2.579   6.876 -26.865  1.00  0.00     0.161 C 
BRANCH  17  18
HETATM   18  C   UNL     1      -1.236   7.440 -27.245  1.00  0.00    -0.041 A 
HETATM   19  C   UNL     1      -0.611   8.417 -26.456  1.00  0.00     0.009 A 
HETATM   20  C   UNL     1       0.663   8.884 -26.782  1.00  0.00     0.001 A 
HETATM   21  C   UNL     1       1.333   8.371 -27.892  1.00  0.00     0.000 A 
HETATM   22  C   UNL     1       0.728   7.392 -28.678  1.00  0.00     0.001 A 
HETATM   23  C   UNL     1      -0.548   6.927 -28.355  1.00  0.00     0.009 A 
ENDBRANCH  17  18
ENDBRANCH  14  17
ENDBRANCH  12  13
ENDBRANCH  11  12
ENDBRANCH   4  11
BRANCH   8  24
HETATM   24  C   UNL     1      -8.423   2.782 -32.702  1.00  0.00     0.066 A 
HETATM   25  O   UNL     1      -8.592   3.035 -34.033  1.00  0.00    -0.326 OA
HETATM   26  C   UNL     1      -9.853   2.646 -34.353  1.00  0.00     0.142 A 
HETATM   27  C   UNL     1     -10.489   2.121 -33.253  1.00  0.00     0.027 A 
HETATM   28  C   UNL     1      -9.564   2.202 -32.184  1.00  0.00     0.035 A 
ENDBRANCH   8  24
BRANCH   9  29
HETATM   29  C   UNL     1      -5.750   0.894 -32.466  1.00  0.00     0.255 C 
HETATM   30  N   UNL     1      -6.514  -0.225 -32.714  1.00  0.00    -0.323 N 
HETATM   31  H   UNL     1      -7.447  -0.278 -32.328  1.00  0.00     0.169 HD
HETATM   32  O   UNL     1      -4.663   1.117 -32.991  1.00  0.00    -0.268 OA
BRANCH  30  33
HETATM   33  C   UNL     1      -6.144  -1.364 -33.466  1.00  0.00     0.035 A 
HETATM   34  C   UNL     1      -5.099  -2.225 -33.126  1.00  0.00     0.045 A 
HETATM   35  C   UNL     1      -4.813  -3.361 -33.906  1.00  0.00     0.050 A 
HETATM   36  C   UNL     1      -5.575  -3.608 -35.057  1.00  0.00     0.016 A 
HETATM   37  C   UNL     1      -6.618  -2.754 -35.405  1.00  0.00     0.003 A 
HETATM   38  C   UNL     1      -6.906  -1.645 -34.608  1.00  0.00     0.029 A 
BRANCH  35  39
HETATM   39  C   UNL     1      -3.685  -4.285 -33.523  1.00  0.00     0.417 C 
HETATM   40  F   UNL     1      -4.108  -5.479 -33.019  1.00  0.00    -0.166 F 
HETATM   41  F   UNL     1      -2.877  -4.599 -34.577  1.00  0.00    -0.166 F 
HETATM   42  F   UNL     1      -2.867  -3.746 -32.577  1.00  0.00    -0.166 F 
ENDBRANCH  35  39
ENDBRANCH  30  33
ENDBRANCH   9  29
TORSDOF 9
ENDMDL
MODEL 9
REMARK VINA RESULT:      -8.6      2.166      3.126
REMARK  9 active torsions:
REMARK  status: ('A' for Active; 'I' for Inactive)
REMARK    1  A    between atoms: C_4  and  S_5 
REMARK    2  A    between atoms: S_5  and  C_6 
REMARK    3  A    between atoms: C_6  and  C_7 
REMARK       I    between atoms: C_7  and  N_8 
REMARK    4  A    between atoms: N_8  and  C_9 
REMARK    5  A    between atoms: C_9  and  C_10 
REMARK    6  A    between atoms: C_20  and  C_21 
REMARK    7  A    between atoms: C_26  and  C_27 
REMARK       I    between atoms: C_27  and  N_28 
REMARK    8  A    between atoms: N_28  and  C_29 
REMARK    9  A    between atoms: C_31  and  C_32 
ROOT
HETATM    1  C   UNL     1      -7.652   3.102 -29.670  1.00  0.00     0.069 C 
HETATM    2  C   UNL     1      -8.230   3.596 -30.976  1.00  0.00     0.019 C 
HETATM    3  N   UNL     1      -8.663   4.910 -30.969  1.00  0.00    -0.353 N 
HETATM    4  C   UNL     1      -9.079   5.637 -32.070  1.00  0.00     0.087 C 
HETATM    5  C   UNL     1      -9.287   4.965 -33.227  1.00  0.00     0.057 C 
HETATM    6  C   UNL     1      -9.891   5.588 -34.476  1.00  0.00     0.019 C 
HETATM    7  N   UNL     1     -10.391   6.104 -35.512  1.00  0.00    -0.096 N 
HETATM    8  C   UNL     1      -9.090   3.443 -33.305  1.00  0.00     0.129 C 
HETATM    9  C   UNL     1      -8.355   2.852 -32.102  1.00  0.00     0.048 C 
HETATM   10  H   UNL     1      -8.648   5.394 -30.077  1.00  0.00     0.166 HD
ENDROOT
BRANCH   4  11
HETATM   11  S   UNL     1      -9.395   7.367 -31.958  1.00  0.00    -0.102 SA
BRANCH  11  12
HETATM   12  C   UNL     1      -7.767   8.047 -32.403  1.00  0.00     0.183 C 
BRANCH  12  13
HETATM   13  C   UNL     1      -6.603   7.143 -32.042  1.00  0.00     0.227 C 
HETATM   14  N   UNL     1      -6.021   6.435 -33.065  1.00  0.00    -0.356 N 
HETATM   15  H   UNL     1      -6.396   6.507 -34.003  1.00  0.00     0.162 HD
HETATM   16  O   UNL     1      -6.271   6.993 -30.866  1.00  0.00    -0.273 OA
BRANCH  14  17
HETATM   17  C   UNL     1      -5.032   5.421 -32.775  1.00  0.00     0.161 C 
BRANCH  17  18
HETATM   18  C   UNL     1      -3.673   5.743 -33.336  1.00  0.00    -0.041 A 
HETATM   19  C   UNL     1      -2.902   6.791 -32.813  1.00  0.00     0.009 A 
HETATM   20  C   UNL     1      -1.616   7.038 -33.297  1.00  0.00     0.001 A 
HETATM   21  C   UNL     1      -1.080   6.231 -34.299  1.00  0.00     0.000 A 
HETATM   22  C   UNL     1      -1.830   5.179 -34.820  1.00  0.00     0.001 A 
HETATM   23  C   UNL     1      -3.118   4.934 -34.340  1.00  0.00     0.009 A 
ENDBRANCH  17  18
ENDBRANCH  14  17
ENDBRANCH  12  13
ENDBRANCH  11  12
ENDBRANCH   4  11
BRANCH   8  24
HETATM   24  C   UNL     1     -10.413   2.750 -33.548  1.00  0.00     0.066 A 
HETATM   25  O   UNL     1     -11.488   3.252 -32.872  1.00  0.00    -0.326 OA
HETATM   26  C   UNL     1     -12.562   2.497 -33.220  1.00  0.00     0.142 A 
HETATM   27  C   UNL     1     -12.198   1.532 -34.130  1.00  0.00     0.027 A 
HETATM   28  C   UNL     1     -10.809   1.698 -34.349  1.00  0.00     0.035 A 
ENDBRANCH   8  24
BRANCH   9  29
HETATM   29  C   UNL     1      -7.699   1.496 -32.196  1.00  0.00     0.255 C 
HETATM   30  N   UNL     1      -6.438   1.468 -32.750  1.00  0.00    -0.323 N 
HETATM   31  H   UNL     1      -5.994   2.339 -33.008  1.00  0.00     0.169 HD
HETATM   32  O   UNL     1      -8.269   0.514 -31.729  1.00  0.00    -0.268 OA
BRANCH  30  33
HETATM   33  C   UNL     1      -5.649   0.326 -33.024  1.00  0.00     0.035 A 
HETATM   34  C   UNL     1      -6.103  -0.795 -33.720  1.00  0.00     0.045 A 
HETATM   35  C   UNL     1      -5.247  -1.879 -33.986  1.00  0.00     0.050 A 
HETATM   36  C   UNL     1      -3.927  -1.838 -33.514  1.00  0.00     0.016 A 
HETATM   37  C   UNL     1      -3.465  -0.725 -32.817  1.00  0.00     0.003 A 
HETATM   38  C   UNL     1      -4.319   0.354 -32.583  1.00  0.00     0.029 A 
BRANCH  35  39
HETATM   39  C   UNL     1      -5.751  -3.082 -34.744  1.00  0.00     0.417 C 
HETATM   40  F   UNL     1      -7.107  -3.211 -34.718  1.00  0.00    -0.166 F 
HETATM   41  F   UNL     1      -5.411  -3.055 -36.065  1.00  0.00    -0.166 F 
HETATM   42  F   UNL     1      -5.252  -4.251 -34.257  1.00  0.00    -0.166 F 
ENDBRANCH  35  39
ENDBRANCH  30  33
ENDBRANCH   9  29
TORSDOF 9
ENDMDL
MODEL 10
REMARK VINA RESULT:      -8.6      4.058      6.607
REMARK  9 active torsions:
REMARK  status: ('A' for Active; 'I' for Inactive)
REMARK    1  A    between atoms: C_4  and  S_5 
REMARK    2  A    between atoms: S_5  and  C_6 
REMARK    3  A    between atoms: C_6  and  C_7 
REMARK       I    between atoms: C_7  and  N_8 
REMARK    4  A    between atoms: N_8  and  C_9 
REMARK    5  A    between atoms: C_9  and  C_10 
REMARK    6  A    between atoms: C_20  and  C_21 
REMARK    7  A    between atoms: C_26  and  C_27 
REMARK       I    between atoms: C_27  and  N_28 
REMARK    8  A    between atoms: N_28  and  C_29 
REMARK    9  A    between atoms: C_31  and  C_32 
ROOT
HETATM    1  C   UNL     1     -10.333   0.598 -33.421  1.00  0.00     0.069 C 
HETATM    2  C   UNL     1      -9.889   1.764 -32.568  1.00  0.00     0.019 C 
HETATM    3  N   UNL     1     -10.843   2.747 -32.371  1.00  0.00    -0.353 N 
HETATM    4  C   UNL     1     -10.738   3.825 -31.509  1.00  0.00     0.087 C 
HETATM    5  C   UNL     1      -9.526   4.075 -30.958  1.00  0.00     0.057 C 
HETATM    6  C   UNL     1      -9.210   5.304 -30.121  1.00  0.00     0.019 C 
HETATM    7  N   UNL     1      -8.947   6.322 -29.426  1.00  0.00    -0.096 N 
HETATM    8  C   UNL     1      -8.307   3.204 -31.300  1.00  0.00     0.129 C 
HETATM    9  C   UNL     1      -8.657   1.903 -32.020  1.00  0.00     0.048 C 
HETATM   10  H   UNL     1     -11.712   2.653 -32.886  1.00  0.00     0.166 HD
ENDROOT
BRANCH   4  11
HETATM   11  S   UNL     1     -12.113   4.879 -31.190  1.00  0.00    -0.102 SA
BRANCH  11  12
HETATM   12  C   UNL     1     -11.819   6.207 -32.399  1.00  0.00     0.183 C 
BRANCH  12  13
HETATM   13  C   UNL     1     -12.442   5.951 -33.758  1.00  0.00     0.227 C 
HETATM   14  N   UNL     1     -12.845   7.049 -34.478  1.00  0.00    -0.356 N 
HETATM   15  H   UNL     1     -12.750   7.975 -34.077  1.00  0.00     0.162 HD
HETATM   16  O   UNL     1     -12.653   4.800 -34.141  1.00  0.00    -0.273 OA
BRANCH  14  17
HETATM   17  C   UNL     1     -13.609   6.881 -35.694  1.00  0.00     0.161 C 
BRANCH  17  18
HETATM   18  C   UNL     1     -13.027   7.626 -36.865  1.00  0.00    -0.041 A 
HETATM   19  C   UNL     1     -13.767   7.821 -38.040  1.00  0.00     0.009 A 
HETATM   20  C   UNL     1     -13.242   8.571 -39.094  1.00  0.00     0.001 A 
HETATM   21  C   UNL     1     -11.978   9.146 -38.980  1.00  0.00     0.000 A 
HETATM   22  C   UNL     1     -11.236   8.970 -37.814  1.00  0.00     0.001 A 
HETATM   23  C   UNL     1     -11.758   8.217 -36.761  1.00  0.00     0.009 A 
ENDBRANCH  17  18
ENDBRANCH  14  17
ENDBRANCH  12  13
ENDBRANCH  11  12
ENDBRANCH   4  11
BRANCH   8  24
HETATM   24  C   UNL     1      -7.280   4.009 -32.067  1.00  0.00     0.066 A 
HETATM   25  O   UNL     1      -6.111   4.272 -31.413  1.00  0.00    -0.326 OA
HETATM   26  C   UNL     1      -5.339   5.000 -32.261  1.00  0.00     0.142 A 
HETATM   27  C   UNL     1      -5.984   5.187 -33.460  1.00  0.00     0.027 A 
HETATM   28  C   UNL     1      -7.239   4.542 -33.339  1.00  0.00     0.035 A 
ENDBRANCH   8  24
BRANCH   9  29
HETATM   29  C   UNL     1      -7.680   0.752 -32.043  1.00  0.00     0.255 C 
HETATM   30  N   UNL     1      -7.124   0.450 -33.266  1.00  0.00    -0.323 N 
HETATM   31  H   UNL     1      -7.342   1.034 -34.063  1.00  0.00     0.169 HD
HETATM   32  O   UNL     1      -7.380   0.193 -30.992  1.00  0.00    -0.268 OA
BRANCH  30  33
HETATM   33  C   UNL     1      -6.253  -0.622 -33.569  1.00  0.00     0.035 A 
HETATM   34  C   UNL     1      -6.674  -1.871 -34.029  1.00  0.00     0.045 A 
HETATM   35  C   UNL     1      -5.744  -2.879 -34.344  1.00  0.00     0.050 A 
HETATM   36  C   UNL     1      -4.376  -2.627 -34.162  1.00  0.00     0.016 A 
HETATM   37  C   UNL     1      -3.947  -1.384 -33.702  1.00  0.00     0.003 A 
HETATM   38  C   UNL     1      -4.880  -0.386 -33.417  1.00  0.00     0.029 A 
BRANCH  35  39
HETATM   39  C   UNL     1      -6.214  -4.221 -34.845  1.00  0.00     0.417 C 
HETATM   40  F   UNL     1      -7.437  -4.583 -34.365  1.00  0.00    -0.166 F 
HETATM   41  F   UNL     1      -6.326  -4.269 -36.204  1.00  0.00    -0.166 F 
HETATM   42  F   UNL     1      -5.364  -5.230 -34.508  1.00  0.00    -0.166 F 
ENDBRANCH  35  39
ENDBRANCH  30  33
ENDBRANCH   9  29
TORSDOF 9
ENDMDL
