MODEL 1
REMARK VINA RESULT:     -10.0      0.000      0.000
REMARK  7 active torsions:
REMARK  status: ('A' for Active; 'I' for Inactive)
REMARK    1  A    between atoms: C_3  and  N_4 
REMARK    2  A    between atoms: N_7  and  C_9 
REMARK    3  A    between atoms: C_9  and  C_10 
REMARK    4  A    between atoms: C_10  and  C_11 
REMARK    5  A    between atoms: C_11  and  N_12 
REMARK       I    between atoms: N_12  and  C_13 
REMARK    6  A    between atoms: C_13  and  C_14 
REMARK    7  A    between atoms: C_14  and  N_15 
ROOT
HETATM    1  N   UNL     1      -4.268   5.933 -33.112  1.00  0.00    -0.360 N 
HETATM    2  C   UNL     1      -3.551   5.826 -34.287  1.00  0.00     0.237 C 
HETATM    3  O   UNL     1      -4.010   5.230 -35.263  1.00  0.00    -0.272 OA
HETATM    4  H   UNL     1      -3.819   6.438 -32.349  1.00  0.00     0.162 HD
ENDROOT
BRANCH   1   5
HETATM    5  C   UNL     1      -5.665   5.580 -33.051  1.00  0.00     0.124 C 
BRANCH   5   6
HETATM    6  C   UNL     1      -6.015   4.826 -31.767  1.00  0.00     0.047 C 
BRANCH   6   7
HETATM    7  C   UNL     1      -4.751   4.292 -31.109  1.00  0.00     0.236 C 
BRANCH   7   8
HETATM    8  N   UNL     1      -4.651   2.779 -31.200  1.00  0.00    -0.068 N 
HETATM    9  C   UNL     1      -6.012   2.098 -31.407  1.00  0.00     0.254 C 
HETATM   10  C   UNL     1      -5.865   0.584 -31.669  1.00  0.00     0.150 C 
HETATM   11  N   UNL     1      -4.954   0.386 -32.812  1.00  0.00    -0.377 N 
HETATM   12  C   UNL     1      -3.592   0.876 -32.547  1.00  0.00     0.150 C 
HETATM   13  C   UNL     1      -3.650   2.400 -32.310  1.00  0.00     0.254 C 
HETATM   14  H   UNL     1      -4.265   2.429 -30.314  1.00  0.00     0.280 HD
BRANCH  11  15
HETATM   15  C   UNL     1      -5.102  -0.851 -33.455  1.00  0.00     0.037 A 
HETATM   16  C   UNL     1      -6.103  -1.021 -34.445  1.00  0.00    -0.035 A 
HETATM   17  C   UNL     1      -7.025   0.096 -34.859  1.00  0.00     0.050 C 
HETATM   18  C   UNL     1      -6.267  -2.268 -35.076  1.00  0.00     0.011 A 
HETATM   19  C   UNL     1      -5.430  -3.337 -34.771  1.00  0.00     0.024 A 
HETATM   20  C   UNL     1      -4.433  -3.169 -33.821  1.00  0.00     0.036 A 
HETATM   21  C   UNL     1      -4.270  -1.945 -33.166  1.00  0.00     0.053 A 
HETATM   22 CL   UNL     1      -3.386  -4.481 -33.441  1.00  0.00    -0.084 Cl
ENDBRANCH  11  15
ENDBRANCH   7   8
ENDBRANCH   6   7
ENDBRANCH   5   6
ENDBRANCH   1   5
BRANCH   2  23
HETATM   23  C   UNL     1      -2.115   6.342 -34.240  1.00  0.00     0.257 C 
BRANCH  23  24
HETATM   24  N   UNL     1      -1.722   6.823 -32.919  1.00  0.00    -0.224 N 
HETATM   25  N   UNL     1      -1.967   8.182 -32.644  1.00  0.00    -0.180 NA
HETATM   26  C   UNL     1      -1.787   8.634 -31.432  1.00  0.00     0.153 A 
HETATM   27  C   UNL     1      -1.313   7.772 -30.387  1.00  0.00     0.028 A 
HETATM   28  C   UNL     1      -1.029   6.464 -30.685  1.00  0.00     0.116 A 
HETATM   29  C   UNL     1      -1.067   7.972 -29.004  1.00  0.00     0.005 A 
HETATM   30  N   UNL     1      -0.595   5.848 -29.546  1.00  0.00    -0.350 N 
HETATM   31  C   UNL     1      -1.211   5.897 -31.987  1.00  0.00     0.291 A 
HETATM   32  H   UNL     1      -0.328   4.874 -29.475  1.00  0.00     0.166 HD
HETATM   33  C   UNL     1      -0.615   6.747 -28.499  1.00  0.00     0.044 A 
HETATM   34  C   UNL     1      -0.281   6.564 -27.152  1.00  0.00     0.030 A 
HETATM   35  C   UNL     1      -0.417   7.662 -26.296  1.00  0.00     0.002 A 
HETATM   36  C   UNL     1      -0.867   8.892 -26.770  1.00  0.00     0.001 A 
HETATM   37  C   UNL     1      -1.192   9.063 -28.121  1.00  0.00     0.014 A 
HETATM   38  O   UNL     1      -0.942   4.732 -32.256  1.00  0.00    -0.264 OA
ENDBRANCH  23  24
ENDBRANCH   2  23
TORSDOF 7
ENDMDL
MODEL 2
REMARK VINA RESULT:      -9.9      3.220     10.137
REMARK  7 active torsions:
REMARK  status: ('A' for Active; 'I' for Inactive)
REMARK    1  A    between atoms: C_3  and  N_4 
REMARK    2  A    between atoms: N_7  and  C_9 
REMARK    3  A    between atoms: C_9  and  C_10 
REMARK    4  A    between atoms: C_10  and  C_11 
REMARK    5  A    between atoms: C_11  and  N_12 
REMARK       I    between atoms: N_12  and  C_13 
REMARK    6  A    between atoms: C_13  and  C_14 
REMARK    7  A    between atoms: C_14  and  N_15 
ROOT
HETATM    1  N   UNL     1      -4.628   4.258 -33.986  1.00  0.00    -0.360 N 
HETATM    2  C   UNL     1      -5.986   4.108 -33.789  1.00  0.00     0.237 C 
HETATM    3  O   UNL     1      -6.795   4.892 -34.287  1.00  0.00    -0.272 OA
HETATM    4  H   UNL     1      -4.023   3.571 -33.538  1.00  0.00     0.162 HD
ENDROOT
BRANCH   1   5
HETATM    5  C   UNL     1      -4.112   5.174 -34.974  1.00  0.00     0.124 C 
BRANCH   5   6
HETATM    6  C   UNL     1      -2.653   5.552 -34.705  1.00  0.00     0.047 C 
BRANCH   6   7
HETATM    7  C   UNL     1      -1.999   4.515 -33.804  1.00  0.00     0.236 C 
BRANCH   7   8
HETATM    8  N   UNL     1      -1.112   5.151 -32.748  1.00  0.00    -0.068 N 
HETATM    9  C   UNL     1      -0.990   6.675 -32.901  1.00  0.00     0.254 C 
HETATM   10  C   UNL     1      -0.230   7.314 -31.721  1.00  0.00     0.150 C 
HETATM   11  N   UNL     1      -0.891   6.925 -30.462  1.00  0.00    -0.377 N 
HETATM   12  C   UNL     1      -0.848   5.474 -30.221  1.00  0.00     0.150 C 
HETATM   13  C   UNL     1      -1.625   4.760 -31.347  1.00  0.00     0.254 C 
HETATM   14  H   UNL     1      -0.167   4.757 -32.843  1.00  0.00     0.280 HD
BRANCH  11  15
HETATM   15  C   UNL     1      -0.629   7.785 -29.387  1.00  0.00     0.037 A 
HETATM   16  C   UNL     1      -1.500   8.872 -29.119  1.00  0.00    -0.035 A 
HETATM   17  C   UNL     1      -2.730   9.142 -29.945  1.00  0.00     0.050 C 
HETATM   18  C   UNL     1      -1.227   9.749 -28.053  1.00  0.00     0.011 A 
HETATM   19  C   UNL     1      -0.127   9.544 -27.225  1.00  0.00     0.024 A 
HETATM   20  C   UNL     1       0.714   8.467 -27.466  1.00  0.00     0.036 A 
HETATM   21  C   UNL     1       0.472   7.599 -28.535  1.00  0.00     0.053 A 
HETATM   22 CL   UNL     1       2.070   8.198 -26.443  1.00  0.00    -0.084 Cl
ENDBRANCH  11  15
ENDBRANCH   7   8
ENDBRANCH   6   7
ENDBRANCH   5   6
ENDBRANCH   1   5
BRANCH   2  23
HETATM   23  C   UNL     1      -6.397   3.024 -32.796  1.00  0.00     0.257 C 
BRANCH  23  24
HETATM   24  N   UNL     1      -5.952   1.690 -33.187  1.00  0.00    -0.224 N 
HETATM   25  N   UNL     1      -4.688   1.284 -32.718  1.00  0.00    -0.180 NA
HETATM   26  C   UNL     1      -4.303   0.049 -32.897  1.00  0.00     0.153 A 
HETATM   27  C   UNL     1      -5.136  -0.889 -33.593  1.00  0.00     0.028 A 
HETATM   28  C   UNL     1      -6.342  -0.463 -34.090  1.00  0.00     0.116 A 
HETATM   29  C   UNL     1      -4.999  -2.269 -33.896  1.00  0.00     0.005 A 
HETATM   30  N   UNL     1      -6.949  -1.518 -34.709  1.00  0.00    -0.350 N 
HETATM   31  C   UNL     1      -6.833   0.872 -33.924  1.00  0.00     0.291 A 
HETATM   32  H   UNL     1      -7.858  -1.488 -35.154  1.00  0.00     0.166 HD
HETATM   33  C   UNL     1      -6.152  -2.639 -34.599  1.00  0.00     0.044 A 
HETATM   34  C   UNL     1      -6.369  -3.944 -35.056  1.00  0.00     0.030 A 
HETATM   35  C   UNL     1      -5.385  -4.899 -34.781  1.00  0.00     0.002 A 
HETATM   36  C   UNL     1      -4.229  -4.560 -34.082  1.00  0.00     0.001 A 
HETATM   37  C   UNL     1      -4.021  -3.249 -33.636  1.00  0.00     0.014 A 
HETATM   38  O   UNL     1      -7.903   1.256 -34.381  1.00  0.00    -0.264 OA
ENDBRANCH  23  24
ENDBRANCH   2  23
TORSDOF 7
ENDMDL
MODEL 3
REMARK VINA RESULT:      -9.9      3.110      9.690
REMARK  7 active torsions:
REMARK  status: ('A' for Active; 'I' for Inactive)
REMARK    1  A    between atoms: C_3  and  N_4 
REMARK    2  A    between atoms: N_7  and  C_9 
REMARK    3  A    between atoms: C_9  and  C_10 
REMARK    4  A    between atoms: C_10  and  C_11 
REMARK    5  A    between atoms: C_11  and  N_12 
REMARK       I    between atoms: N_12  and  C_13 
REMARK    6  A    between atoms: C_13  and  C_14 
REMARK    7  A    between atoms: C_14  and  N_15 
ROOT
HETATM    1  N   UNL     1      -4.386   3.847 -33.443  1.00  0.00    -0.360 N 
HETATM    2  C   UNL     1      -4.734   3.980 -32.114  1.00  0.00     0.237 C 
HETATM    3  O   UNL     1      -5.183   5.040 -31.674  1.00  0.00    -0.272 OA
HETATM    4  H   UNL     1      -4.018   2.940 -33.729  1.00  0.00     0.162 HD
ENDROOT
BRANCH   1   5
HETATM    5  C   UNL     1      -4.760   4.840 -34.419  1.00  0.00     0.124 C 
BRANCH   5   6
HETATM    6  C   UNL     1      -3.546   5.573 -34.994  1.00  0.00     0.047 C 
BRANCH   6   7
HETATM    7  C   UNL     1      -2.262   4.872 -34.574  1.00  0.00     0.236 C 
BRANCH   7   8
HETATM    8  N   UNL     1      -1.468   5.684 -33.567  1.00  0.00    -0.068 N 
HETATM    9  C   UNL     1      -2.146   7.011 -33.194  1.00  0.00     0.254 C 
HETATM   10  C   UNL     1      -1.409   7.732 -32.045  1.00  0.00     0.150 C 
HETATM   11  N   UNL     1      -1.301   6.812 -30.898  1.00  0.00    -0.377 N 
HETATM   12  C   UNL     1      -0.493   5.619 -31.199  1.00  0.00     0.150 C 
HETATM   13  C   UNL     1      -1.188   4.818 -32.320  1.00  0.00     0.254 C 
HETATM   14  H   UNL     1      -0.557   5.912 -33.985  1.00  0.00     0.280 HD
BRANCH  11  15
HETATM   15  C   UNL     1      -1.108   7.452 -29.666  1.00  0.00     0.037 A 
HETATM   16  C   UNL     1      -2.221   7.753 -28.841  1.00  0.00    -0.035 A 
HETATM   17  C   UNL     1      -3.632   7.395 -29.228  1.00  0.00     0.050 C 
HETATM   18  C   UNL     1      -2.031   8.414 -27.614  1.00  0.00     0.011 A 
HETATM   19  C   UNL     1      -0.753   8.747 -27.173  1.00  0.00     0.024 A 
HETATM   20  C   UNL     1       0.342   8.431 -27.965  1.00  0.00     0.036 A 
HETATM   21  C   UNL     1       0.171   7.796 -29.198  1.00  0.00     0.053 A 
HETATM   22 CL   UNL     1       1.927   8.829 -27.426  1.00  0.00    -0.084 Cl
ENDBRANCH  11  15
ENDBRANCH   7   8
ENDBRANCH   6   7
ENDBRANCH   5   6
ENDBRANCH   1   5
BRANCH   2  23
HETATM   23  C   UNL     1      -4.376   2.803 -31.211  1.00  0.00     0.257 C 
BRANCH  23  24
HETATM   24  N   UNL     1      -4.785   1.514 -31.761  1.00  0.00    -0.224 N 
HETATM   25  N   UNL     1      -6.070   1.452 -32.333  1.00  0.00    -0.180 NA
HETATM   26  C   UNL     1      -6.432   0.378 -32.982  1.00  0.00     0.153 A 
HETATM   27  C   UNL     1      -5.551  -0.750 -33.091  1.00  0.00     0.028 A 
HETATM   28  C   UNL     1      -4.323  -0.692 -32.482  1.00  0.00     0.116 A 
HETATM   29  C   UNL     1      -5.658  -2.002 -33.750  1.00  0.00     0.005 A 
HETATM   30  N   UNL     1      -3.671  -1.869 -32.717  1.00  0.00    -0.350 N 
HETATM   31  C   UNL     1      -3.856   0.454 -31.763  1.00  0.00     0.291 A 
HETATM   32  H   UNL     1      -2.738  -2.093 -32.393  1.00  0.00     0.166 HD
HETATM   33  C   UNL     1      -4.463  -2.687 -33.497  1.00  0.00     0.044 A 
HETATM   34  C   UNL     1      -4.207  -3.967 -34.003  1.00  0.00     0.030 A 
HETATM   35  C   UNL     1      -5.196  -4.561 -34.794  1.00  0.00     0.002 A 
HETATM   36  C   UNL     1      -6.394  -3.902 -35.063  1.00  0.00     0.001 A 
HETATM   37  C   UNL     1      -6.639  -2.625 -34.545  1.00  0.00     0.014 A 
HETATM   38  O   UNL     1      -2.765   0.499 -31.206  1.00  0.00    -0.264 OA
ENDBRANCH  23  24
ENDBRANCH   2  23
TORSDOF 7
ENDMDL
MODEL 4
REMARK VINA RESULT:      -9.9      1.247      1.930
REMARK  7 active torsions:
REMARK  status: ('A' for Active; 'I' for Inactive)
REMARK    1  A    between atoms: C_3  and  N_4 
REMARK    2  A    between atoms: N_7  and  C_9 
REMARK    3  A    between atoms: C_9  and  C_10 
REMARK    4  A    between atoms: C_10  and  C_11 
REMARK    5  A    between atoms: C_11  and  N_12 
REMARK       I    between atoms: N_12  and  C_13 
REMARK    6  A    between atoms: C_13  and  C_14 
REMARK    7  A    between atoms: C_14  and  N_15 
ROOT
HETATM    1  N   UNL     1      -4.430   5.899 -33.170  1.00  0.00    -0.360 N 
HETATM    2  C   UNL     1      -3.748   5.744 -34.360  1.00  0.00     0.237 C 
HETATM    3  O   UNL     1      -4.277   5.206 -35.334  1.00  0.00    -0.272 OA
HETATM    4  H   UNL     1      -3.923   6.351 -32.410  1.00  0.00     0.162 HD
ENDROOT
BRANCH   1   5
HETATM    5  C   UNL     1      -5.851   5.671 -33.085  1.00  0.00     0.124 C 
BRANCH   5   6
HETATM    6  C   UNL     1      -6.193   4.469 -32.202  1.00  0.00     0.047 C 
BRANCH   6   7
HETATM    7  C   UNL     1      -7.616   4.004 -32.476  1.00  0.00     0.236 C 
BRANCH   7   8
HETATM    8  N   UNL     1      -7.663   2.577 -32.994  1.00  0.00    -0.068 N 
HETATM    9  C   UNL     1      -6.722   2.337 -34.185  1.00  0.00     0.254 C 
HETATM   10  C   UNL     1      -6.659   0.847 -34.578  1.00  0.00     0.150 C 
HETATM   11  N   UNL     1      -6.281   0.057 -33.392  1.00  0.00    -0.377 N 
HETATM   12  C   UNL     1      -7.277   0.139 -32.312  1.00  0.00     0.150 C 
HETATM   13  C   UNL     1      -7.371   1.603 -31.834  1.00  0.00     0.254 C 
HETATM   14  H   UNL     1      -8.620   2.384 -33.316  1.00  0.00     0.280 HD
BRANCH  11  15
HETATM   15  C   UNL     1      -5.725  -1.195 -33.691  1.00  0.00     0.037 A 
HETATM   16  C   UNL     1      -4.426  -1.523 -33.228  1.00  0.00    -0.035 A 
HETATM   17  C   UNL     1      -3.601  -0.574 -32.398  1.00  0.00     0.050 C 
HETATM   18  C   UNL     1      -3.858  -2.771 -33.544  1.00  0.00     0.011 A 
HETATM   19  C   UNL     1      -4.572  -3.714 -34.278  1.00  0.00     0.024 A 
HETATM   20  C   UNL     1      -5.854  -3.408 -34.712  1.00  0.00     0.036 A 
HETATM   21  C   UNL     1      -6.425  -2.164 -34.428  1.00  0.00     0.053 A 
HETATM   22 CL   UNL     1      -6.750  -4.569 -35.612  1.00  0.00    -0.084 Cl
ENDBRANCH  11  15
ENDBRANCH   7   8
ENDBRANCH   6   7
ENDBRANCH   5   6
ENDBRANCH   1   5
BRANCH   2  23
HETATM   23  C   UNL     1      -2.271   6.129 -34.336  1.00  0.00     0.257 C 
BRANCH  23  24
HETATM   24  N   UNL     1      -1.837   6.654 -33.045  1.00  0.00    -0.224 N 
HETATM   25  N   UNL     1      -2.039   8.030 -32.823  1.00  0.00    -0.180 NA
HETATM   26  C   UNL     1      -1.821   8.527 -31.636  1.00  0.00     0.153 A 
HETATM   27  C   UNL     1      -1.349   7.698 -30.564  1.00  0.00     0.028 A 
HETATM   28  C   UNL     1      -1.107   6.371 -30.812  1.00  0.00     0.116 A 
HETATM   29  C   UNL     1      -1.068   7.950 -29.196  1.00  0.00     0.005 A 
HETATM   30  N   UNL     1      -0.665   5.792 -29.656  1.00  0.00    -0.350 N 
HETATM   31  C   UNL     1      -1.331   5.755 -32.084  1.00  0.00     0.291 A 
HETATM   32  H   UNL     1      -0.423   4.814 -29.550  1.00  0.00     0.166 HD
HETATM   33  C   UNL     1      -0.639   6.734 -28.649  1.00  0.00     0.044 A 
HETATM   34  C   UNL     1      -0.280   6.600 -27.302  1.00  0.00     0.030 A 
HETATM   35  C   UNL     1      -0.369   7.736 -26.491  1.00  0.00     0.002 A 
HETATM   36  C   UNL     1      -0.795   8.957 -27.008  1.00  0.00     0.001 A 
HETATM   37  C   UNL     1      -1.145   9.079 -28.358  1.00  0.00     0.014 A 
HETATM   38  O   UNL     1      -1.100   4.572 -32.309  1.00  0.00    -0.264 OA
ENDBRANCH  23  24
ENDBRANCH   2  23
TORSDOF 7
ENDMDL
MODEL 5
REMARK VINA RESULT:      -9.4      3.593     10.339
REMARK  7 active torsions:
REMARK  status: ('A' for Active; 'I' for Inactive)
REMARK    1  A    between atoms: C_3  and  N_4 
REMARK    2  A    between atoms: N_7  and  C_9 
REMARK    3  A    between atoms: C_9  and  C_10 
REMARK    4  A    between atoms: C_10  and  C_11 
REMARK    5  A    between atoms: C_11  and  N_12 
REMARK       I    between atoms: N_12  and  C_13 
REMARK    6  A    between atoms: C_13  and  C_14 
REMARK    7  A    between atoms: C_14  and  N_15 
ROOT
HETATM    1  N   UNL     1      -4.720   4.093 -32.753  1.00  0.00    -0.360 N 
HETATM    2  C   UNL     1      -3.488   3.516 -32.517  1.00  0.00     0.237 C 
HETATM    3  O   UNL     1      -2.504   3.810 -33.196  1.00  0.00    -0.272 OA
HETATM    4  H   UNL     1      -5.486   3.795 -32.150  1.00  0.00     0.162 HD
ENDROOT
BRANCH   1   5
HETATM    5  C   UNL     1      -4.858   5.235 -33.623  1.00  0.00     0.124 C 
BRANCH   5   6
HETATM    6  C   UNL     1      -4.422   6.536 -32.944  1.00  0.00     0.047 C 
BRANCH   6   7
HETATM    7  C   UNL     1      -5.217   6.753 -31.665  1.00  0.00     0.236 C 
BRANCH   7   8
HETATM    8  N   UNL     1      -4.484   7.644 -30.678  1.00  0.00    -0.068 N 
HETATM    9  C   UNL     1      -4.035   6.900 -29.412  1.00  0.00     0.254 C 
HETATM   10  C   UNL     1      -3.146   7.781 -28.509  1.00  0.00     0.150 C 
HETATM   11  N   UNL     1      -2.009   8.280 -29.304  1.00  0.00    -0.377 N 
HETATM   12  C   UNL     1      -2.428   9.148 -30.416  1.00  0.00     0.150 C 
HETATM   13  C   UNL     1      -3.296   8.324 -31.389  1.00  0.00     0.254 C 
HETATM   14  H   UNL     1      -5.126   8.392 -30.383  1.00  0.00     0.280 HD
BRANCH  11  15
HETATM   15  C   UNL     1      -0.901   8.669 -28.537  1.00  0.00     0.037 A 
HETATM   16  C   UNL     1       0.329   7.977 -28.667  1.00  0.00    -0.035 A 
HETATM   17  C   UNL     1       0.511   6.827 -29.623  1.00  0.00     0.050 C 
HETATM   18  C   UNL     1       1.436   8.352 -27.883  1.00  0.00     0.011 A 
HETATM   19  C   UNL     1       1.354   9.427 -27.002  1.00  0.00     0.024 A 
HETATM   20  C   UNL     1       0.160  10.124 -26.891  1.00  0.00     0.036 A 
HETATM   21  C   UNL     1      -0.957   9.751 -27.643  1.00  0.00     0.053 A 
HETATM   22 CL   UNL     1       0.049  11.461 -25.812  1.00  0.00    -0.084 Cl
ENDBRANCH  11  15
ENDBRANCH   7   8
ENDBRANCH   6   7
ENDBRANCH   5   6
ENDBRANCH   1   5
BRANCH   2  23
HETATM   23  C   UNL     1      -3.468   2.389 -31.487  1.00  0.00     0.257 C 
BRANCH  23  24
HETATM   24  N   UNL     1      -3.987   1.128 -32.007  1.00  0.00    -0.224 N 
HETATM   25  N   UNL     1      -5.146   1.203 -32.803  1.00  0.00    -0.180 NA
HETATM   26  C   UNL     1      -5.565   0.136 -33.428  1.00  0.00     0.153 A 
HETATM   27  C   UNL     1      -4.881  -1.118 -33.287  1.00  0.00     0.028 A 
HETATM   28  C   UNL     1      -3.785  -1.186 -32.466  1.00  0.00     0.116 A 
HETATM   29  C   UNL     1      -5.081  -2.401 -33.860  1.00  0.00     0.005 A 
HETATM   30  N   UNL     1      -3.309  -2.465 -32.487  1.00  0.00    -0.350 N 
HETATM   31  C   UNL     1      -3.263  -0.056 -31.758  1.00  0.00     0.291 A 
HETATM   32  H   UNL     1      -2.497  -2.794 -31.979  1.00  0.00     0.166 HD
HETATM   33  C   UNL     1      -4.080  -3.230 -33.339  1.00  0.00     0.044 A 
HETATM   34  C   UNL     1      -3.959  -4.579 -33.693  1.00  0.00     0.030 A 
HETATM   35  C   UNL     1      -4.883  -5.094 -34.608  1.00  0.00     0.002 A 
HETATM   36  C   UNL     1      -5.888  -4.292 -35.144  1.00  0.00     0.001 A 
HETATM   37  C   UNL     1      -6.001  -2.946 -34.777  1.00  0.00     0.014 A 
HETATM   38  O   UNL     1      -2.292  -0.120 -31.012  1.00  0.00    -0.264 OA
ENDBRANCH  23  24
ENDBRANCH   2  23
TORSDOF 7
ENDMDL
MODEL 6
REMARK VINA RESULT:      -9.4      4.616      8.827
REMARK  7 active torsions:
REMARK  status: ('A' for Active; 'I' for Inactive)
REMARK    1  A    between atoms: C_3  and  N_4 
REMARK    2  A    between atoms: N_7  and  C_9 
REMARK    3  A    between atoms: C_9  and  C_10 
REMARK    4  A    between atoms: C_10  and  C_11 
REMARK    5  A    between atoms: C_11  and  N_12 
REMARK       I    between atoms: N_12  and  C_13 
REMARK    6  A    between atoms: C_13  and  C_14 
REMARK    7  A    between atoms: C_14  and  N_15 
ROOT
HETATM    1  N   UNL     1      -5.271   4.338 -32.000  1.00  0.00    -0.360 N 
HETATM    2  C   UNL     1      -4.058   3.787 -32.360  1.00  0.00     0.237 C 
HETATM    3  O   UNL     1      -3.463   4.157 -33.372  1.00  0.00    -0.272 OA
HETATM    4  H   UNL     1      -5.703   3.977 -31.150  1.00  0.00     0.162 HD
ENDROOT
BRANCH   1   5
HETATM    5  C   UNL     1      -5.771   5.530 -32.639  1.00  0.00     0.124 C 
BRANCH   5   6
HETATM    6  C   UNL     1      -7.141   5.309 -33.285  1.00  0.00     0.047 C 
BRANCH   6   7
HETATM    7  C   UNL     1      -8.130   6.356 -32.792  1.00  0.00     0.236 C 
BRANCH   7   8
HETATM    8  N   UNL     1      -9.520   5.780 -32.587  1.00  0.00    -0.068 N 
HETATM    9  C   UNL     1     -10.288   5.578 -33.901  1.00  0.00     0.254 C 
HETATM   10  C   UNL     1     -11.622   4.834 -33.681  1.00  0.00     0.150 C 
HETATM   11  N   UNL     1     -11.349   3.563 -32.986  1.00  0.00    -0.377 N 
HETATM   12  C   UNL     1     -10.779   3.759 -31.644  1.00  0.00     0.150 C 
HETATM   13  C   UNL     1      -9.415   4.468 -31.782  1.00  0.00     0.254 C 
HETATM   14  H   UNL     1     -10.060   6.442 -32.014  1.00  0.00     0.280 HD
BRANCH  11  15
HETATM   15  C   UNL     1     -12.350   2.595 -33.149  1.00  0.00     0.037 A 
HETATM   16  C   UNL     1     -12.026   1.325 -33.692  1.00  0.00    -0.035 A 
HETATM   17  C   UNL     1     -10.624   0.955 -34.097  1.00  0.00     0.050 C 
HETATM   18  C   UNL     1     -13.033   0.359 -33.875  1.00  0.00     0.011 A 
HETATM   19  C   UNL     1     -14.346   0.616 -33.493  1.00  0.00     0.024 A 
HETATM   20  C   UNL     1     -14.663   1.848 -32.937  1.00  0.00     0.036 A 
HETATM   21  C   UNL     1     -13.681   2.828 -32.769  1.00  0.00     0.053 A 
HETATM   22 CL   UNL     1     -16.281   2.174 -32.451  1.00  0.00    -0.084 Cl
ENDBRANCH  11  15
ENDBRANCH   7   8
ENDBRANCH   6   7
ENDBRANCH   5   6
ENDBRANCH   1   5
BRANCH   2  23
HETATM   23  C   UNL     1      -3.595   2.596 -31.525  1.00  0.00     0.257 C 
BRANCH  23  24
HETATM   24  N   UNL     1      -4.080   1.316 -32.033  1.00  0.00    -0.224 N 
HETATM   25  N   UNL     1      -5.214   1.357 -32.867  1.00  0.00    -0.180 NA
HETATM   26  C   UNL     1      -5.598   0.271 -33.481  1.00  0.00     0.153 A 
HETATM   27  C   UNL     1      -4.901  -0.969 -33.292  1.00  0.00     0.028 A 
HETATM   28  C   UNL     1      -3.831  -1.003 -32.435  1.00  0.00     0.116 A 
HETATM   29  C   UNL     1      -5.066  -2.266 -33.843  1.00  0.00     0.005 A 
HETATM   30  N   UNL     1      -3.336  -2.276 -32.414  1.00  0.00    -0.350 N 
HETATM   31  C   UNL     1      -3.347   0.149 -31.736  1.00  0.00     0.291 A 
HETATM   32  H   UNL     1      -2.536  -2.582 -31.875  1.00  0.00     0.166 HD
HETATM   33  C   UNL     1      -4.069  -3.069 -33.274  1.00  0.00     0.044 A 
HETATM   34  C   UNL     1      -3.919  -4.424 -33.594  1.00  0.00     0.030 A 
HETATM   35  C   UNL     1      -4.806  -4.971 -34.527  1.00  0.00     0.002 A 
HETATM   36  C   UNL     1      -5.805  -4.196 -35.111  1.00  0.00     0.001 A 
HETATM   37  C   UNL     1      -5.948  -2.844 -34.777  1.00  0.00     0.014 A 
HETATM   38  O   UNL     1      -2.400   0.115 -30.959  1.00  0.00    -0.264 OA
ENDBRANCH  23  24
ENDBRANCH   2  23
TORSDOF 7
ENDMDL
MODEL 7
REMARK VINA RESULT:      -9.3      3.165      9.206
REMARK  7 active torsions:
REMARK  status: ('A' for Active; 'I' for Inactive)
REMARK    1  A    between atoms: C_3  and  N_4 
REMARK    2  A    between atoms: N_7  and  C_9 
REMARK    3  A    between atoms: C_9  and  C_10 
REMARK    4  A    between atoms: C_10  and  C_11 
REMARK    5  A    between atoms: C_11  and  N_12 
REMARK       I    between atoms: N_12  and  C_13 
REMARK    6  A    between atoms: C_13  and  C_14 
REMARK    7  A    between atoms: C_14  and  N_15 
ROOT
HETATM    1  N   UNL     1      -7.238   4.369 -32.597  1.00  0.00    -0.360 N 
HETATM    2  C   UNL     1      -6.097   3.980 -33.269  1.00  0.00     0.237 C 
HETATM    3  O   UNL     1      -5.906   4.298 -34.443  1.00  0.00    -0.272 OA
HETATM    4  H   UNL     1      -7.324   4.064 -31.629  1.00  0.00     0.162 HD
ENDROOT
BRANCH   1   5
HETATM    5  C   UNL     1      -8.129   5.362 -33.146  1.00  0.00     0.124 C 
BRANCH   5   6
HETATM    6  C   UNL     1      -7.985   6.717 -32.449  1.00  0.00     0.047 C 
BRANCH   6   7
HETATM    7  C   UNL     1      -7.764   6.519 -30.957  1.00  0.00     0.236 C 
BRANCH   7   8
HETATM    8  N   UNL     1      -6.386   6.980 -30.515  1.00  0.00    -0.068 N 
HETATM    9  C   UNL     1      -5.652   5.943 -29.650  1.00  0.00     0.254 C 
HETATM   10  C   UNL     1      -4.195   6.361 -29.361  1.00  0.00     0.150 C 
HETATM   11  N   UNL     1      -3.510   6.613 -30.642  1.00  0.00    -0.377 N 
HETATM   12  C   UNL     1      -4.101   7.733 -31.393  1.00  0.00     0.150 C 
HETATM   13  C   UNL     1      -5.557   7.374 -31.755  1.00  0.00     0.254 C 
HETATM   14  H   UNL     1      -6.498   7.829 -29.946  1.00  0.00     0.280 HD
BRANCH  11  15
HETATM   15  C   UNL     1      -2.113   6.524 -30.572  1.00  0.00     0.037 A 
HETATM   16  C   UNL     1      -1.413   5.659 -31.450  1.00  0.00    -0.035 A 
HETATM   17  C   UNL     1      -2.114   4.824 -32.490  1.00  0.00     0.050 C 
HETATM   18  C   UNL     1      -0.012   5.551 -31.367  1.00  0.00     0.011 A 
HETATM   19  C   UNL     1       0.709   6.317 -30.455  1.00  0.00     0.024 A 
HETATM   20  C   UNL     1       0.031   7.184 -29.611  1.00  0.00     0.036 A 
HETATM   21  C   UNL     1      -1.362   7.286 -29.662  1.00  0.00     0.053 A 
HETATM   22 CL   UNL     1       0.912   8.142 -28.485  1.00  0.00    -0.084 Cl
ENDBRANCH  11  15
ENDBRANCH   7   8
ENDBRANCH   6   7
ENDBRANCH   5   6
ENDBRANCH   1   5
BRANCH   2  23
HETATM   23  C   UNL     1      -5.185   3.009 -32.523  1.00  0.00     0.257 C 
BRANCH  23  24
HETATM   24  N   UNL     1      -5.458   1.610 -32.837  1.00  0.00    -0.224 N 
HETATM   25  N   UNL     1      -6.748   1.311 -33.317  1.00  0.00    -0.180 NA
HETATM   26  C   UNL     1      -7.004   0.112 -33.766  1.00  0.00     0.153 A 
HETATM   27  C   UNL     1      -6.000  -0.913 -33.746  1.00  0.00     0.028 A 
HETATM   28  C   UNL     1      -4.765  -0.619 -33.225  1.00  0.00     0.116 A 
HETATM   29  C   UNL     1      -5.982  -2.260 -34.190  1.00  0.00     0.005 A 
HETATM   30  N   UNL     1      -3.986  -1.739 -33.308  1.00  0.00    -0.350 N 
HETATM   31  C   UNL     1      -4.410   0.674 -32.725  1.00  0.00     0.291 A 
HETATM   32  H   UNL     1      -3.022  -1.801 -33.007  1.00  0.00     0.166 HD
HETATM   33  C   UNL     1      -4.704  -2.757 -33.902  1.00  0.00     0.044 A 
HETATM   34  C   UNL     1      -4.317  -4.066 -34.212  1.00  0.00     0.030 A 
HETATM   35  C   UNL     1      -5.259  -4.888 -34.840  1.00  0.00     0.002 A 
HETATM   36  C   UNL     1      -6.536  -4.420 -35.140  1.00  0.00     0.001 A 
HETATM   37  C   UNL     1      -6.912  -3.111 -34.819  1.00  0.00     0.014 A 
HETATM   38  O   UNL     1      -3.311   0.931 -32.246  1.00  0.00    -0.264 OA
ENDBRANCH  23  24
ENDBRANCH   2  23
TORSDOF 7
ENDMDL
MODEL 8
REMARK VINA RESULT:      -9.3      3.232     10.536
REMARK  7 active torsions:
REMARK  status: ('A' for Active; 'I' for Inactive)
REMARK    1  A    between atoms: C_3  and  N_4 
REMARK    2  A    between atoms: N_7  and  C_9 
REMARK    3  A    between atoms: C_9  and  C_10 
REMARK    4  A    between atoms: C_10  and  C_11 
REMARK    5  A    between atoms: C_11  and  N_12 
REMARK       I    between atoms: N_12  and  C_13 
REMARK    6  A    between atoms: C_13  and  C_14 
REMARK    7  A    between atoms: C_14  and  N_15 
ROOT
HETATM    1  N   UNL     1      -3.101   3.970 -33.424  1.00  0.00    -0.360 N 
HETATM    2  C   UNL     1      -3.792   4.006 -32.230  1.00  0.00     0.237 C 
HETATM    3  O   UNL     1      -3.306   4.530 -31.226  1.00  0.00    -0.272 OA
HETATM    4  H   UNL     1      -3.569   3.516 -34.208  1.00  0.00     0.162 HD
ENDROOT
BRANCH   1   5
HETATM    5  C   UNL     1      -1.905   4.751 -33.622  1.00  0.00     0.124 C 
BRANCH   5   6
HETATM    6  C   UNL     1      -2.217   6.207 -33.977  1.00  0.00     0.047 C 
BRANCH   6   7
HETATM    7  C   UNL     1      -1.335   7.145 -33.167  1.00  0.00     0.236 C 
BRANCH   7   8
HETATM    8  N   UNL     1      -1.670   7.112 -31.686  1.00  0.00    -0.068 N 
HETATM    9  C   UNL     1      -0.523   6.567 -30.821  1.00  0.00     0.254 C 
HETATM   10  C   UNL     1      -0.822   6.705 -29.313  1.00  0.00     0.150 C 
HETATM   11  N   UNL     1      -1.131   8.116 -29.017  1.00  0.00    -0.377 N 
HETATM   12  C   UNL     1      -2.342   8.590 -29.706  1.00  0.00     0.150 C 
HETATM   13  C   UNL     1      -2.107   8.519 -31.229  1.00  0.00     0.254 C 
HETATM   14  H   UNL     1      -2.476   6.488 -31.553  1.00  0.00     0.280 HD
BRANCH  11  15
HETATM   15  C   UNL     1      -0.946   8.473 -27.674  1.00  0.00     0.037 A 
HETATM   16  C   UNL     1       0.354   8.767 -27.191  1.00  0.00    -0.035 A 
HETATM   17  C   UNL     1       1.572   8.727 -28.076  1.00  0.00     0.050 C 
HETATM   18  C   UNL     1       0.544   9.106 -25.838  1.00  0.00     0.011 A 
HETATM   19  C   UNL     1      -0.538   9.196 -24.967  1.00  0.00     0.024 A 
HETATM   20  C   UNL     1      -1.816   8.935 -25.441  1.00  0.00     0.036 A 
HETATM   21  C   UNL     1      -2.021   8.573 -26.776  1.00  0.00     0.053 A 
HETATM   22 CL   UNL     1      -3.162   9.053 -24.376  1.00  0.00    -0.084 Cl
ENDBRANCH  11  15
ENDBRANCH   7   8
ENDBRANCH   6   7
ENDBRANCH   5   6
ENDBRANCH   1   5
BRANCH   2  23
HETATM   23  C   UNL     1      -5.102   3.223 -32.195  1.00  0.00     0.257 C 
BRANCH  23  24
HETATM   24  N   UNL     1      -4.977   1.873 -32.735  1.00  0.00    -0.224 N 
HETATM   25  N   UNL     1      -3.779   1.189 -32.453  1.00  0.00    -0.180 NA
HETATM   26  C   UNL     1      -3.671  -0.073 -32.768  1.00  0.00     0.153 A 
HETATM   27  C   UNL     1      -4.743  -0.763 -33.427  1.00  0.00     0.028 A 
HETATM   28  C   UNL     1      -5.883  -0.068 -33.742  1.00  0.00     0.116 A 
HETATM   29  C   UNL     1      -4.918  -2.108 -33.845  1.00  0.00     0.005 A 
HETATM   30  N   UNL     1      -6.751  -0.922 -34.360  1.00  0.00    -0.350 N 
HETATM   31  C   UNL     1      -6.076   1.313 -33.419  1.00  0.00     0.291 A 
HETATM   32  H   UNL     1      -7.677  -0.676 -34.689  1.00  0.00     0.166 HD
HETATM   33  C   UNL     1      -6.189  -2.180 -34.430  1.00  0.00     0.044 A 
HETATM   34  C   UNL     1      -6.710  -3.370 -34.953  1.00  0.00     0.030 A 
HETATM   35  C   UNL     1      -5.915  -4.517 -34.871  1.00  0.00     0.002 A 
HETATM   36  C   UNL     1      -4.648  -4.475 -34.293  1.00  0.00     0.001 A 
HETATM   37  C   UNL     1      -4.136  -3.278 -33.779  1.00  0.00     0.014 A 
HETATM   38  O   UNL     1      -7.088   1.938 -33.714  1.00  0.00    -0.264 OA
ENDBRANCH  23  24
ENDBRANCH   2  23
TORSDOF 7
ENDMDL
MODEL 9
REMARK VINA RESULT:      -9.2      1.989      3.101
REMARK  7 active torsions:
REMARK  status: ('A' for Active; 'I' for Inactive)
REMARK    1  A    between atoms: C_3  and  N_4 
REMARK    2  A    between atoms: N_7  and  C_9 
REMARK    3  A    between atoms: C_9  and  C_10 
REMARK    4  A    between atoms: C_10  and  C_11 
REMARK    5  A    between atoms: C_11  and  N_12 
REMARK       I    between atoms: N_12  and  C_13 
REMARK    6  A    between atoms: C_13  and  C_14 
REMARK    7  A    between atoms: C_14  and  N_15 
ROOT
HETATM    1  N   UNL     1      -3.870   4.960 -30.852  1.00  0.00    -0.360 N 
HETATM    2  C   UNL     1      -2.721   4.390 -31.363  1.00  0.00     0.237 C 
HETATM    3  O   UNL     1      -2.603   3.168 -31.461  1.00  0.00    -0.272 OA
HETATM    4  H   UNL     1      -3.889   5.978 -30.800  1.00  0.00     0.162 HD
ENDROOT
BRANCH   1   5
HETATM    5  C   UNL     1      -5.066   4.181 -30.647  1.00  0.00     0.124 C 
BRANCH   5   6
HETATM    6  C   UNL     1      -6.158   4.520 -31.664  1.00  0.00     0.047 C 
BRANCH   6   7
HETATM    7  C   UNL     1      -7.349   3.589 -31.485  1.00  0.00     0.236 C 
BRANCH   7   8
HETATM    8  N   UNL     1      -7.300   2.406 -32.437  1.00  0.00    -0.068 N 
HETATM    9  C   UNL     1      -5.936   2.241 -33.124  1.00  0.00     0.254 C 
HETATM   10  C   UNL     1      -5.859   0.939 -33.948  1.00  0.00     0.150 C 
HETATM   11  N   UNL     1      -6.190  -0.199 -33.071  1.00  0.00    -0.377 N 
HETATM   12  C   UNL     1      -7.567  -0.138 -32.554  1.00  0.00     0.150 C 
HETATM   13  C   UNL     1      -7.715   1.126 -31.682  1.00  0.00     0.254 C 
HETATM   14  H   UNL     1      -7.999   2.560 -33.175  1.00  0.00     0.280 HD
BRANCH  11  15
HETATM   15  C   UNL     1      -5.704  -1.433 -33.525  1.00  0.00     0.037 A 
HETATM   16  C   UNL     1      -4.390  -1.845 -33.188  1.00  0.00    -0.035 A 
HETATM   17  C   UNL     1      -3.476  -1.007 -32.333  1.00  0.00     0.050 C 
HETATM   18  C   UNL     1      -3.893  -3.074 -33.660  1.00  0.00     0.011 A 
HETATM   19  C   UNL     1      -4.690  -3.918 -34.427  1.00  0.00     0.024 A 
HETATM   20  C   UNL     1      -5.986  -3.531 -34.738  1.00  0.00     0.036 A 
HETATM   21  C   UNL     1      -6.489  -2.303 -34.298  1.00  0.00     0.053 A 
HETATM   22 CL   UNL     1      -6.985  -4.570 -35.678  1.00  0.00    -0.084 Cl
ENDBRANCH  11  15
ENDBRANCH   7   8
ENDBRANCH   6   7
ENDBRANCH   5   6
ENDBRANCH   1   5
BRANCH   2  23
HETATM   23  C   UNL     1      -1.567   5.351 -31.638  1.00  0.00     0.257 C 
BRANCH  23  24
HETATM   24  N   UNL     1      -1.008   5.938 -30.424  1.00  0.00    -0.224 N 
HETATM   25  N   UNL     1      -0.034   5.179 -29.747  1.00  0.00    -0.180 NA
HETATM   26  C   UNL     1       0.618   5.714 -28.750  1.00  0.00     0.153 A 
HETATM   27  C   UNL     1       0.331   7.051 -28.315  1.00  0.00     0.028 A 
HETATM   28  C   UNL     1      -0.658   7.757 -28.951  1.00  0.00     0.116 A 
HETATM   29  C   UNL     1       0.890   7.884 -27.311  1.00  0.00     0.005 A 
HETATM   30  N   UNL     1      -0.752   8.988 -28.367  1.00  0.00    -0.350 N 
HETATM   31  C   UNL     1      -1.406   7.240 -30.056  1.00  0.00     0.291 A 
HETATM   32  H   UNL     1      -1.393   9.719 -28.648  1.00  0.00     0.166 HD
HETATM   33  C   UNL     1       0.190   9.096 -27.364  1.00  0.00     0.044 A 
HETATM   34  C   UNL     1       0.479  10.170 -26.514  1.00  0.00     0.030 A 
HETATM   35  C   UNL     1       1.516  10.005 -25.590  1.00  0.00     0.002 A 
HETATM   36  C   UNL     1       2.230   8.812 -25.516  1.00  0.00     0.001 A 
HETATM   37  C   UNL     1       1.927   7.743 -26.367  1.00  0.00     0.014 A 
HETATM   38  O   UNL     1      -2.301   7.865 -30.614  1.00  0.00    -0.264 OA
ENDBRANCH  23  24
ENDBRANCH   2  23
TORSDOF 7
ENDMDL
MODEL 10
REMARK VINA RESULT:      -9.1      5.317      8.849
REMARK  7 active torsions:
REMARK  status: ('A' for Active; 'I' for Inactive)
REMARK    1  A    between atoms: C_3  and  N_4 
REMARK    2  A    between atoms: N_7  and  C_9 
REMARK    3  A    between atoms: C_9  and  C_10 
REMARK    4  A    between atoms: C_10  and  C_11 
REMARK    5  A    between atoms: C_11  and  N_12 
REMARK       I    between atoms: N_12  and  C_13 
REMARK    6  A    between atoms: C_13  and  C_14 
REMARK    7  A    between atoms: C_14  and  N_15 
ROOT
HETATM    1  N   UNL     1      -7.971   4.058 -32.068  1.00  0.00    -0.360 N 
HETATM    2  C   UNL     1      -8.001   4.060 -33.448  1.00  0.00     0.237 C 
HETATM    3  O   UNL     1      -7.295   4.829 -34.102  1.00  0.00    -0.272 OA
HETATM    4  H   UNL     1      -8.586   3.395 -31.599  1.00  0.00     0.162 HD
ENDROOT
BRANCH   1   5
HETATM    5  C   UNL     1      -6.946   4.766 -31.340  1.00  0.00     0.124 C 
BRANCH   5   6
HETATM    6  C   UNL     1      -6.322   3.907 -30.238  1.00  0.00     0.047 C 
BRANCH   6   7
HETATM    7  C   UNL     1      -4.862   3.622 -30.559  1.00  0.00     0.236 C 
BRANCH   7   8
HETATM    8  N   UNL     1      -4.617   2.153 -30.859  1.00  0.00    -0.068 N 
HETATM    9  C   UNL     1      -5.898   1.307 -30.809  1.00  0.00     0.254 C 
HETATM   10  C   UNL     1      -5.652  -0.140 -31.285  1.00  0.00     0.150 C 
HETATM   11  N   UNL     1      -5.054  -0.102 -32.632  1.00  0.00    -0.377 N 
HETATM   12  C   UNL     1      -3.735   0.551 -32.651  1.00  0.00     0.150 C 
HETATM   13  C   UNL     1      -3.902   2.022 -32.220  1.00  0.00     0.254 C 
HETATM   14  H   UNL     1      -3.977   1.782 -30.146  1.00  0.00     0.280 HD
BRANCH  11  15
HETATM   15  C   UNL     1      -5.222  -1.284 -33.368  1.00  0.00     0.037 A 
HETATM   16  C   UNL     1      -6.339  -1.431 -34.227  1.00  0.00    -0.035 A 
HETATM   17  C   UNL     1      -7.371  -0.347 -34.403  1.00  0.00     0.050 C 
HETATM   18  C   UNL     1      -6.521  -2.625 -34.950  1.00  0.00     0.011 A 
HETATM   19  C   UNL     1      -5.592  -3.658 -34.865  1.00  0.00     0.024 A 
HETATM   20  C   UNL     1      -4.483  -3.508 -34.046  1.00  0.00     0.036 A 
HETATM   21  C   UNL     1      -4.298  -2.340 -33.301  1.00  0.00     0.053 A 
HETATM   22 CL   UNL     1      -3.323  -4.775 -33.940  1.00  0.00    -0.084 Cl
ENDBRANCH  11  15
ENDBRANCH   7   8
ENDBRANCH   6   7
ENDBRANCH   5   6
ENDBRANCH   1   5
BRANCH   2  23
HETATM   23  C   UNL     1      -9.068   3.177 -34.091  1.00  0.00     0.257 C 
BRANCH  23  24
HETATM   24  N   UNL     1     -10.397   3.379 -33.523  1.00  0.00    -0.224 N 
HETATM   25  N   UNL     1     -10.779   4.711 -33.268  1.00  0.00    -0.180 NA
HETATM   26  C   UNL     1     -12.008   4.969 -32.913  1.00  0.00     0.153 A 
HETATM   27  C   UNL     1     -12.966   3.913 -32.747  1.00  0.00     0.028 A 
HETATM   28  C   UNL     1     -12.563   2.617 -32.948  1.00  0.00     0.116 A 
HETATM   29  C   UNL     1     -14.345   3.899 -32.415  1.00  0.00     0.005 A 
HETATM   30  N   UNL     1     -13.633   1.796 -32.731  1.00  0.00    -0.350 N 
HETATM   31  C   UNL     1     -11.236   2.259 -33.348  1.00  0.00     0.291 A 
HETATM   32  H   UNL     1     -13.621   0.787 -32.822  1.00  0.00     0.166 HD
HETATM   33  C   UNL     1     -14.739   2.555 -32.410  1.00  0.00     0.044 A 
HETATM   34  C   UNL     1     -16.052   2.156 -32.129  1.00  0.00     0.030 A 
HETATM   35  C   UNL     1     -16.988   3.157 -31.852  1.00  0.00     0.002 A 
HETATM   36  C   UNL     1     -16.624   4.502 -31.851  1.00  0.00     0.001 A 
HETATM   37  C   UNL     1     -15.307   4.887 -32.128  1.00  0.00     0.014 A 
HETATM   38  O   UNL     1     -10.872   1.100 -33.512  1.00  0.00    -0.264 OA
ENDBRANCH  23  24
ENDBRANCH   2  23
TORSDOF 7
ENDMDL
