MODEL 1
REMARK VINA RESULT:      -9.3      0.000      0.000
REMARK  11 active torsions:
REMARK  status: ('A' for Active; 'I' for Inactive)
REMARK    1  A    between atoms: C_2  and  O_3 
REMARK    2  A    between atoms: O_3  and  C_4 
REMARK    3  A    between atoms: C_5  and  O_6 
REMARK    4  A    between atoms: C_9  and  C_10 
REMARK    5  A    between atoms: N_11  and  C_12 
REMARK    6  A    between atoms: C_12  and  C_13 
REMARK    7  A    between atoms: C_13  and  C_14 
REMARK    8  A    between atoms: C_14  and  N_15 
REMARK    9  A    between atoms: C_24  and  O_25 
REMARK   10  A    between atoms: C_26  and  C_27 
REMARK   11  A    between atoms: C_27  and  C_28 
ROOT
HETATM    1  C   UNL     1      -6.010   2.411 -32.700  1.00  0.00     0.161 C 
HETATM    2  N   UNL     1      -7.104   3.105 -32.025  1.00  0.00    -0.333 N 
HETATM    3  C   UNL     1      -7.154   2.797 -30.686  1.00  0.00     0.278 C 
HETATM    4  O   UNL     1      -8.022   3.128 -29.891  1.00  0.00    -0.265 OA
HETATM    5  C   UNL     1      -6.138   1.759 -30.428  1.00  0.00     0.146 C 
HETATM    6  C   UNL     1      -5.602   1.448 -31.616  1.00  0.00     0.059 C 
ENDROOT
BRANCH   1   7
HETATM    7  C   UNL     1      -4.932   3.392 -33.142  1.00  0.00    -0.028 A 
HETATM    8  C   UNL     1      -5.124   4.271 -34.229  1.00  0.00     0.012 A 
HETATM    9  C   UNL     1      -4.124   5.157 -34.624  1.00  0.00     0.040 A 
HETATM   10  C   UNL     1      -2.917   5.164 -33.945  1.00  0.00     0.099 A 
HETATM   11  C   UNL     1      -2.687   4.314 -32.861  1.00  0.00     0.102 A 
HETATM   12  C   UNL     1      -3.690   3.421 -32.470  1.00  0.00     0.049 A 
BRANCH  10  13
HETATM   13  O   UNL     1      -1.953   6.043 -34.354  1.00  0.00    -0.358 OA
HETATM   14  H   UNL     1      -1.801   5.840 -35.298  1.00  0.00     0.218 HD
ENDBRANCH  10  13
BRANCH  11  15
HETATM   15  O   UNL     1      -1.446   4.432 -32.294  1.00  0.00    -0.349 OA
BRANCH  15  16
HETATM   16  C   UNL     1      -1.356   5.205 -31.099  1.00  0.00     0.171 C 
HETATM   17  C   UNL     1      -0.066   6.002 -31.165  1.00  0.00     0.034 C 
ENDBRANCH  15  16
ENDBRANCH  11  15
ENDBRANCH   1   7
BRANCH   2  18
HETATM   18  C   UNL     1      -8.193   3.757 -32.728  1.00  0.00     0.129 C 
BRANCH  18  19
HETATM   19  C   UNL     1      -8.938   2.826 -33.696  1.00  0.00     0.048 C 
BRANCH  19  20
HETATM   20  C   UNL     1      -9.854   1.762 -33.082  1.00  0.00     0.236 C 
BRANCH  20  21
HETATM   21  N   UNL     1     -11.305   1.905 -33.457  1.00  0.00    -0.067 N 
HETATM   22  H   UNL     1     -11.807   2.347 -32.659  1.00  0.00     0.280 HD
HETATM   23  C   UNL     1     -11.540   2.728 -34.716  1.00  0.00     0.261 C 
HETATM   24  C   UNL     1     -13.035   2.779 -35.048  1.00  0.00     0.195 C 
HETATM   25  O   UNL     1     -13.581   1.463 -35.183  1.00  0.00    -0.388 OA
HETATM   26  C   UNL     1     -13.456   0.722 -33.965  1.00  0.00     0.195 C 
HETATM   27  C   UNL     1     -11.980   0.536 -33.599  1.00  0.00     0.261 C 
ENDBRANCH  20  21
ENDBRANCH  19  20
ENDBRANCH  18  19
ENDBRANCH   2  18
BRANCH   6  28
HETATM   28  C   UNL     1      -4.729   0.313 -31.982  1.00  0.00     0.193 C 
HETATM   29  O   UNL     1      -3.547   0.322 -31.652  1.00  0.00    -0.287 OA
BRANCH  28  30
HETATM   30  C   UNL     1      -5.235  -0.787 -32.833  1.00  0.00     0.015 A 
HETATM   31  C   UNL     1      -6.588  -0.879 -33.183  1.00  0.00     0.016 A 
HETATM   32  C   UNL     1      -7.028  -1.920 -34.003  1.00  0.00     0.007 A 
HETATM   33  C   UNL     1      -6.120  -2.863 -34.496  1.00  0.00    -0.062 A 
HETATM   34  C   UNL     1      -6.586  -3.971 -35.395  1.00  0.00     0.048 C 
HETATM   35  C   UNL     1      -4.759  -2.728 -34.193  1.00  0.00     0.007 A 
HETATM   36  C   UNL     1      -4.316  -1.692 -33.368  1.00  0.00     0.016 A 
ENDBRANCH  28  30
ENDBRANCH   6  28
BRANCH   5  37
HETATM   37  O   UNL     1      -5.979   1.159 -29.219  1.00  0.00    -0.355 OA
HETATM   38  H   UNL     1      -6.862   0.865 -28.919  1.00  0.00     0.218 HD
ENDBRANCH   5  37
TORSDOF 11
ENDMDL
MODEL 2
REMARK VINA RESULT:      -9.1      2.134      7.670
REMARK  11 active torsions:
REMARK  status: ('A' for Active; 'I' for Inactive)
REMARK    1  A    between atoms: C_2  and  O_3 
REMARK    2  A    between atoms: O_3  and  C_4 
REMARK    3  A    between atoms: C_5  and  O_6 
REMARK    4  A    between atoms: C_9  and  C_10 
REMARK    5  A    between atoms: N_11  and  C_12 
REMARK    6  A    between atoms: C_12  and  C_13 
REMARK    7  A    between atoms: C_13  and  C_14 
REMARK    8  A    between atoms: C_14  and  N_15 
REMARK    9  A    between atoms: C_24  and  O_25 
REMARK   10  A    between atoms: C_26  and  C_27 
REMARK   11  A    between atoms: C_27  and  C_28 
ROOT
HETATM    1  C   UNL     1      -6.410   1.921 -32.627  1.00  0.00     0.161 C 
HETATM    2  N   UNL     1      -5.508   2.945 -32.107  1.00  0.00    -0.333 N 
HETATM    3  C   UNL     1      -5.859   3.337 -30.837  1.00  0.00     0.278 C 
HETATM    4  O   UNL     1      -5.368   4.252 -30.192  1.00  0.00    -0.265 OA
HETATM    5  C   UNL     1      -7.123   2.657 -30.494  1.00  0.00     0.146 C 
HETATM    6  C   UNL     1      -7.495   1.973 -31.583  1.00  0.00     0.059 C 
ENDROOT
BRANCH   1   7
HETATM    7  C   UNL     1      -5.697   0.582 -32.762  1.00  0.00    -0.028 A 
HETATM    8  C   UNL     1      -4.695   0.177 -31.855  1.00  0.00     0.012 A 
HETATM    9  C   UNL     1      -4.047  -1.049 -31.998  1.00  0.00     0.040 A 
HETATM   10  C   UNL     1      -4.387  -1.876 -33.055  1.00  0.00     0.099 A 
HETATM   11  C   UNL     1      -5.377  -1.515 -33.972  1.00  0.00     0.102 A 
HETATM   12  C   UNL     1      -6.021  -0.282 -33.831  1.00  0.00     0.049 A 
BRANCH  10  13
HETATM   13  O   UNL     1      -3.736  -3.072 -33.172  1.00  0.00    -0.358 OA
HETATM   14  H   UNL     1      -3.304  -3.049 -34.047  1.00  0.00     0.218 HD
ENDBRANCH  10  13
BRANCH  11  15
HETATM   15  O   UNL     1      -5.598  -2.432 -34.965  1.00  0.00    -0.349 OA
BRANCH  15  16
HETATM   16  C   UNL     1      -6.728  -3.288 -34.809  1.00  0.00     0.171 C 
HETATM   17  C   UNL     1      -6.362  -4.642 -35.392  1.00  0.00     0.034 C 
ENDBRANCH  15  16
ENDBRANCH  11  15
ENDBRANCH   1   7
BRANCH   2  18
HETATM   18  C   UNL     1      -4.579   3.690 -32.936  1.00  0.00     0.129 C 
BRANCH  18  19
HETATM   19  C   UNL     1      -3.109   3.334 -32.676  1.00  0.00     0.048 C 
BRANCH  19  20
HETATM   20  C   UNL     1      -2.353   4.181 -31.647  1.00  0.00     0.236 C 
BRANCH  20  21
HETATM   21  N   UNL     1      -1.713   5.419 -32.216  1.00  0.00    -0.067 N 
HETATM   22  H   UNL     1      -0.820   5.588 -31.708  1.00  0.00     0.280 HD
HETATM   23  C   UNL     1      -1.435   5.340 -33.710  1.00  0.00     0.261 C 
HETATM   24  C   UNL     1      -0.831   6.656 -34.211  1.00  0.00     0.195 C 
HETATM   25  O   UNL     1      -1.680   7.767 -33.902  1.00  0.00    -0.388 OA
HETATM   26  C   UNL     1      -1.859   7.907 -32.489  1.00  0.00     0.195 C 
HETATM   27  C   UNL     1      -2.549   6.668 -31.910  1.00  0.00     0.261 C 
ENDBRANCH  20  21
ENDBRANCH  19  20
ENDBRANCH  18  19
ENDBRANCH   2  18
BRANCH   6  28
HETATM   28  C   UNL     1      -8.788   1.323 -31.885  1.00  0.00     0.193 C 
HETATM   29  O   UNL     1      -9.077   0.260 -31.345  1.00  0.00    -0.287 OA
BRANCH  28  30
HETATM   30  C   UNL     1      -9.694   1.883 -32.913  1.00  0.00     0.015 A 
HETATM   31  C   UNL     1      -9.582   3.211 -33.343  1.00  0.00     0.016 A 
HETATM   32  C   UNL     1     -10.442   3.702 -34.328  1.00  0.00     0.007 A 
HETATM   33  C   UNL     1     -11.405   2.867 -34.904  1.00  0.00    -0.062 A 
HETATM   34  C   UNL     1     -12.318   3.385 -35.977  1.00  0.00     0.048 C 
HETATM   35  C   UNL     1     -11.470   1.524 -34.514  1.00  0.00     0.007 A 
HETATM   36  C   UNL     1     -10.615   1.031 -33.525  1.00  0.00     0.016 A 
ENDBRANCH  28  30
ENDBRANCH   6  28
BRANCH   5  37
HETATM   37  O   UNL     1      -7.802   2.890 -29.339  1.00  0.00    -0.355 OA
HETATM   38  H   UNL     1      -8.128   3.811 -29.371  1.00  0.00     0.218 HD
ENDBRANCH   5  37
TORSDOF 11
ENDMDL
MODEL 3
REMARK VINA RESULT:      -9.0      1.563      2.122
REMARK  11 active torsions:
REMARK  status: ('A' for Active; 'I' for Inactive)
REMARK    1  A    between atoms: C_2  and  O_3 
REMARK    2  A    between atoms: O_3  and  C_4 
REMARK    3  A    between atoms: C_5  and  O_6 
REMARK    4  A    between atoms: C_9  and  C_10 
REMARK    5  A    between atoms: N_11  and  C_12 
REMARK    6  A    between atoms: C_12  and  C_13 
REMARK    7  A    between atoms: C_13  and  C_14 
REMARK    8  A    between atoms: C_14  and  N_15 
REMARK    9  A    between atoms: C_24  and  O_25 
REMARK   10  A    between atoms: C_26  and  C_27 
REMARK   11  A    between atoms: C_27  and  C_28 
ROOT
HETATM    1  C   UNL     1      -6.757   2.748 -32.980  1.00  0.00     0.161 C 
HETATM    2  N   UNL     1      -8.070   3.001 -32.392  1.00  0.00    -0.333 N 
HETATM    3  C   UNL     1      -8.295   2.214 -31.287  1.00  0.00     0.278 C 
HETATM    4  O   UNL     1      -9.339   2.116 -30.658  1.00  0.00    -0.265 OA
HETATM    5  C   UNL     1      -7.154   1.288 -31.160  1.00  0.00     0.146 C 
HETATM    6  C   UNL     1      -6.364   1.509 -32.219  1.00  0.00     0.059 C 
ENDROOT
BRANCH   1   7
HETATM    7  C   UNL     1      -5.836   3.947 -32.795  1.00  0.00    -0.028 A 
HETATM    8  C   UNL     1      -5.783   4.665 -31.582  1.00  0.00     0.012 A 
HETATM    9  C   UNL     1      -4.940   5.765 -31.433  1.00  0.00     0.040 A 
HETATM   10  C   UNL     1      -4.151   6.165 -32.499  1.00  0.00     0.099 A 
HETATM   11  C   UNL     1      -4.171   5.479 -33.716  1.00  0.00     0.102 A 
HETATM   12  C   UNL     1      -5.022   4.380 -33.865  1.00  0.00     0.049 A 
BRANCH  10  13
HETATM   13  O   UNL     1      -3.334   7.247 -32.326  1.00  0.00    -0.358 OA
HETATM   14  H   UNL     1      -3.932   7.997 -32.144  1.00  0.00     0.218 HD
ENDBRANCH  10  13
BRANCH  11  15
HETATM   15  O   UNL     1      -3.342   5.994 -34.677  1.00  0.00    -0.349 OA
BRANCH  15  16
HETATM   16  C   UNL     1      -2.218   5.200 -35.048  1.00  0.00     0.171 C 
HETATM   17  C   UNL     1      -0.977   5.870 -34.483  1.00  0.00     0.034 C 
ENDBRANCH  15  16
ENDBRANCH  11  15
ENDBRANCH   1   7
BRANCH   2  18
HETATM   18  C   UNL     1      -9.125   3.729 -33.072  1.00  0.00     0.129 C 
BRANCH  18  19
HETATM   19  C   UNL     1     -10.308   2.842 -33.487  1.00  0.00     0.048 C 
BRANCH  19  20
HETATM   20  C   UNL     1     -11.709   3.300 -33.070  1.00  0.00     0.236 C 
BRANCH  20  21
HETATM   21  N   UNL     1     -12.709   2.183 -32.932  1.00  0.00    -0.067 N 
HETATM   22  H   UNL     1     -12.580   1.743 -31.997  1.00  0.00     0.280 HD
HETATM   23  C   UNL     1     -14.157   2.627 -33.084  1.00  0.00     0.261 C 
HETATM   24  C   UNL     1     -15.098   1.422 -32.978  1.00  0.00     0.195 C 
HETATM   25  O   UNL     1     -14.763   0.417 -33.940  1.00  0.00    -0.388 OA
HETATM   26  C   UNL     1     -13.436  -0.078 -33.734  1.00  0.00     0.195 C 
HETATM   27  C   UNL     1     -12.411   1.045 -33.915  1.00  0.00     0.261 C 
ENDBRANCH  20  21
ENDBRANCH  19  20
ENDBRANCH  18  19
ENDBRANCH   2  18
BRANCH   6  28
HETATM   28  C   UNL     1      -5.230   0.707 -32.726  1.00  0.00     0.193 C 
HETATM   29  O   UNL     1      -4.088   1.149 -32.647  1.00  0.00    -0.287 OA
BRANCH  28  30
HETATM   30  C   UNL     1      -5.464  -0.576 -33.425  1.00  0.00     0.015 A 
HETATM   31  C   UNL     1      -4.445  -1.524 -33.577  1.00  0.00     0.016 A 
HETATM   32  C   UNL     1      -4.706  -2.733 -34.226  1.00  0.00     0.007 A 
HETATM   33  C   UNL     1      -5.989  -3.012 -34.709  1.00  0.00    -0.062 A 
HETATM   34  C   UNL     1      -6.278  -4.319 -35.389  1.00  0.00     0.048 C 
HETATM   35  C   UNL     1      -7.018  -2.086 -34.498  1.00  0.00     0.007 A 
HETATM   36  C   UNL     1      -6.759  -0.874 -33.855  1.00  0.00     0.016 A 
ENDBRANCH  28  30
ENDBRANCH   6  28
BRANCH   5  37
HETATM   37  O   UNL     1      -7.096   0.305 -30.222  1.00  0.00    -0.355 OA
HETATM   38  H   UNL     1      -6.886   0.728 -29.366  1.00  0.00     0.218 HD
ENDBRANCH   5  37
TORSDOF 11
ENDMDL
MODEL 4
REMARK VINA RESULT:      -9.0      1.903      2.769
REMARK  11 active torsions:
REMARK  status: ('A' for Active; 'I' for Inactive)
REMARK    1  A    between atoms: C_2  and  O_3 
REMARK    2  A    between atoms: O_3  and  C_4 
REMARK    3  A    between atoms: C_5  and  O_6 
REMARK    4  A    between atoms: C_9  and  C_10 
REMARK    5  A    between atoms: N_11  and  C_12 
REMARK    6  A    between atoms: C_12  and  C_13 
REMARK    7  A    between atoms: C_13  and  C_14 
REMARK    8  A    between atoms: C_14  and  N_15 
REMARK    9  A    between atoms: C_24  and  O_25 
REMARK   10  A    between atoms: C_26  and  C_27 
REMARK   11  A    between atoms: C_27  and  C_28 
ROOT
HETATM    1  C   UNL     1      -7.037   2.689 -33.634  1.00  0.00     0.161 C 
HETATM    2  N   UNL     1      -8.136   3.178 -32.806  1.00  0.00    -0.333 N 
HETATM    3  C   UNL     1      -8.895   2.148 -32.303  1.00  0.00     0.278 C 
HETATM    4  O   UNL     1      -9.941   2.246 -31.678  1.00  0.00    -0.265 OA
HETATM    5  C   UNL     1      -8.390   0.893 -32.894  1.00  0.00     0.146 C 
HETATM    6  C   UNL     1      -7.430   1.240 -33.762  1.00  0.00     0.059 C 
ENDROOT
BRANCH   1   7
HETATM    7  C   UNL     1      -5.693   2.944 -32.965  1.00  0.00    -0.028 A 
HETATM    8  C   UNL     1      -5.213   2.124 -31.922  1.00  0.00     0.012 A 
HETATM    9  C   UNL     1      -3.983   2.377 -31.316  1.00  0.00     0.040 A 
HETATM   10  C   UNL     1      -3.228   3.458 -31.738  1.00  0.00     0.099 A 
HETATM   11  C   UNL     1      -3.665   4.292 -32.769  1.00  0.00     0.102 A 
HETATM   12  C   UNL     1      -4.902   4.041 -33.372  1.00  0.00     0.049 A 
BRANCH  10  13
HETATM   13  O   UNL     1      -2.027   3.683 -31.125  1.00  0.00    -0.358 OA
HETATM   14  H   UNL     1      -1.387   3.113 -31.592  1.00  0.00     0.218 HD
ENDBRANCH  10  13
BRANCH  11  15
HETATM   15  O   UNL     1      -2.814   5.322 -33.072  1.00  0.00    -0.349 OA
BRANCH  15  16
HETATM   16  C   UNL     1      -2.702   5.679 -34.448  1.00  0.00     0.171 C 
HETATM   17  C   UNL     1      -1.317   5.270 -34.916  1.00  0.00     0.034 C 
ENDBRANCH  15  16
ENDBRANCH  11  15
ENDBRANCH   1   7
BRANCH   2  18
HETATM   18  C   UNL     1      -8.573   4.562 -32.791  1.00  0.00     0.129 C 
BRANCH  18  19
HETATM   19  C   UNL     1      -9.227   5.009 -34.106  1.00  0.00     0.048 C 
BRANCH  19  20
HETATM   20  C   UNL     1     -10.751   5.167 -34.114  1.00  0.00     0.236 C 
BRANCH  20  21
HETATM   21  N   UNL     1     -11.505   3.899 -33.812  1.00  0.00    -0.067 N 
HETATM   22  H   UNL     1     -11.014   3.403 -33.040  1.00  0.00     0.280 HD
HETATM   23  C   UNL     1     -12.959   4.124 -33.420  1.00  0.00     0.261 C 
HETATM   24  C   UNL     1     -13.659   2.782 -33.179  1.00  0.00     0.195 C 
HETATM   25  O   UNL     1     -13.560   1.932 -34.327  1.00  0.00    -0.388 OA
HETATM   26  C   UNL     1     -12.194   1.634 -34.636  1.00  0.00     0.195 C 
HETATM   27  C   UNL     1     -11.431   2.915 -34.985  1.00  0.00     0.261 C 
ENDBRANCH  20  21
ENDBRANCH  19  20
ENDBRANCH  18  19
ENDBRANCH   2  18
BRANCH   6  28
HETATM   28  C   UNL     1      -6.766   0.424 -34.800  1.00  0.00     0.193 C 
HETATM   29  O   UNL     1      -6.923   0.701 -35.985  1.00  0.00    -0.287 OA
BRANCH  28  30
HETATM   30  C   UNL     1      -6.000  -0.788 -34.434  1.00  0.00     0.015 A 
HETATM   31  C   UNL     1      -6.354  -2.053 -34.919  1.00  0.00     0.016 A 
HETATM   32  C   UNL     1      -5.598  -3.173 -34.569  1.00  0.00     0.007 A 
HETATM   33  C   UNL     1      -4.471  -3.036 -33.750  1.00  0.00    -0.062 A 
HETATM   34  C   UNL     1      -3.644  -4.235 -33.388  1.00  0.00     0.048 C 
HETATM   35  C   UNL     1      -4.087  -1.760 -33.321  1.00  0.00     0.007 A 
HETATM   36  C   UNL     1      -4.845  -0.638 -33.664  1.00  0.00     0.016 A 
ENDBRANCH  28  30
ENDBRANCH   6  28
BRANCH   5  37
HETATM   37  O   UNL     1      -8.974  -0.316 -32.681  1.00  0.00    -0.355 OA
HETATM   38  H   UNL     1      -8.476  -0.761 -31.967  1.00  0.00     0.218 HD
ENDBRANCH   5  37
TORSDOF 11
ENDMDL
MODEL 5
REMARK VINA RESULT:      -8.6      2.836      4.741
REMARK  11 active torsions:
REMARK  status: ('A' for Active; 'I' for Inactive)
REMARK    1  A    between atoms: C_2  and  O_3 
REMARK    2  A    between atoms: O_3  and  C_4 
REMARK    3  A    between atoms: C_5  and  O_6 
REMARK    4  A    between atoms: C_9  and  C_10 
REMARK    5  A    between atoms: N_11  and  C_12 
REMARK    6  A    between atoms: C_12  and  C_13 
REMARK    7  A    between atoms: C_13  and  C_14 
REMARK    8  A    between atoms: C_14  and  N_15 
REMARK    9  A    between atoms: C_24  and  O_25 
REMARK   10  A    between atoms: C_26  and  C_27 
REMARK   11  A    between atoms: C_27  and  C_28 
ROOT
HETATM    1  C   UNL     1      -5.343   3.000 -32.819  1.00  0.00     0.161 C 
HETATM    2  N   UNL     1      -6.350   3.767 -32.089  1.00  0.00    -0.333 N 
HETATM    3  C   UNL     1      -6.396   3.414 -30.760  1.00  0.00     0.278 C 
HETATM    4  O   UNL     1      -7.209   3.794 -29.930  1.00  0.00    -0.265 OA
HETATM    5  C   UNL     1      -5.476   2.276 -30.569  1.00  0.00     0.146 C 
HETATM    6  C   UNL     1      -5.002   1.962 -31.782  1.00  0.00     0.059 C 
ENDROOT
BRANCH   1   7
HETATM    7  C   UNL     1      -4.188   3.892 -33.255  1.00  0.00    -0.028 A 
HETATM    8  C   UNL     1      -4.249   4.666 -34.433  1.00  0.00     0.012 A 
HETATM    9  C   UNL     1      -3.179   5.470 -34.822  1.00  0.00     0.040 A 
HETATM   10  C   UNL     1      -2.035   5.500 -34.042  1.00  0.00     0.099 A 
HETATM   11  C   UNL     1      -1.936   4.753 -32.867  1.00  0.00     0.102 A 
HETATM   12  C   UNL     1      -3.007   3.941 -32.482  1.00  0.00     0.049 A 
BRANCH  10  13
HETATM   13  O   UNL     1      -1.001   6.297 -34.447  1.00  0.00    -0.358 OA
HETATM   14  H   UNL     1      -1.361   6.842 -35.173  1.00  0.00     0.218 HD
ENDBRANCH  10  13
BRANCH  11  15
HETATM   15  O   UNL     1      -0.742   4.880 -32.206  1.00  0.00    -0.349 OA
BRANCH  15  16
HETATM   16  C   UNL     1      -0.743   5.682 -31.027  1.00  0.00     0.171 C 
HETATM   17  C   UNL     1       0.395   6.680 -31.151  1.00  0.00     0.034 C 
ENDBRANCH  15  16
ENDBRANCH  11  15
ENDBRANCH   1   7
BRANCH   2  18
HETATM   18  C   UNL     1      -7.389   4.545 -32.736  1.00  0.00     0.129 C 
BRANCH  18  19
HETATM   19  C   UNL     1      -7.070   6.044 -32.813  1.00  0.00     0.048 C 
BRANCH  19  20
HETATM   20  C   UNL     1      -7.339   6.884 -31.560  1.00  0.00     0.236 C 
BRANCH  20  21
HETATM   21  N   UNL     1      -6.138   7.636 -31.050  1.00  0.00    -0.067 N 
HETATM   22  H   UNL     1      -6.100   7.526 -30.015  1.00  0.00     0.280 HD
HETATM   23  C   UNL     1      -4.819   7.175 -31.653  1.00  0.00     0.261 C 
HETATM   24  C   UNL     1      -3.662   8.024 -31.116  1.00  0.00     0.195 C 
HETATM   25  O   UNL     1      -3.883   9.417 -31.362  1.00  0.00    -0.388 OA
HETATM   26  C   UNL     1      -5.070   9.877 -30.707  1.00  0.00     0.195 C 
HETATM   27  C   UNL     1      -6.300   9.147 -31.252  1.00  0.00     0.261 C 
ENDBRANCH  20  21
ENDBRANCH  19  20
ENDBRANCH  18  19
ENDBRANCH   2  18
BRANCH   6  28
HETATM   28  C   UNL     1      -4.249   0.765 -32.213  1.00  0.00     0.193 C 
HETATM   29  O   UNL     1      -3.032   0.725 -32.067  1.00  0.00    -0.287 OA
BRANCH  28  30
HETATM   30  C   UNL     1      -4.931  -0.344 -32.916  1.00  0.00     0.015 A 
HETATM   31  C   UNL     1      -6.319  -0.349 -33.105  1.00  0.00     0.016 A 
HETATM   32  C   UNL     1      -6.928  -1.403 -33.789  1.00  0.00     0.007 A 
HETATM   33  C   UNL     1      -6.156  -2.448 -34.307  1.00  0.00    -0.062 A 
HETATM   34  C   UNL     1      -6.805  -3.572 -35.062  1.00  0.00     0.048 C 
HETATM   35  C   UNL     1      -4.763  -2.405 -34.169  1.00  0.00     0.007 A 
HETATM   36  C   UNL     1      -4.151  -1.355 -33.480  1.00  0.00     0.016 A 
ENDBRANCH  28  30
ENDBRANCH   6  28
BRANCH   5  37
HETATM   37  O   UNL     1      -5.345   1.618 -29.387  1.00  0.00    -0.355 OA
HETATM   38  H   UNL     1      -6.239   1.343 -29.103  1.00  0.00     0.218 HD
ENDBRANCH   5  37
TORSDOF 11
ENDMDL
MODEL 6
REMARK VINA RESULT:      -8.5      2.106      7.354
REMARK  11 active torsions:
REMARK  status: ('A' for Active; 'I' for Inactive)
REMARK    1  A    between atoms: C_2  and  O_3 
REMARK    2  A    between atoms: O_3  and  C_4 
REMARK    3  A    between atoms: C_5  and  O_6 
REMARK    4  A    between atoms: C_9  and  C_10 
REMARK    5  A    between atoms: N_11  and  C_12 
REMARK    6  A    between atoms: C_12  and  C_13 
REMARK    7  A    between atoms: C_13  and  C_14 
REMARK    8  A    between atoms: C_14  and  N_15 
REMARK    9  A    between atoms: C_24  and  O_25 
REMARK   10  A    between atoms: C_26  and  C_27 
REMARK   11  A    between atoms: C_27  and  C_28 
ROOT
HETATM    1  C   UNL     1      -6.738   1.816 -33.095  1.00  0.00     0.161 C 
HETATM    2  N   UNL     1      -5.575   2.599 -32.686  1.00  0.00    -0.333 N 
HETATM    3  C   UNL     1      -5.533   2.778 -31.323  1.00  0.00     0.278 C 
HETATM    4  O   UNL     1      -4.751   3.482 -30.701  1.00  0.00    -0.265 OA
HETATM    5  C   UNL     1      -6.771   2.205 -30.760  1.00  0.00     0.146 C 
HETATM    6  C   UNL     1      -7.510   1.798 -31.801  1.00  0.00     0.059 C 
ENDROOT
BRANCH   1   7
HETATM    7  C   UNL     1      -6.318   0.451 -33.624  1.00  0.00    -0.028 A 
HETATM    8  C   UNL     1      -7.134  -0.289 -34.506  1.00  0.00     0.012 A 
HETATM    9  C   UNL     1      -6.738  -1.540 -34.974  1.00  0.00     0.040 A 
HETATM   10  C   UNL     1      -5.528  -2.069 -34.556  1.00  0.00     0.099 A 
HETATM   11  C   UNL     1      -4.689  -1.368 -33.687  1.00  0.00     0.102 A 
HETATM   12  C   UNL     1      -5.091  -0.115 -33.213  1.00  0.00     0.049 A 
BRANCH  10  13
HETATM   13  O   UNL     1      -5.165  -3.298 -35.030  1.00  0.00    -0.358 OA
HETATM   14  H   UNL     1      -5.826  -3.921 -34.672  1.00  0.00     0.218 HD
ENDBRANCH  10  13
BRANCH  11  15
HETATM   15  O   UNL     1      -3.531  -2.021 -33.359  1.00  0.00    -0.349 OA
BRANCH  15  16
HETATM   16  C   UNL     1      -3.248  -2.169 -31.970  1.00  0.00     0.171 C 
HETATM   17  C   UNL     1      -2.956  -3.638 -31.716  1.00  0.00     0.034 C 
ENDBRANCH  15  16
ENDBRANCH  11  15
ENDBRANCH   1   7
BRANCH   2  18
HETATM   18  C   UNL     1      -4.765   3.371 -33.609  1.00  0.00     0.129 C 
BRANCH  18  19
HETATM   19  C   UNL     1      -5.159   4.853 -33.675  1.00  0.00     0.048 C 
BRANCH  19  20
HETATM   20  C   UNL     1      -4.050   5.886 -33.445  1.00  0.00     0.236 C 
BRANCH  20  21
HETATM   21  N   UNL     1      -3.281   5.691 -32.165  1.00  0.00    -0.067 N 
HETATM   22  H   UNL     1      -3.770   4.970 -31.596  1.00  0.00     0.280 HD
HETATM   23  C   UNL     1      -1.833   5.270 -32.372  1.00  0.00     0.261 C 
HETATM   24  C   UNL     1      -1.116   5.144 -31.024  1.00  0.00     0.195 C 
HETATM   25  O   UNL     1      -1.197   6.363 -30.278  1.00  0.00    -0.388 OA
HETATM   26  C   UNL     1      -2.556   6.706 -29.990  1.00  0.00     0.195 C 
HETATM   27  C   UNL     1      -3.334   6.947 -31.287  1.00  0.00     0.261 C 
ENDBRANCH  20  21
ENDBRANCH  19  20
ENDBRANCH  18  19
ENDBRANCH   2  18
BRANCH   6  28
HETATM   28  C   UNL     1      -8.928   1.384 -31.839  1.00  0.00     0.193 C 
HETATM   29  O   UNL     1      -9.324   0.496 -31.090  1.00  0.00    -0.287 OA
BRANCH  28  30
HETATM   30  C   UNL     1      -9.855   1.953 -32.842  1.00  0.00     0.015 A 
HETATM   31  C   UNL     1     -10.557   1.136 -33.738  1.00  0.00     0.016 A 
HETATM   32  C   UNL     1     -11.438   1.705 -34.660  1.00  0.00     0.007 A 
HETATM   33  C   UNL     1     -11.641   3.089 -34.681  1.00  0.00    -0.062 A 
HETATM   34  C   UNL     1     -12.603   3.702 -35.657  1.00  0.00     0.048 C 
HETATM   35  C   UNL     1     -10.984   3.893 -33.741  1.00  0.00     0.007 A 
HETATM   36  C   UNL     1     -10.097   3.328 -32.822  1.00  0.00     0.016 A 
ENDBRANCH  28  30
ENDBRANCH   6  28
BRANCH   5  37
HETATM   37  O   UNL     1      -7.098   2.291 -29.444  1.00  0.00    -0.355 OA
HETATM   38  H   UNL     1      -6.267   2.416 -28.942  1.00  0.00     0.218 HD
ENDBRANCH   5  37
TORSDOF 11
ENDMDL
MODEL 7
REMARK VINA RESULT:      -8.5      2.018      6.523
REMARK  11 active torsions:
REMARK  status: ('A' for Active; 'I' for Inactive)
REMARK    1  A    between atoms: C_2  and  O_3 
REMARK    2  A    between atoms: O_3  and  C_4 
REMARK    3  A    between atoms: C_5  and  O_6 
REMARK    4  A    between atoms: C_9  and  C_10 
REMARK    5  A    between atoms: N_11  and  C_12 
REMARK    6  A    between atoms: C_12  and  C_13 
REMARK    7  A    between atoms: C_13  and  C_14 
REMARK    8  A    between atoms: C_14  and  N_15 
REMARK    9  A    between atoms: C_24  and  O_25 
REMARK   10  A    between atoms: C_26  and  C_27 
REMARK   11  A    between atoms: C_27  and  C_28 
ROOT
HETATM    1  C   UNL     1      -4.496   3.603 -31.308  1.00  0.00     0.161 C 
HETATM    2  N   UNL     1      -5.902   3.991 -31.232  1.00  0.00    -0.333 N 
HETATM    3  C   UNL     1      -6.281   4.750 -32.315  1.00  0.00     0.278 C 
HETATM    4  O   UNL     1      -7.353   5.315 -32.473  1.00  0.00    -0.265 OA
HETATM    5  C   UNL     1      -5.073   5.009 -33.122  1.00  0.00     0.146 C 
HETATM    6  C   UNL     1      -4.045   4.473 -32.452  1.00  0.00     0.059 C 
ENDROOT
BRANCH   1   7
HETATM    7  C   UNL     1      -4.355   2.103 -31.533  1.00  0.00    -0.028 A 
HETATM    8  C   UNL     1      -3.233   1.383 -31.073  1.00  0.00     0.012 A 
HETATM    9  C   UNL     1      -3.116   0.012 -31.296  1.00  0.00     0.040 A 
HETATM   10  C   UNL     1      -4.115  -0.650 -31.990  1.00  0.00     0.099 A 
HETATM   11  C   UNL     1      -5.245   0.025 -32.459  1.00  0.00     0.102 A 
HETATM   12  C   UNL     1      -5.357   1.401 -32.240  1.00  0.00     0.049 A 
BRANCH  10  13
HETATM   13  O   UNL     1      -3.975  -1.994 -32.195  1.00  0.00    -0.358 OA
HETATM   14  H   UNL     1      -4.885  -2.346 -32.241  1.00  0.00     0.218 HD
ENDBRANCH  10  13
BRANCH  11  15
HETATM   15  O   UNL     1      -6.143  -0.761 -33.131  1.00  0.00    -0.349 OA
BRANCH  15  16
HETATM   16  C   UNL     1      -5.989  -0.845 -34.546  1.00  0.00     0.171 C 
HETATM   17  C   UNL     1      -7.110  -0.038 -35.178  1.00  0.00     0.034 C 
ENDBRANCH  15  16
ENDBRANCH  11  15
ENDBRANCH   1   7
BRANCH   2  18
HETATM   18  C   UNL     1      -6.698   3.884 -30.024  1.00  0.00     0.129 C 
BRANCH  18  19
HETATM   19  C   UNL     1      -7.761   2.778 -30.091  1.00  0.00     0.048 C 
BRANCH  19  20
HETATM   20  C   UNL     1      -9.192   3.200 -30.440  1.00  0.00     0.236 C 
BRANCH  20  21
HETATM   21  N   UNL     1      -9.918   2.236 -31.340  1.00  0.00    -0.067 N 
HETATM   22  H   UNL     1     -10.679   1.785 -30.790  1.00  0.00     0.280 HD
HETATM   23  C   UNL     1     -10.512   2.880 -32.585  1.00  0.00     0.261 C 
HETATM   24  C   UNL     1     -11.187   1.821 -33.463  1.00  0.00     0.195 C 
HETATM   25  O   UNL     1     -10.272   0.776 -33.810  1.00  0.00    -0.388 OA
HETATM   26  C   UNL     1      -9.792   0.098 -32.644  1.00  0.00     0.195 C 
HETATM   27  C   UNL     1      -9.016   1.064 -31.744  1.00  0.00     0.261 C 
ENDBRANCH  20  21
ENDBRANCH  19  20
ENDBRANCH  18  19
ENDBRANCH   2  18
BRANCH   6  28
HETATM   28  C   UNL     1      -2.593   4.649 -32.666  1.00  0.00     0.193 C 
HETATM   29  O   UNL     1      -2.037   4.060 -33.588  1.00  0.00    -0.287 OA
BRANCH  28  30
HETATM   30  C   UNL     1      -1.779   5.443 -31.719  1.00  0.00     0.015 A 
HETATM   31  C   UNL     1      -2.371   6.318 -30.799  1.00  0.00     0.016 A 
HETATM   32  C   UNL     1      -1.574   7.038 -29.907  1.00  0.00     0.007 A 
HETATM   33  C   UNL     1      -0.185   6.877 -29.912  1.00  0.00    -0.062 A 
HETATM   34  C   UNL     1       0.673   7.634 -28.941  1.00  0.00     0.048 C 
HETATM   35  C   UNL     1       0.394   5.954 -30.792  1.00  0.00     0.007 A 
HETATM   36  C   UNL     1      -0.399   5.235 -31.690  1.00  0.00     0.016 A 
ENDBRANCH  28  30
ENDBRANCH   6  28
BRANCH   5  37
HETATM   37  O   UNL     1      -5.072   5.809 -34.221  1.00  0.00    -0.355 OA
HETATM   38  H   UNL     1      -5.673   5.406 -34.879  1.00  0.00     0.218 HD
ENDBRANCH   5  37
TORSDOF 11
ENDMDL
MODEL 8
REMARK VINA RESULT:      -8.5      1.635      1.931
REMARK  11 active torsions:
REMARK  status: ('A' for Active; 'I' for Inactive)
REMARK    1  A    between atoms: C_2  and  O_3 
REMARK    2  A    between atoms: O_3  and  C_4 
REMARK    3  A    between atoms: C_5  and  O_6 
REMARK    4  A    between atoms: C_9  and  C_10 
REMARK    5  A    between atoms: N_11  and  C_12 
REMARK    6  A    between atoms: C_12  and  C_13 
REMARK    7  A    between atoms: C_13  and  C_14 
REMARK    8  A    between atoms: C_14  and  N_15 
REMARK    9  A    between atoms: C_24  and  O_25 
REMARK   10  A    between atoms: C_26  and  C_27 
REMARK   11  A    between atoms: C_27  and  C_28 
ROOT
HETATM    1  C   UNL     1      -6.086   2.366 -32.762  1.00  0.00     0.161 C 
HETATM    2  N   UNL     1      -7.191   3.054 -32.099  1.00  0.00    -0.333 N 
HETATM    3  C   UNL     1      -7.242   2.761 -30.756  1.00  0.00     0.278 C 
HETATM    4  O   UNL     1      -8.117   3.090 -29.968  1.00  0.00    -0.265 OA
HETATM    5  C   UNL     1      -6.215   1.738 -30.484  1.00  0.00     0.146 C 
HETATM    6  C   UNL     1      -5.671   1.420 -31.666  1.00  0.00     0.059 C 
ENDROOT
BRANCH   1   7
HETATM    7  C   UNL     1      -5.018   3.354 -33.210  1.00  0.00    -0.028 A 
HETATM    8  C   UNL     1      -5.223   4.231 -34.296  1.00  0.00     0.012 A 
HETATM    9  C   UNL     1      -4.231   5.124 -34.698  1.00  0.00     0.040 A 
HETATM   10  C   UNL     1      -3.020   5.141 -34.026  1.00  0.00     0.099 A 
HETATM   11  C   UNL     1      -2.778   4.292 -32.944  1.00  0.00     0.102 A 
HETATM   12  C   UNL     1      -3.772   3.392 -32.546  1.00  0.00     0.049 A 
BRANCH  10  13
HETATM   13  O   UNL     1      -2.065   6.025 -34.442  1.00  0.00    -0.358 OA
HETATM   14  H   UNL     1      -2.496   6.568 -35.130  1.00  0.00     0.218 HD
ENDBRANCH  10  13
BRANCH  11  15
HETATM   15  O   UNL     1      -1.534   4.419 -32.385  1.00  0.00    -0.349 OA
BRANCH  15  16
HETATM   16  C   UNL     1      -1.443   5.190 -31.189  1.00  0.00     0.171 C 
HETATM   17  C   UNL     1      -0.171   6.016 -31.273  1.00  0.00     0.034 C 
ENDBRANCH  15  16
ENDBRANCH  11  15
ENDBRANCH   1   7
BRANCH   2  18
HETATM   18  C   UNL     1      -8.285   3.686 -32.813  1.00  0.00     0.129 C 
BRANCH  18  19
HETATM   19  C   UNL     1      -9.206   2.685 -33.524  1.00  0.00     0.048 C 
BRANCH  19  20
HETATM   20  C   UNL     1     -10.198   3.249 -34.547  1.00  0.00     0.236 C 
BRANCH  20  21
HETATM   21  N   UNL     1     -10.623   4.668 -34.278  1.00  0.00    -0.067 N 
HETATM   22  H   UNL     1     -10.202   4.970 -33.375  1.00  0.00     0.280 HD
HETATM   23  C   UNL     1     -10.224   5.650 -35.371  1.00  0.00     0.261 C 
HETATM   24  C   UNL     1     -10.738   7.055 -35.038  1.00  0.00     0.195 C 
HETATM   25  O   UNL     1     -12.155   7.055 -34.837  1.00  0.00    -0.388 OA
HETATM   26  C   UNL     1     -12.523   6.212 -33.740  1.00  0.00     0.195 C 
HETATM   27  C   UNL     1     -12.133   4.759 -34.026  1.00  0.00     0.261 C 
ENDBRANCH  20  21
ENDBRANCH  19  20
ENDBRANCH  18  19
ENDBRANCH   2  18
BRANCH   6  28
HETATM   28  C   UNL     1      -4.783   0.291 -32.015  1.00  0.00     0.193 C 
HETATM   29  O   UNL     1      -3.605   0.314 -31.675  1.00  0.00    -0.287 OA
BRANCH  28  30
HETATM   30  C   UNL     1      -5.271  -0.820 -32.863  1.00  0.00     0.015 A 
HETATM   31  C   UNL     1      -6.617  -0.920 -33.238  1.00  0.00     0.016 A 
HETATM   32  C   UNL     1      -7.039  -1.971 -34.054  1.00  0.00     0.007 A 
HETATM   33  C   UNL     1      -6.120  -2.917 -34.519  1.00  0.00    -0.062 A 
HETATM   34  C   UNL     1      -6.567  -4.037 -35.414  1.00  0.00     0.048 C 
HETATM   35  C   UNL     1      -4.766  -2.775 -34.192  1.00  0.00     0.007 A 
HETATM   36  C   UNL     1      -4.340  -1.729 -33.371  1.00  0.00     0.016 A 
ENDBRANCH  28  30
ENDBRANCH   6  28
BRANCH   5  37
HETATM   37  O   UNL     1      -6.054   1.153 -29.267  1.00  0.00    -0.355 OA
HETATM   38  H   UNL     1      -5.132   1.315 -28.983  1.00  0.00     0.218 HD
ENDBRANCH   5  37
TORSDOF 11
ENDMDL
MODEL 9
REMARK VINA RESULT:      -8.3      2.307      7.655
REMARK  11 active torsions:
REMARK  status: ('A' for Active; 'I' for Inactive)
REMARK    1  A    between atoms: C_2  and  O_3 
REMARK    2  A    between atoms: O_3  and  C_4 
REMARK    3  A    between atoms: C_5  and  O_6 
REMARK    4  A    between atoms: C_9  and  C_10 
REMARK    5  A    between atoms: N_11  and  C_12 
REMARK    6  A    between atoms: C_12  and  C_13 
REMARK    7  A    between atoms: C_13  and  C_14 
REMARK    8  A    between atoms: C_14  and  N_15 
REMARK    9  A    between atoms: C_24  and  O_25 
REMARK   10  A    between atoms: C_26  and  C_27 
REMARK   11  A    between atoms: C_27  and  C_28 
ROOT
HETATM    1  C   UNL     1      -6.100   2.713 -33.415  1.00  0.00     0.161 C 
HETATM    2  N   UNL     1      -5.180   2.922 -32.300  1.00  0.00    -0.333 N 
HETATM    3  C   UNL     1      -5.845   3.275 -31.149  1.00  0.00     0.278 C 
HETATM    4  O   UNL     1      -5.341   3.626 -30.092  1.00  0.00    -0.265 OA
HETATM    5  C   UNL     1      -7.271   3.440 -31.491  1.00  0.00     0.146 C 
HETATM    6  C   UNL     1      -7.368   3.261 -32.814  1.00  0.00     0.059 C 
ENDROOT
BRANCH   1   7
HETATM    7  C   UNL     1      -6.149   1.244 -33.815  1.00  0.00    -0.028 A 
HETATM    8  C   UNL     1      -6.870   0.804 -34.945  1.00  0.00     0.012 A 
HETATM    9  C   UNL     1      -6.910  -0.545 -35.292  1.00  0.00     0.040 A 
HETATM   10  C   UNL     1      -6.240  -1.468 -34.507  1.00  0.00     0.099 A 
HETATM   11  C   UNL     1      -5.511  -1.073 -33.382  1.00  0.00     0.102 A 
HETATM   12  C   UNL     1      -5.477   0.280 -33.032  1.00  0.00     0.049 A 
BRANCH  10  13
HETATM   13  O   UNL     1      -6.297  -2.785 -34.870  1.00  0.00    -0.358 OA
HETATM   14  H   UNL     1      -5.449  -2.967 -35.319  1.00  0.00     0.218 HD
ENDBRANCH  10  13
BRANCH  11  15
HETATM   15  O   UNL     1      -4.908  -2.098 -32.703  1.00  0.00    -0.349 OA
BRANCH  15  16
HETATM   16  C   UNL     1      -3.556  -1.894 -32.300  1.00  0.00     0.171 C 
HETATM   17  C   UNL     1      -2.994  -3.241 -31.880  1.00  0.00     0.034 C 
ENDBRANCH  15  16
ENDBRANCH  11  15
ENDBRANCH   1   7
BRANCH   2  18
HETATM   18  C   UNL     1      -3.746   3.071 -32.462  1.00  0.00     0.129 C 
BRANCH  18  19
HETATM   19  C   UNL     1      -3.328   4.474 -32.924  1.00  0.00     0.048 C 
BRANCH  19  20
HETATM   20  C   UNL     1      -1.828   4.789 -32.944  1.00  0.00     0.236 C 
BRANCH  20  21
HETATM   21  N   UNL     1      -1.392   5.787 -31.904  1.00  0.00    -0.067 N 
HETATM   22  H   UNL     1      -1.098   6.658 -32.391  1.00  0.00     0.280 HD
HETATM   23  C   UNL     1      -2.468   6.121 -30.880  1.00  0.00     0.261 C 
HETATM   24  C   UNL     1      -1.923   7.102 -29.836  1.00  0.00     0.195 C 
HETATM   25  O   UNL     1      -0.749   6.585 -29.201  1.00  0.00    -0.388 OA
HETATM   26  C   UNL     1       0.301   6.367 -30.149  1.00  0.00     0.195 C 
HETATM   27  C   UNL     1      -0.120   5.322 -31.186  1.00  0.00     0.261 C 
ENDBRANCH  20  21
ENDBRANCH  19  20
ENDBRANCH  18  19
ENDBRANCH   2  18
BRANCH   6  28
HETATM   28  C   UNL     1      -8.501   3.552 -33.718  1.00  0.00     0.193 C 
HETATM   29  O   UNL     1      -8.488   4.570 -34.404  1.00  0.00    -0.287 OA
BRANCH  28  30
HETATM   30  C   UNL     1      -9.701   2.687 -33.730  1.00  0.00     0.015 A 
HETATM   31  C   UNL     1     -10.847   3.033 -34.457  1.00  0.00     0.016 A 
HETATM   32  C   UNL     1     -11.956   2.183 -34.461  1.00  0.00     0.007 A 
HETATM   33  C   UNL     1     -11.922   0.975 -33.756  1.00  0.00    -0.062 A 
HETATM   34  C   UNL     1     -13.104   0.050 -33.775  1.00  0.00     0.048 C 
HETATM   35  C   UNL     1     -10.750   0.606 -33.083  1.00  0.00     0.007 A 
HETATM   36  C   UNL     1      -9.641   1.456 -33.073  1.00  0.00     0.016 A 
ENDBRANCH  28  30
ENDBRANCH   6  28
BRANCH   5  37
HETATM   37  O   UNL     1      -8.202   3.877 -30.601  1.00  0.00    -0.355 OA
HETATM   38  H   UNL     1      -7.723   4.252 -29.836  1.00  0.00     0.218 HD
ENDBRANCH   5  37
TORSDOF 11
ENDMDL
MODEL 10
REMARK VINA RESULT:      -8.3      3.035      4.370
REMARK  11 active torsions:
REMARK  status: ('A' for Active; 'I' for Inactive)
REMARK    1  A    between atoms: C_2  and  O_3 
REMARK    2  A    between atoms: O_3  and  C_4 
REMARK    3  A    between atoms: C_5  and  O_6 
REMARK    4  A    between atoms: C_9  and  C_10 
REMARK    5  A    between atoms: N_11  and  C_12 
REMARK    6  A    between atoms: C_12  and  C_13 
REMARK    7  A    between atoms: C_13  and  C_14 
REMARK    8  A    between atoms: C_14  and  N_15 
REMARK    9  A    between atoms: C_24  and  O_25 
REMARK   10  A    between atoms: C_26  and  C_27 
REMARK   11  A    between atoms: C_27  and  C_28 
ROOT
HETATM    1  C   UNL     1      -5.048   3.160 -32.399  1.00  0.00     0.161 C 
HETATM    2  N   UNL     1      -6.226   3.892 -31.939  1.00  0.00    -0.333 N 
HETATM    3  C   UNL     1      -6.695   3.404 -30.743  1.00  0.00     0.278 C 
HETATM    4  O   UNL     1      -7.726   3.732 -30.172  1.00  0.00    -0.265 OA
HETATM    5  C   UNL     1      -5.897   2.210 -30.404  1.00  0.00     0.146 C 
HETATM    6  C   UNL     1      -5.066   2.003 -31.433  1.00  0.00     0.059 C 
ENDROOT
BRANCH   1   7
HETATM    7  C   UNL     1      -3.805   4.037 -32.345  1.00  0.00    -0.028 A 
HETATM    8  C   UNL     1      -2.891   4.101 -33.418  1.00  0.00     0.012 A 
HETATM    9  C   UNL     1      -1.754   4.903 -33.348  1.00  0.00     0.040 A 
HETATM   10  C   UNL     1      -1.512   5.640 -32.200  1.00  0.00     0.099 A 
HETATM   11  C   UNL     1      -2.393   5.607 -31.117  1.00  0.00     0.102 A 
HETATM   12  C   UNL     1      -3.530   4.797 -31.186  1.00  0.00     0.049 A 
BRANCH  10  13
HETATM   13  O   UNL     1      -0.389   6.417 -32.159  1.00  0.00    -0.358 OA
HETATM   14  H   UNL     1       0.130   6.083 -31.402  1.00  0.00     0.218 HD
ENDBRANCH  10  13
BRANCH  11  15
HETATM   15  O   UNL     1      -2.018   6.382 -30.051  1.00  0.00    -0.349 OA
BRANCH  15  16
HETATM   16  C   UNL     1      -2.815   7.534 -29.783  1.00  0.00     0.171 C 
HETATM   17  C   UNL     1      -2.830   7.740 -28.279  1.00  0.00     0.034 C 
ENDBRANCH  15  16
ENDBRANCH  11  15
ENDBRANCH   1   7
BRANCH   2  18
HETATM   18  C   UNL     1      -6.997   4.782 -32.787  1.00  0.00     0.129 C 
BRANCH  18  19
HETATM   19  C   UNL     1      -6.728   6.268 -32.514  1.00  0.00     0.048 C 
BRANCH  19  20
HETATM   20  C   UNL     1      -7.791   7.040 -31.725  1.00  0.00     0.236 C 
BRANCH  20  21
HETATM   21  N   UNL     1      -7.789   6.758 -30.246  1.00  0.00    -0.067 N 
HETATM   22  H   UNL     1      -8.076   5.767 -30.103  1.00  0.00     0.280 HD
HETATM   23  C   UNL     1      -6.444   6.993 -29.574  1.00  0.00     0.261 C 
HETATM   24  C   UNL     1      -6.547   6.729 -28.068  1.00  0.00     0.195 C 
HETATM   25  O   UNL     1      -7.570   7.532 -27.469  1.00  0.00    -0.388 OA
HETATM   26  C   UNL     1      -8.854   7.236 -28.028  1.00  0.00     0.195 C 
HETATM   27  C   UNL     1      -8.877   7.562 -29.524  1.00  0.00     0.261 C 
ENDBRANCH  20  21
ENDBRANCH  19  20
ENDBRANCH  18  19
ENDBRANCH   2  18
BRANCH   6  28
HETATM   28  C   UNL     1      -4.229   0.824 -31.740  1.00  0.00     0.193 C 
HETATM   29  O   UNL     1      -3.055   0.802 -31.387  1.00  0.00    -0.287 OA
BRANCH  28  30
HETATM   30  C   UNL     1      -4.760  -0.287 -32.561  1.00  0.00     0.015 A 
HETATM   31  C   UNL     1      -6.102  -0.327 -32.960  1.00  0.00     0.016 A 
HETATM   32  C   UNL     1      -6.566  -1.381 -33.750  1.00  0.00     0.007 A 
HETATM   33  C   UNL     1      -5.690  -2.390 -34.165  1.00  0.00    -0.062 A 
HETATM   34  C   UNL     1      -6.180  -3.514 -35.032  1.00  0.00     0.048 C 
HETATM   35  C   UNL     1      -4.337  -2.310 -33.815  1.00  0.00     0.007 A 
HETATM   36  C   UNL     1      -3.871  -1.261 -33.019  1.00  0.00     0.016 A 
ENDBRANCH  28  30
ENDBRANCH   6  28
BRANCH   5  37
HETATM   37  O   UNL     1      -6.156   1.426 -29.324  1.00  0.00    -0.355 OA
HETATM   38  H   UNL     1      -6.718   1.942 -28.713  1.00  0.00     0.218 HD
ENDBRANCH   5  37
TORSDOF 11
ENDMDL
