MODEL 1
REMARK VINA RESULT:      -8.5      0.000      0.000
REMARK  7 active torsions:
REMARK  status: ('A' for Active; 'I' for Inactive)
REMARK    1  A    between atoms: O_2  and  C_3 
REMARK    2  A    between atoms: C_3  and  C_5 
REMARK    3  A    between atoms: C_9  and  N_10 
REMARK       I    between atoms: N_10  and  C_13 
REMARK    4  A    between atoms: C_13  and  C_15 
REMARK    5  A    between atoms: C_15  and  C_16 
REMARK    6  A    between atoms: C_16  and  N_17 
REMARK    7  A    between atoms: N_23  and  C_26 
ROOT
HETATM    1  C   UNL     1      -5.890  -2.441 -34.217  1.00  0.00     0.142 A 
HETATM    2  N   UNL     1      -6.923  -2.876 -34.979  1.00  0.00    -0.224 NA
HETATM    3  C   UNL     1      -6.944  -4.182 -35.342  1.00  0.00     0.237 A 
HETATM    4  N   UNL     1      -6.035  -5.130 -35.073  1.00  0.00    -0.223 NA
HETATM    5  C   UNL     1      -5.034  -4.661 -34.319  1.00  0.00     0.144 A 
HETATM    6  N   UNL     1      -3.972  -5.402 -33.868  1.00  0.00    -0.348 N 
HETATM    7  H   UNL     1      -3.840  -6.385 -34.068  1.00  0.00     0.167 HD
HETATM    8  C   UNL     1      -3.152  -4.608 -33.096  1.00  0.00     0.113 A 
HETATM    9  C   UNL     1      -3.712  -3.348 -33.057  1.00  0.00     0.077 A 
HETATM   10  C   UNL     1      -3.215  -2.211 -32.347  1.00  0.00     0.102 C 
HETATM   11  N   UNL     1      -2.918  -1.206 -31.845  1.00  0.00    -0.191 NA
HETATM   12  C   UNL     1      -4.892  -3.366 -33.853  1.00  0.00     0.078 A 
ENDROOT
BRANCH   1  13
HETATM   13  N   UNL     1      -5.854  -1.105 -33.792  1.00  0.00    -0.365 N 
HETATM   14  C   UNL     1      -5.939  -0.152 -34.890  1.00  0.00     0.126 C 
HETATM   15  C   UNL     1      -7.360   0.369 -35.032  1.00  0.00     0.041 C 
HETATM   16  C   UNL     1      -7.939   0.880 -33.700  1.00  0.00     0.076 C 
HETATM   17  C   UNL     1      -7.826  -0.190 -32.595  1.00  0.00     0.041 C 
HETATM   18  C   UNL     1      -6.469  -0.885 -32.497  1.00  0.00     0.126 C 
BRANCH  16  19
HETATM   19  C   UNL     1      -7.176   2.177 -33.301  1.00  0.00     0.330 C 
HETATM   20  N   UNL     1      -6.643   2.439 -31.996  1.00  0.00     0.018 N 
HETATM   21  H   UNL     1      -6.050   1.651 -31.705  1.00  0.00     0.294 HD
HETATM   22  H   UNL     1      -7.404   2.413 -31.313  1.00  0.00     0.294 HD
HETATM   23  O   UNL     1      -6.950   3.055 -34.120  1.00  0.00    -0.264 OA
BRANCH  20  24
HETATM   24  C   UNL     1      -5.893   3.670 -31.773  1.00  0.00     0.142 A 
HETATM   25  C   UNL     1      -6.555   4.800 -31.290  1.00  0.00     0.037 A 
HETATM   26  C   UNL     1      -5.826   5.958 -31.018  1.00  0.00     0.003 A 
HETATM   27  C   UNL     1      -4.444   5.985 -31.224  1.00  0.00     0.018 A 
HETATM   28  C   UNL     1      -3.784   4.848 -31.706  1.00  0.00     0.041 A 
HETATM   29  C   UNL     1      -4.516   3.682 -31.981  1.00  0.00     0.055 A 
BRANCH  28  30
HETATM   30  C   UNL     1      -2.317   4.815 -31.944  1.00  0.00     0.293 C 
HETATM   31  O   UNL     1      -1.576   4.105 -31.284  1.00  0.00    -0.259 OA
BRANCH  30  32
HETATM   32  O   UNL     1      -1.968   5.670 -32.929  1.00  0.00    -0.323 OA
HETATM   33  C   UNL     1      -1.816   5.056 -34.212  1.00  0.00     0.213 C 
ENDBRANCH  30  32
ENDBRANCH  28  30
ENDBRANCH  20  24
ENDBRANCH  16  19
BRANCH  16  34
HETATM   34  C   UNL     1      -9.438   1.326 -33.894  1.00  0.00     0.253 C 
BRANCH  34  35
HETATM   35  N   UNL     1      -9.782   2.802 -33.686  1.00  0.00    -0.078 N 
HETATM   36  H   UNL     1      -8.927   3.334 -33.467  1.00  0.00     0.279 HD
HETATM   37  C   UNL     1     -10.452   3.518 -34.834  1.00  0.00     0.269 C 
HETATM   38  C   UNL     1     -10.633   2.970 -32.429  1.00  0.00     0.269 C 
ENDBRANCH  34  35
ENDBRANCH  16  34
ENDBRANCH   1  13
TORSDOF 7
ENDMDL
MODEL 2
REMARK VINA RESULT:      -7.9      3.147      8.034
REMARK  7 active torsions:
REMARK  status: ('A' for Active; 'I' for Inactive)
REMARK    1  A    between atoms: O_2  and  C_3 
REMARK    2  A    between atoms: C_3  and  C_5 
REMARK    3  A    between atoms: C_9  and  N_10 
REMARK       I    between atoms: N_10  and  C_13 
REMARK    4  A    between atoms: C_13  and  C_15 
REMARK    5  A    between atoms: C_15  and  C_16 
REMARK    6  A    between atoms: C_16  and  N_17 
REMARK    7  A    between atoms: N_23  and  C_26 
ROOT
HETATM    1  C   UNL     1      -4.905   6.733 -31.576  1.00  0.00     0.142 A 
HETATM    2  N   UNL     1      -5.868   7.684 -31.501  1.00  0.00    -0.224 NA
HETATM    3  C   UNL     1      -5.499   8.939 -31.148  1.00  0.00     0.237 A 
HETATM    4  N   UNL     1      -4.277   9.380 -30.817  1.00  0.00    -0.223 NA
HETATM    5  C   UNL     1      -3.357   8.412 -30.906  1.00  0.00     0.144 A 
HETATM    6  N   UNL     1      -2.019   8.570 -30.652  1.00  0.00    -0.348 N 
HETATM    7  H   UNL     1      -1.595   9.442 -30.363  1.00  0.00     0.167 HD
HETATM    8  C   UNL     1      -1.365   7.378 -30.872  1.00  0.00     0.113 A 
HETATM    9  C   UNL     1      -2.308   6.456 -31.278  1.00  0.00     0.077 A 
HETATM   10  C   UNL     1      -2.074   5.095 -31.645  1.00  0.00     0.102 C 
HETATM   11  N   UNL     1      -2.036   3.972 -31.944  1.00  0.00    -0.191 NA
HETATM   12  C   UNL     1      -3.579   7.098 -31.276  1.00  0.00     0.078 A 
ENDROOT
BRANCH   1  13
HETATM   13  N   UNL     1      -5.245   5.431 -31.974  1.00  0.00    -0.365 N 
HETATM   14  C   UNL     1      -5.960   4.686 -30.948  1.00  0.00     0.126 C 
HETATM   15  C   UNL     1      -7.455   4.709 -31.219  1.00  0.00     0.041 C 
HETATM   16  C   UNL     1      -7.801   4.296 -32.662  1.00  0.00     0.076 C 
HETATM   17  C   UNL     1      -7.016   5.140 -33.688  1.00  0.00     0.041 C 
HETATM   18  C   UNL     1      -5.527   5.305 -33.392  1.00  0.00     0.126 C 
BRANCH  16  19
HETATM   19  C   UNL     1      -7.484   2.781 -32.826  1.00  0.00     0.330 C 
HETATM   20  N   UNL     1      -6.705   2.223 -33.892  1.00  0.00     0.018 N 
HETATM   21  H   UNL     1      -5.805   2.717 -33.952  1.00  0.00     0.294 HD
HETATM   22  H   UNL     1      -7.147   2.453 -34.785  1.00  0.00     0.294 HD
HETATM   23  O   UNL     1      -7.864   1.963 -32.003  1.00  0.00    -0.264 OA
BRANCH  20  24
HETATM   24  C   UNL     1      -6.430   0.791 -33.892  1.00  0.00     0.142 A 
HETATM   25  C   UNL     1      -7.203  -0.058 -34.687  1.00  0.00     0.037 A 
HETATM   26  C   UNL     1      -6.900  -1.419 -34.734  1.00  0.00     0.003 A 
HETATM   27  C   UNL     1      -5.828  -1.927 -33.996  1.00  0.00     0.018 A 
HETATM   28  C   UNL     1      -5.053  -1.072 -33.202  1.00  0.00     0.041 A 
HETATM   29  C   UNL     1      -5.357   0.298 -33.153  1.00  0.00     0.055 A 
BRANCH  28  30
HETATM   30  C   UNL     1      -3.901  -1.553 -32.396  1.00  0.00     0.293 C 
HETATM   31  O   UNL     1      -3.393  -0.863 -31.528  1.00  0.00    -0.259 OA
BRANCH  30  32
HETATM   32  O   UNL     1      -3.522  -2.789 -32.785  1.00  0.00    -0.323 OA
HETATM   33  C   UNL     1      -2.930  -3.575 -31.747  1.00  0.00     0.213 C 
ENDBRANCH  30  32
ENDBRANCH  28  30
ENDBRANCH  20  24
ENDBRANCH  16  19
BRANCH  16  34
HETATM   34  C   UNL     1      -9.353   4.422 -32.907  1.00  0.00     0.253 C 
BRANCH  34  35
HETATM   35  N   UNL     1     -10.003   3.461 -33.905  1.00  0.00    -0.078 N 
HETATM   36  H   UNL     1      -9.294   2.821 -34.289  1.00  0.00     0.279 HD
HETATM   37  C   UNL     1     -11.127   2.597 -33.388  1.00  0.00     0.269 C 
HETATM   38  C   UNL     1     -10.489   4.229 -35.132  1.00  0.00     0.269 C 
ENDBRANCH  34  35
ENDBRANCH  16  34
ENDBRANCH   1  13
TORSDOF 7
ENDMDL
MODEL 3
REMARK VINA RESULT:      -7.8      2.827      6.468
REMARK  7 active torsions:
REMARK  status: ('A' for Active; 'I' for Inactive)
REMARK    1  A    between atoms: O_2  and  C_3 
REMARK    2  A    between atoms: C_3  and  C_5 
REMARK    3  A    between atoms: C_9  and  N_10 
REMARK       I    between atoms: N_10  and  C_13 
REMARK    4  A    between atoms: C_13  and  C_15 
REMARK    5  A    between atoms: C_15  and  C_16 
REMARK    6  A    between atoms: C_16  and  N_17 
REMARK    7  A    between atoms: N_23  and  C_26 
ROOT
HETATM    1  C   UNL     1      -4.927   0.107 -32.297  1.00  0.00     0.142 A 
HETATM    2  N   UNL     1      -4.040   0.637 -31.419  1.00  0.00    -0.224 NA
HETATM    3  C   UNL     1      -2.922  -0.074 -31.135  1.00  0.00     0.237 A 
HETATM    4  N   UNL     1      -2.574  -1.287 -31.590  1.00  0.00    -0.223 NA
HETATM    5  C   UNL     1      -3.474  -1.772 -32.453  1.00  0.00     0.144 A 
HETATM    6  N   UNL     1      -3.378  -2.978 -33.097  1.00  0.00    -0.348 N 
HETATM    7  H   UNL     1      -2.611  -3.627 -32.977  1.00  0.00     0.167 HD
HETATM    8  C   UNL     1      -4.461  -3.141 -33.932  1.00  0.00     0.113 A 
HETATM    9  C   UNL     1      -5.249  -2.015 -33.814  1.00  0.00     0.077 A 
HETATM   10  C   UNL     1      -6.461  -1.738 -34.521  1.00  0.00     0.102 C 
HETATM   11  N   UNL     1      -7.461  -1.394 -35.000  1.00  0.00    -0.191 NA
HETATM   12  C   UNL     1      -4.643  -1.153 -32.857  1.00  0.00     0.078 A 
ENDROOT
BRANCH   1  13
HETATM   13  N   UNL     1      -6.078   0.831 -32.643  1.00  0.00    -0.365 N 
HETATM   14  C   UNL     1      -7.057   0.899 -31.567  1.00  0.00     0.126 C 
HETATM   15  C   UNL     1      -6.951   2.227 -30.835  1.00  0.00     0.041 C 
HETATM   16  C   UNL     1      -6.972   3.434 -31.792  1.00  0.00     0.076 C 
HETATM   17  C   UNL     1      -5.899   3.294 -32.891  1.00  0.00     0.041 C 
HETATM   18  C   UNL     1      -5.829   1.924 -33.564  1.00  0.00     0.126 C 
BRANCH  16  19
HETATM   19  C   UNL     1      -8.395   3.540 -32.413  1.00  0.00     0.330 C 
HETATM   20  N   UNL     1      -8.694   3.352 -33.803  1.00  0.00     0.018 N 
HETATM   21  H   UNL     1      -8.306   2.453 -34.116  1.00  0.00     0.294 HD
HETATM   22  H   UNL     1      -8.163   4.031 -34.353  1.00  0.00     0.294 HD
HETATM   23  O   UNL     1      -9.375   3.759 -31.717  1.00  0.00    -0.264 OA
BRANCH  20  24
HETATM   24  C   UNL     1     -10.083   3.418 -34.243  1.00  0.00     0.142 A 
HETATM   25  C   UNL     1     -10.549   4.570 -34.880  1.00  0.00     0.037 A 
HETATM   26  C   UNL     1     -11.859   4.609 -35.356  1.00  0.00     0.003 A 
HETATM   27  C   UNL     1     -12.697   3.502 -35.200  1.00  0.00     0.018 A 
HETATM   28  C   UNL     1     -12.226   2.347 -34.563  1.00  0.00     0.041 A 
HETATM   29  C   UNL     1     -10.907   2.306 -34.083  1.00  0.00     0.055 A 
BRANCH  28  30
HETATM   30  C   UNL     1     -13.069   1.139 -34.369  1.00  0.00     0.293 C 
HETATM   31  O   UNL     1     -12.679   0.182 -33.720  1.00  0.00    -0.259 OA
BRANCH  30  32
HETATM   32  O   UNL     1     -14.248   1.263 -35.015  1.00  0.00    -0.323 OA
HETATM   33  C   UNL     1     -15.368   0.739 -34.297  1.00  0.00     0.213 C 
ENDBRANCH  30  32
ENDBRANCH  28  30
ENDBRANCH  20  24
ENDBRANCH  16  19
BRANCH  16  34
HETATM   34  C   UNL     1      -6.773   4.773 -30.985  1.00  0.00     0.253 C 
BRANCH  34  35
HETATM   35  N   UNL     1      -7.489   6.028 -31.486  1.00  0.00    -0.078 N 
HETATM   36  H   UNL     1      -8.211   5.769 -32.174  1.00  0.00     0.279 HD
HETATM   37  C   UNL     1      -8.172   6.886 -30.450  1.00  0.00     0.269 C 
HETATM   38  C   UNL     1      -6.526   6.894 -32.294  1.00  0.00     0.269 C 
ENDBRANCH  34  35
ENDBRANCH  16  34
ENDBRANCH   1  13
TORSDOF 7
ENDMDL
MODEL 4
REMARK VINA RESULT:      -7.8      3.289      8.328
REMARK  7 active torsions:
REMARK  status: ('A' for Active; 'I' for Inactive)
REMARK    1  A    between atoms: O_2  and  C_3 
REMARK    2  A    between atoms: C_3  and  C_5 
REMARK    3  A    between atoms: C_9  and  N_10 
REMARK       I    between atoms: N_10  and  C_13 
REMARK    4  A    between atoms: C_13  and  C_15 
REMARK    5  A    between atoms: C_15  and  C_16 
REMARK    6  A    between atoms: C_16  and  N_17 
REMARK    7  A    between atoms: N_23  and  C_26 
ROOT
HETATM    1  C   UNL     1      -4.894   6.287 -31.503  1.00  0.00     0.142 A 
HETATM    2  N   UNL     1      -6.094   6.914 -31.573  1.00  0.00    -0.224 NA
HETATM    3  C   UNL     1      -6.123   8.258 -31.409  1.00  0.00     0.237 A 
HETATM    4  N   UNL     1      -5.099   9.082 -31.144  1.00  0.00    -0.223 NA
HETATM    5  C   UNL     1      -3.934   8.426 -31.086  1.00  0.00     0.144 A 
HETATM    6  N   UNL     1      -2.713   9.005 -30.854  1.00  0.00    -0.348 N 
HETATM    7  H   UNL     1      -2.575   9.995 -30.698  1.00  0.00     0.167 HD
HETATM    8  C   UNL     1      -1.731   8.040 -30.893  1.00  0.00     0.113 A 
HETATM    9  C   UNL     1      -2.345   6.834 -31.161  1.00  0.00     0.077 A 
HETATM   10  C   UNL     1      -1.708   5.565 -31.320  1.00  0.00     0.102 C 
HETATM   11  N   UNL     1      -1.331   4.473 -31.449  1.00  0.00    -0.191 NA
HETATM   12  C   UNL     1      -3.746   7.066 -31.257  1.00  0.00     0.078 A 
ENDROOT
BRANCH   1  13
HETATM   13  N   UNL     1      -4.821   4.901 -31.704  1.00  0.00    -0.365 N 
HETATM   14  C   UNL     1      -5.283   4.131 -30.558  1.00  0.00     0.126 C 
HETATM   15  C   UNL     1      -6.713   3.664 -30.774  1.00  0.00     0.041 C 
HETATM   16  C   UNL     1      -6.909   2.964 -32.132  1.00  0.00     0.076 C 
HETATM   17  C   UNL     1      -6.410   3.848 -33.293  1.00  0.00     0.041 C 
HETATM   18  C   UNL     1      -5.042   4.494 -33.079  1.00  0.00     0.126 C 
BRANCH  16  19
HETATM   19  C   UNL     1      -6.147   1.608 -32.097  1.00  0.00     0.330 C 
HETATM   20  N   UNL     1      -5.175   1.194 -33.065  1.00  0.00     0.018 N 
HETATM   21  H   UNL     1      -4.461   1.927 -33.166  1.00  0.00     0.294 HD
HETATM   22  H   UNL     1      -5.611   1.177 -33.990  1.00  0.00     0.294 HD
HETATM   23  O   UNL     1      -6.316   0.811 -31.186  1.00  0.00    -0.264 OA
BRANCH  20  24
HETATM   24  C   UNL     1      -4.488  -0.079 -32.879  1.00  0.00     0.142 A 
HETATM   25  C   UNL     1      -3.486  -0.185 -31.912  1.00  0.00     0.037 A 
HETATM   26  C   UNL     1      -2.873  -1.417 -31.691  1.00  0.00     0.003 A 
HETATM   27  C   UNL     1      -3.261  -2.539 -32.429  1.00  0.00     0.018 A 
HETATM   28  C   UNL     1      -4.269  -2.430 -33.396  1.00  0.00     0.041 A 
HETATM   29  C   UNL     1      -4.886  -1.189 -33.620  1.00  0.00     0.055 A 
BRANCH  28  30
HETATM   30  C   UNL     1      -4.725  -3.586 -34.211  1.00  0.00     0.293 C 
HETATM   31  O   UNL     1      -4.044  -4.590 -34.339  1.00  0.00    -0.259 OA
BRANCH  30  32
HETATM   32  O   UNL     1      -5.928  -3.336 -34.771  1.00  0.00    -0.323 OA
HETATM   33  C   UNL     1      -6.552  -4.484 -35.354  1.00  0.00     0.213 C 
ENDBRANCH  30  32
ENDBRANCH  28  30
ENDBRANCH  20  24
ENDBRANCH  16  19
BRANCH  16  34
HETATM   34  C   UNL     1      -8.425   2.582 -32.334  1.00  0.00     0.253 C 
BRANCH  34  35
HETATM   35  N   UNL     1      -8.745   1.244 -33.004  1.00  0.00    -0.078 N 
HETATM   36  H   UNL     1      -7.874   0.729 -33.195  1.00  0.00     0.279 HD
HETATM   37  C   UNL     1      -9.646   0.298 -32.247  1.00  0.00     0.269 C 
HETATM   38  C   UNL     1      -9.328   1.481 -34.395  1.00  0.00     0.269 C 
ENDBRANCH  34  35
ENDBRANCH  16  34
ENDBRANCH   1  13
TORSDOF 7
ENDMDL
MODEL 5
REMARK VINA RESULT:      -7.8      2.270      6.767
REMARK  7 active torsions:
REMARK  status: ('A' for Active; 'I' for Inactive)
REMARK    1  A    between atoms: O_2  and  C_3 
REMARK    2  A    between atoms: C_3  and  C_5 
REMARK    3  A    between atoms: C_9  and  N_10 
REMARK       I    between atoms: N_10  and  C_13 
REMARK    4  A    between atoms: C_13  and  C_15 
REMARK    5  A    between atoms: C_15  and  C_16 
REMARK    6  A    between atoms: C_16  and  N_17 
REMARK    7  A    between atoms: N_23  and  C_26 
ROOT
HETATM    1  C   UNL     1     -11.773   1.981 -33.225  1.00  0.00     0.142 A 
HETATM    2  N   UNL     1     -11.929   0.704 -33.651  1.00  0.00    -0.224 NA
HETATM    3  C   UNL     1     -13.190   0.229 -33.796  1.00  0.00     0.237 A 
HETATM    4  N   UNL     1     -14.346   0.856 -33.534  1.00  0.00    -0.223 NA
HETATM    5  C   UNL     1     -14.148   2.112 -33.118  1.00  0.00     0.144 A 
HETATM    6  N   UNL     1     -15.140   3.003 -32.799  1.00  0.00    -0.348 N 
HETATM    7  H   UNL     1     -16.129   2.791 -32.842  1.00  0.00     0.167 HD
HETATM    8  C   UNL     1     -14.578   4.209 -32.442  1.00  0.00     0.113 A 
HETATM    9  C   UNL     1     -13.209   4.076 -32.546  1.00  0.00     0.077 A 
HETATM   10  C   UNL     1     -12.228   5.086 -32.301  1.00  0.00     0.102 C 
HETATM   11  N   UNL     1     -11.327   5.796 -32.114  1.00  0.00    -0.191 NA
HETATM   12  C   UNL     1     -12.926   2.740 -32.949  1.00  0.00     0.078 A 
ENDROOT
BRANCH   1  13
HETATM   13  N   UNL     1     -10.483   2.518 -33.098  1.00  0.00    -0.365 N 
HETATM   14  C   UNL     1      -9.934   2.380 -31.756  1.00  0.00     0.126 C 
HETATM   15  C   UNL     1      -8.991   1.190 -31.688  1.00  0.00     0.041 C 
HETATM   16  C   UNL     1      -7.935   1.207 -32.809  1.00  0.00     0.076 C 
HETATM   17  C   UNL     1      -8.596   1.340 -34.197  1.00  0.00     0.041 C 
HETATM   18  C   UNL     1      -9.681   2.409 -34.302  1.00  0.00     0.126 C 
BRANCH  16  19
HETATM   19  C   UNL     1      -6.957   2.388 -32.542  1.00  0.00     0.330 C 
HETATM   20  N   UNL     1      -6.201   2.563 -31.336  1.00  0.00     0.018 N 
HETATM   21  H   UNL     1      -5.680   1.701 -31.133  1.00  0.00     0.294 HD
HETATM   22  H   UNL     1      -6.846   2.628 -30.545  1.00  0.00     0.294 HD
HETATM   23  O   UNL     1      -6.745   3.238 -33.393  1.00  0.00    -0.264 OA
BRANCH  20  24
HETATM   24  C   UNL     1      -5.272   3.682 -31.241  1.00  0.00     0.142 A 
HETATM   25  C   UNL     1      -5.591   4.776 -30.434  1.00  0.00     0.037 A 
HETATM   26  C   UNL     1      -4.675   5.818 -30.294  1.00  0.00     0.003 A 
HETATM   27  C   UNL     1      -3.444   5.765 -30.954  1.00  0.00     0.018 A 
HETATM   28  C   UNL     1      -3.125   4.665 -31.761  1.00  0.00     0.041 A 
HETATM   29  C   UNL     1      -4.047   3.616 -31.903  1.00  0.00     0.055 A 
BRANCH  28  30
HETATM   30  C   UNL     1      -1.833   4.552 -32.486  1.00  0.00     0.293 C 
HETATM   31  O   UNL     1      -0.765   4.734 -31.927  1.00  0.00    -0.259 OA
BRANCH  30  32
HETATM   32  O   UNL     1      -2.035   4.263 -33.790  1.00  0.00    -0.323 OA
HETATM   33  C   UNL     1      -1.656   5.310 -34.688  1.00  0.00     0.213 C 
ENDBRANCH  30  32
ENDBRANCH  28  30
ENDBRANCH  20  24
ENDBRANCH  16  19
BRANCH  16  34
HETATM   34  C   UNL     1      -7.045  -0.092 -32.737  1.00  0.00     0.253 C 
BRANCH  34  35
HETATM   35  N   UNL     1      -5.922  -0.250 -33.765  1.00  0.00    -0.078 N 
HETATM   36  H   UNL     1      -5.948   0.530 -34.437  1.00  0.00     0.279 HD
HETATM   37  C   UNL     1      -4.511  -0.311 -33.232  1.00  0.00     0.269 C 
HETATM   38  C   UNL     1      -6.179  -1.477 -34.636  1.00  0.00     0.269 C 
ENDBRANCH  34  35
ENDBRANCH  16  34
ENDBRANCH   1  13
TORSDOF 7
ENDMDL
MODEL 6
REMARK VINA RESULT:      -7.7      2.300      6.502
REMARK  7 active torsions:
REMARK  status: ('A' for Active; 'I' for Inactive)
REMARK    1  A    between atoms: O_2  and  C_3 
REMARK    2  A    between atoms: C_3  and  C_5 
REMARK    3  A    between atoms: C_9  and  N_10 
REMARK       I    between atoms: N_10  and  C_13 
REMARK    4  A    between atoms: C_13  and  C_15 
REMARK    5  A    between atoms: C_15  and  C_16 
REMARK    6  A    between atoms: C_16  and  N_17 
REMARK    7  A    between atoms: N_23  and  C_26 
ROOT
HETATM    1  C   UNL     1     -10.255   1.672 -33.483  1.00  0.00     0.142 A 
HETATM    2  N   UNL     1     -10.659   0.421 -33.153  1.00  0.00    -0.224 NA
HETATM    3  C   UNL     1     -11.923   0.053 -33.474  1.00  0.00     0.237 A 
HETATM    4  N   UNL     1     -12.876   0.791 -34.061  1.00  0.00    -0.223 NA
HETATM    5  C   UNL     1     -12.437   2.017 -34.371  1.00  0.00     0.144 A 
HETATM    6  N   UNL     1     -13.178   2.985 -34.998  1.00  0.00    -0.348 N 
HETATM    7  H   UNL     1     -14.141   2.866 -35.285  1.00  0.00     0.167 HD
HETATM    8  C   UNL     1     -12.402   4.107 -35.188  1.00  0.00     0.113 A 
HETATM    9  C   UNL     1     -11.149   3.837 -34.676  1.00  0.00     0.077 A 
HETATM   10  C   UNL     1     -10.015   4.706 -34.683  1.00  0.00     0.102 C 
HETATM   11  N   UNL     1      -9.026   5.310 -34.596  1.00  0.00    -0.191 NA
HETATM   12  C   UNL     1     -11.171   2.522 -34.131  1.00  0.00     0.078 A 
ENDROOT
BRANCH   1  13
HETATM   13  N   UNL     1      -8.941   2.075 -33.200  1.00  0.00    -0.365 N 
HETATM   14  C   UNL     1      -8.600   1.966 -31.789  1.00  0.00     0.126 C 
HETATM   15  C   UNL     1      -7.819   0.689 -31.528  1.00  0.00     0.041 C 
HETATM   16  C   UNL     1      -6.625   0.519 -32.485  1.00  0.00     0.076 C 
HETATM   17  C   UNL     1      -7.070   0.632 -33.958  1.00  0.00     0.041 C 
HETATM   18  C   UNL     1      -8.000   1.803 -34.270  1.00  0.00     0.126 C 
BRANCH  16  19
HETATM   19  C   UNL     1      -5.563   1.603 -32.140  1.00  0.00     0.330 C 
HETATM   20  N   UNL     1      -5.229   2.714 -32.982  1.00  0.00     0.018 N 
HETATM   21  H   UNL     1      -6.087   3.219 -33.237  1.00  0.00     0.294 HD
HETATM   22  H   UNL     1      -4.898   2.362 -33.883  1.00  0.00     0.294 HD
HETATM   23  O   UNL     1      -4.964   1.585 -31.075  1.00  0.00    -0.264 OA
BRANCH  20  24
HETATM   24  C   UNL     1      -4.258   3.694 -32.508  1.00  0.00     0.142 A 
HETATM   25  C   UNL     1      -2.911   3.547 -32.846  1.00  0.00     0.037 A 
HETATM   26  C   UNL     1      -1.993   4.517 -32.445  1.00  0.00     0.003 A 
HETATM   27  C   UNL     1      -2.419   5.630 -31.714  1.00  0.00     0.018 A 
HETATM   28  C   UNL     1      -3.770   5.775 -31.380  1.00  0.00     0.041 A 
HETATM   29  C   UNL     1      -4.696   4.799 -31.782  1.00  0.00     0.055 A 
BRANCH  28  30
HETATM   30  C   UNL     1      -4.283   6.935 -30.606  1.00  0.00     0.293 C 
HETATM   31  O   UNL     1      -4.905   7.839 -31.139  1.00  0.00    -0.259 OA
BRANCH  30  32
HETATM   32  O   UNL     1      -3.939   6.838 -29.304  1.00  0.00    -0.323 OA
HETATM   33  C   UNL     1      -5.015   6.461 -28.439  1.00  0.00     0.213 C 
ENDBRANCH  30  32
ENDBRANCH  28  30
ENDBRANCH  20  24
ENDBRANCH  16  19
BRANCH  16  34
HETATM   34  C   UNL     1      -5.908  -0.860 -32.223  1.00  0.00     0.253 C 
BRANCH  34  35
HETATM   35  N   UNL     1      -4.531  -1.084 -32.851  1.00  0.00    -0.078 N 
HETATM   36  H   UNL     1      -4.230  -0.236 -33.352  1.00  0.00     0.279 HD
HETATM   37  C   UNL     1      -3.404  -1.452 -31.915  1.00  0.00     0.269 C 
HETATM   38  C   UNL     1      -4.623  -2.133 -33.956  1.00  0.00     0.269 C 
ENDBRANCH  34  35
ENDBRANCH  16  34
ENDBRANCH   1  13
TORSDOF 7
ENDMDL
MODEL 7
REMARK VINA RESULT:      -7.5      2.709      6.211
REMARK  7 active torsions:
REMARK  status: ('A' for Active; 'I' for Inactive)
REMARK    1  A    between atoms: O_2  and  C_3 
REMARK    2  A    between atoms: C_3  and  C_5 
REMARK    3  A    between atoms: C_9  and  N_10 
REMARK       I    between atoms: N_10  and  C_13 
REMARK    4  A    between atoms: C_13  and  C_15 
REMARK    5  A    between atoms: C_15  and  C_16 
REMARK    6  A    between atoms: C_16  and  N_17 
REMARK    7  A    between atoms: N_23  and  C_26 
ROOT
HETATM    1  C   UNL     1      -5.162  -0.213 -32.432  1.00  0.00     0.142 A 
HETATM    2  N   UNL     1      -4.152  -0.246 -31.529  1.00  0.00    -0.224 NA
HETATM    3  C   UNL     1      -3.258  -1.261 -31.607  1.00  0.00     0.237 A 
HETATM    4  N   UNL     1      -3.251  -2.294 -32.462  1.00  0.00    -0.223 NA
HETATM    5  C   UNL     1      -4.262  -2.223 -33.337  1.00  0.00     0.144 A 
HETATM    6  N   UNL     1      -4.499  -3.124 -34.343  1.00  0.00    -0.348 N 
HETATM    7  H   UNL     1      -3.929  -3.942 -34.519  1.00  0.00     0.167 HD
HETATM    8  C   UNL     1      -5.600  -2.725 -35.067  1.00  0.00     0.113 A 
HETATM    9  C   UNL     1      -6.059  -1.549 -34.511  1.00  0.00     0.077 A 
HETATM   10  C   UNL     1      -7.165  -0.763 -34.960  1.00  0.00     0.102 C 
HETATM   11  N   UNL     1      -8.047  -0.043 -35.195  1.00  0.00    -0.191 NA
HETATM   12  C   UNL     1      -5.231  -1.238 -33.395  1.00  0.00     0.078 A 
ENDROOT
BRANCH   1  13
HETATM   13  N   UNL     1      -6.085   0.843 -32.404  1.00  0.00    -0.365 N 
HETATM   14  C   UNL     1      -6.969   0.800 -31.247  1.00  0.00     0.126 C 
HETATM   15  C   UNL     1      -6.479   1.754 -30.170  1.00  0.00     0.041 C 
HETATM   16  C   UNL     1      -6.208   3.170 -30.711  1.00  0.00     0.076 C 
HETATM   17  C   UNL     1      -5.253   3.131 -31.923  1.00  0.00     0.041 C 
HETATM   18  C   UNL     1      -5.583   2.077 -32.978  1.00  0.00     0.126 C 
BRANCH  16  19
HETATM   19  C   UNL     1      -7.570   3.816 -31.095  1.00  0.00     0.330 C 
HETATM   20  N   UNL     1      -8.804   3.593 -30.400  1.00  0.00     0.018 N 
HETATM   21  H   UNL     1      -8.667   3.775 -29.397  1.00  0.00     0.294 HD
HETATM   22  H   UNL     1      -9.021   2.593 -30.419  1.00  0.00     0.294 HD
HETATM   23  O   UNL     1      -7.655   4.608 -32.022  1.00  0.00    -0.264 OA
BRANCH  20  24
HETATM   24  C   UNL     1      -9.998   4.312 -30.828  1.00  0.00     0.142 A 
HETATM   25  C   UNL     1     -10.213   5.616 -30.378  1.00  0.00     0.037 A 
HETATM   26  C   UNL     1     -11.323   6.326 -30.837  1.00  0.00     0.003 A 
HETATM   27  C   UNL     1     -12.209   5.737 -31.742  1.00  0.00     0.018 A 
HETATM   28  C   UNL     1     -11.988   4.430 -32.194  1.00  0.00     0.041 A 
HETATM   29  C   UNL     1     -10.872   3.714 -31.732  1.00  0.00     0.055 A 
BRANCH  28  30
HETATM   30  C   UNL     1     -12.894   3.752 -33.156  1.00  0.00     0.293 C 
HETATM   31  O   UNL     1     -12.471   3.213 -34.166  1.00  0.00    -0.259 OA
BRANCH  30  32
HETATM   32  O   UNL     1     -14.182   3.853 -32.762  1.00  0.00    -0.323 OA
HETATM   33  C   UNL     1     -14.598   2.833 -31.851  1.00  0.00     0.213 C 
ENDBRANCH  30  32
ENDBRANCH  28  30
ENDBRANCH  20  24
ENDBRANCH  16  19
BRANCH  16  34
HETATM   34  C   UNL     1      -5.623   4.086 -29.570  1.00  0.00     0.253 C 
BRANCH  34  35
HETATM   35  N   UNL     1      -6.067   5.550 -29.525  1.00  0.00    -0.078 N 
HETATM   36  H   UNL     1      -6.759   5.730 -30.267  1.00  0.00     0.279 HD
HETATM   37  C   UNL     1      -6.682   6.039 -28.236  1.00  0.00     0.269 C 
HETATM   38  C   UNL     1      -4.902   6.463 -29.899  1.00  0.00     0.269 C 
ENDBRANCH  34  35
ENDBRANCH  16  34
ENDBRANCH   1  13
TORSDOF 7
ENDMDL
MODEL 8
REMARK VINA RESULT:      -7.5      1.743      2.151
REMARK  7 active torsions:
REMARK  status: ('A' for Active; 'I' for Inactive)
REMARK    1  A    between atoms: O_2  and  C_3 
REMARK    2  A    between atoms: C_3  and  C_5 
REMARK    3  A    between atoms: C_9  and  N_10 
REMARK       I    between atoms: N_10  and  C_13 
REMARK    4  A    between atoms: C_13  and  C_15 
REMARK    5  A    between atoms: C_15  and  C_16 
REMARK    6  A    between atoms: C_16  and  N_17 
REMARK    7  A    between atoms: N_23  and  C_26 
ROOT
HETATM    1  C   UNL     1      -5.906  -1.689 -33.749  1.00  0.00     0.142 A 
HETATM    2  N   UNL     1      -6.744  -2.319 -34.609  1.00  0.00    -0.224 NA
HETATM    3  C   UNL     1      -6.460  -3.598 -34.954  1.00  0.00     0.237 A 
HETATM    4  N   UNL     1      -5.411  -4.344 -34.578  1.00  0.00    -0.223 NA
HETATM    5  C   UNL     1      -4.611  -3.687 -33.730  1.00  0.00     0.144 A 
HETATM    6  N   UNL     1      -3.475  -4.199 -33.159  1.00  0.00    -0.348 N 
HETATM    7  H   UNL     1      -3.126  -5.133 -33.331  1.00  0.00     0.167 HD
HETATM    8  C   UNL     1      -2.920  -3.262 -32.317  1.00  0.00     0.113 A 
HETATM    9  C   UNL     1      -3.725  -2.142 -32.354  1.00  0.00     0.077 A 
HETATM   10  C   UNL     1      -3.547  -0.933 -31.612  1.00  0.00     0.102 C 
HETATM   11  N   UNL     1      -3.514   0.107 -31.096  1.00  0.00    -0.191 NA
HETATM   12  C   UNL     1      -4.786  -2.393 -33.269  1.00  0.00     0.078 A 
ENDROOT
BRANCH   1  13
HETATM   13  N   UNL     1      -6.188  -0.376 -33.341  1.00  0.00    -0.365 N 
HETATM   14  C   UNL     1      -6.191   0.577 -34.442  1.00  0.00     0.126 C 
HETATM   15  C   UNL     1      -7.614   0.860 -34.896  1.00  0.00     0.041 C 
HETATM   16  C   UNL     1      -8.545   1.233 -33.728  1.00  0.00     0.076 C 
HETATM   17  C   UNL     1      -8.497   0.168 -32.613  1.00  0.00     0.041 C 
HETATM   18  C   UNL     1      -7.097  -0.294 -32.214  1.00  0.00     0.126 C 
BRANCH  16  19
HETATM   19  C   UNL     1      -8.115   2.627 -33.186  1.00  0.00     0.330 C 
HETATM   20  N   UNL     1      -7.793   3.757 -34.008  1.00  0.00     0.018 N 
HETATM   21  H   UNL     1      -8.560   3.926 -34.671  1.00  0.00     0.294 HD
HETATM   22  H   UNL     1      -7.014   3.511 -34.623  1.00  0.00     0.294 HD
HETATM   23  O   UNL     1      -8.066   2.851 -31.986  1.00  0.00    -0.264 OA
BRANCH  20  24
HETATM   24  C   UNL     1      -7.466   5.026 -33.368  1.00  0.00     0.142 A 
HETATM   25  C   UNL     1      -8.495   5.879 -32.966  1.00  0.00     0.037 A 
HETATM   26  C   UNL     1      -8.183   7.064 -32.298  1.00  0.00     0.003 A 
HETATM   27  C   UNL     1      -6.851   7.391 -32.032  1.00  0.00     0.018 A 
HETATM   28  C   UNL     1      -5.821   6.532 -32.434  1.00  0.00     0.041 A 
HETATM   29  C   UNL     1      -6.134   5.339 -33.106  1.00  0.00     0.055 A 
BRANCH  28  30
HETATM   30  C   UNL     1      -4.387   6.825 -32.178  1.00  0.00     0.293 C 
HETATM   31  O   UNL     1      -3.515   6.496 -32.965  1.00  0.00    -0.259 OA
BRANCH  30  32
HETATM   32  O   UNL     1      -4.226   7.448 -30.991  1.00  0.00    -0.323 OA
HETATM   33  C   UNL     1      -3.184   8.428 -30.980  1.00  0.00     0.213 C 
ENDBRANCH  30  32
ENDBRANCH  28  30
ENDBRANCH  20  24
ENDBRANCH  16  19
BRANCH  16  34
HETATM   34  C   UNL     1     -10.020   1.429 -34.249  1.00  0.00     0.253 C 
BRANCH  34  35
HETATM   35  N   UNL     1     -11.144   1.502 -33.213  1.00  0.00    -0.078 N 
HETATM   36  H   UNL     1     -10.815   1.129 -32.311  1.00  0.00     0.279 HD
HETATM   37  C   UNL     1     -11.724   2.866 -32.928  1.00  0.00     0.269 C 
HETATM   38  C   UNL     1     -12.274   0.551 -33.598  1.00  0.00     0.269 C 
ENDBRANCH  34  35
ENDBRANCH  16  34
ENDBRANCH   1  13
TORSDOF 7
ENDMDL
MODEL 9
REMARK VINA RESULT:      -7.4      3.258      8.792
REMARK  7 active torsions:
REMARK  status: ('A' for Active; 'I' for Inactive)
REMARK    1  A    between atoms: O_2  and  C_3 
REMARK    2  A    between atoms: C_3  and  C_5 
REMARK    3  A    between atoms: C_9  and  N_10 
REMARK       I    between atoms: N_10  and  C_13 
REMARK    4  A    between atoms: C_13  and  C_15 
REMARK    5  A    between atoms: C_15  and  C_16 
REMARK    6  A    between atoms: C_16  and  N_17 
REMARK    7  A    between atoms: N_23  and  C_26 
ROOT
HETATM    1  C   UNL     1      -4.416   4.811 -31.815  1.00  0.00     0.142 A 
HETATM    2  N   UNL     1      -3.440   3.871 -31.776  1.00  0.00    -0.224 NA
HETATM    3  C   UNL     1      -2.176   4.274 -31.502  1.00  0.00     0.237 A 
HETATM    4  N   UNL     1      -1.732   5.521 -31.290  1.00  0.00    -0.223 NA
HETATM    5  C   UNL     1      -2.725   6.417 -31.335  1.00  0.00     0.144 A 
HETATM    6  N   UNL     1      -2.581   7.765 -31.134  1.00  0.00    -0.348 N 
HETATM    7  H   UNL     1      -1.698   8.218 -30.936  1.00  0.00     0.167 HD
HETATM    8  C   UNL     1      -3.811   8.378 -31.222  1.00  0.00     0.113 A 
HETATM    9  C   UNL     1      -4.746   7.397 -31.477  1.00  0.00     0.077 A 
HETATM   10  C   UNL     1      -6.158   7.573 -31.616  1.00  0.00     0.102 C 
HETATM   11  N   UNL     1      -7.309   7.570 -31.776  1.00  0.00    -0.191 NA
HETATM   12  C   UNL     1      -4.062   6.153 -31.577  1.00  0.00     0.078 A 
ENDROOT
BRANCH   1  13
HETATM   13  N   UNL     1      -5.742   4.425 -32.059  1.00  0.00    -0.365 N 
HETATM   14  C   UNL     1      -5.935   3.841 -33.379  1.00  0.00     0.126 C 
HETATM   15  C   UNL     1      -5.952   2.324 -33.292  1.00  0.00     0.041 C 
HETATM   16  C   UNL     1      -6.926   1.804 -32.218  1.00  0.00     0.076 C 
HETATM   17  C   UNL     1      -6.647   2.457 -30.848  1.00  0.00     0.041 C 
HETATM   18  C   UNL     1      -6.449   3.972 -30.877  1.00  0.00     0.126 C 
BRANCH  16  19
HETATM   19  C   UNL     1      -8.379   2.099 -32.690  1.00  0.00     0.330 C 
HETATM   20  N   UNL     1      -8.896   1.774 -33.987  1.00  0.00     0.018 N 
HETATM   21  H   UNL     1      -8.721   0.780 -34.184  1.00  0.00     0.294 HD
HETATM   22  H   UNL     1      -8.333   2.246 -34.699  1.00  0.00     0.294 HD
HETATM   23  O   UNL     1      -9.197   2.608 -31.939  1.00  0.00    -0.264 OA
BRANCH  20  24
HETATM   24  C   UNL     1     -10.298   2.049 -34.279  1.00  0.00     0.142 A 
HETATM   25  C   UNL     1     -10.641   3.213 -34.971  1.00  0.00     0.037 A 
HETATM   26  C   UNL     1     -11.975   3.446 -35.304  1.00  0.00     0.003 A 
HETATM   27  C   UNL     1     -12.959   2.519 -34.952  1.00  0.00     0.018 A 
HETATM   28  C   UNL     1     -12.612   1.351 -34.262  1.00  0.00     0.041 A 
HETATM   29  C   UNL     1     -11.269   1.116 -33.925  1.00  0.00     0.055 A 
BRANCH  28  30
HETATM   30  C   UNL     1     -13.613   0.329 -33.862  1.00  0.00     0.293 C 
HETATM   31  O   UNL     1     -13.279  -0.761 -33.426  1.00  0.00    -0.259 OA
BRANCH  30  32
HETATM   32  O   UNL     1     -14.870   0.773 -34.078  1.00  0.00    -0.323 OA
HETATM   33  C   UNL     1     -15.438   1.485 -32.976  1.00  0.00     0.213 C 
ENDBRANCH  30  32
ENDBRANCH  28  30
ENDBRANCH  20  24
ENDBRANCH  16  19
BRANCH  16  34
HETATM   34  C   UNL     1      -6.835   0.234 -32.115  1.00  0.00     0.253 C 
BRANCH  34  35
HETATM   35  N   UNL     1      -6.112  -0.519 -33.234  1.00  0.00    -0.078 N 
HETATM   36  H   UNL     1      -5.844   0.137 -33.982  1.00  0.00     0.279 HD
HETATM   37  C   UNL     1      -4.861  -1.272 -32.853  1.00  0.00     0.269 C 
HETATM   38  C   UNL     1      -7.077  -1.475 -33.931  1.00  0.00     0.269 C 
ENDBRANCH  34  35
ENDBRANCH  16  34
ENDBRANCH   1  13
TORSDOF 7
ENDMDL
MODEL 10
REMARK VINA RESULT:      -7.3      1.672      2.339
REMARK  7 active torsions:
REMARK  status: ('A' for Active; 'I' for Inactive)
REMARK    1  A    between atoms: O_2  and  C_3 
REMARK    2  A    between atoms: C_3  and  C_5 
REMARK    3  A    between atoms: C_9  and  N_10 
REMARK       I    between atoms: N_10  and  C_13 
REMARK    4  A    between atoms: C_13  and  C_15 
REMARK    5  A    between atoms: C_15  and  C_16 
REMARK    6  A    between atoms: C_16  and  N_17 
REMARK    7  A    between atoms: N_23  and  C_26 
ROOT
HETATM    1  C   UNL     1      -5.843  -2.268 -33.985  1.00  0.00     0.142 A 
HETATM    2  N   UNL     1      -6.946  -2.575 -34.710  1.00  0.00    -0.224 NA
HETATM    3  C   UNL     1      -7.072  -3.841 -35.176  1.00  0.00     0.237 A 
HETATM    4  N   UNL     1      -6.209  -4.860 -35.047  1.00  0.00    -0.223 NA
HETATM    5  C   UNL     1      -5.136  -4.516 -34.326  1.00  0.00     0.144 A 
HETATM    6  N   UNL     1      -4.098  -5.353 -34.008  1.00  0.00    -0.348 N 
HETATM    7  H   UNL     1      -4.041  -6.321 -34.297  1.00  0.00     0.167 HD
HETATM    8  C   UNL     1      -3.184  -4.678 -33.230  1.00  0.00     0.113 A 
HETATM    9  C   UNL     1      -3.660  -3.395 -33.050  1.00  0.00     0.077 A 
HETATM   10  C   UNL     1      -3.049  -2.355 -32.284  1.00  0.00     0.102 C 
HETATM   11  N   UNL     1      -2.659  -1.416 -31.722  1.00  0.00    -0.191 NA
HETATM   12  C   UNL     1      -4.885  -3.276 -33.765  1.00  0.00     0.078 A 
ENDROOT
BRANCH   1  13
HETATM   13  N   UNL     1      -5.697  -0.978 -33.454  1.00  0.00    -0.365 N 
HETATM   14  C   UNL     1      -5.851   0.072 -34.451  1.00  0.00     0.126 C 
HETATM   15  C   UNL     1      -7.251   0.660 -34.392  1.00  0.00     0.041 C 
HETATM   16  C   UNL     1      -7.660   1.073 -32.966  1.00  0.00     0.076 C 
HETATM   17  C   UNL     1      -7.483  -0.096 -31.974  1.00  0.00     0.041 C 
HETATM   18  C   UNL     1      -6.159  -0.850 -32.085  1.00  0.00     0.126 C 
BRANCH  16  19
HETATM   19  C   UNL     1      -6.797   2.297 -32.544  1.00  0.00     0.330 C 
HETATM   20  N   UNL     1      -5.969   2.346 -31.375  1.00  0.00     0.018 N 
HETATM   21  H   UNL     1      -5.342   1.531 -31.366  1.00  0.00     0.294 HD
HETATM   22  H   UNL     1      -6.550   2.192 -30.547  1.00  0.00     0.294 HD
HETATM   23  O   UNL     1      -6.747   3.304 -33.234  1.00  0.00    -0.264 OA
BRANCH  20  24
HETATM   24  C   UNL     1      -5.160   3.535 -31.130  1.00  0.00     0.142 A 
HETATM   25  C   UNL     1      -3.939   3.685 -31.790  1.00  0.00     0.037 A 
HETATM   26  C   UNL     1      -3.196   4.850 -31.604  1.00  0.00     0.003 A 
HETATM   27  C   UNL     1      -3.673   5.862 -30.766  1.00  0.00     0.018 A 
HETATM   28  C   UNL     1      -4.900   5.710 -30.108  1.00  0.00     0.041 A 
HETATM   29  C   UNL     1      -5.648   4.537 -30.294  1.00  0.00     0.055 A 
BRANCH  28  30
HETATM   30  C   UNL     1      -5.459   6.750 -29.206  1.00  0.00     0.293 C 
HETATM   31  O   UNL     1      -4.895   7.077 -28.175  1.00  0.00    -0.259 OA
BRANCH  30  32
HETATM   32  O   UNL     1      -6.634   7.218 -29.678  1.00  0.00    -0.323 OA
HETATM   33  C   UNL     1      -6.664   8.633 -29.879  1.00  0.00     0.213 C 
ENDBRANCH  30  32
ENDBRANCH  28  30
ENDBRANCH  20  24
ENDBRANCH  16  19
BRANCH  16  34
HETATM   34  C   UNL     1      -9.148   1.593 -32.954  1.00  0.00     0.253 C 
BRANCH  34  35
HETATM   35  N   UNL     1      -9.781   1.987 -34.290  1.00  0.00    -0.078 N 
HETATM   36  H   UNL     1      -9.164   1.711 -35.067  1.00  0.00     0.279 HD
HETATM   37  C   UNL     1     -11.143   1.413 -34.597  1.00  0.00     0.269 C 
HETATM   38  C   UNL     1      -9.843   3.508 -34.411  1.00  0.00     0.269 C 
ENDBRANCH  34  35
ENDBRANCH  16  34
ENDBRANCH   1  13
TORSDOF 7
ENDMDL
