MODEL 1
REMARK VINA RESULT:      -8.3      0.000      0.000
REMARK  3 active torsions:
REMARK  status: ('A' for Active; 'I' for Inactive)
REMARK    1  A    between atoms: C_11  and  N_12 
REMARK       I    between atoms: N_12  and  C_13 
REMARK       I    between atoms: C_13  and  N_14 
REMARK    2  A    between atoms: N_14  and  C_15 
REMARK    3  A    between atoms: C_16  and  O_17 
ROOT
HETATM    1  N   UNL     1      -9.038   1.006 -34.622  1.00  0.00    -0.338 N 
HETATM    2  C   UNL     1      -7.929   0.242 -34.888  1.00  0.00     0.321 C 
HETATM    3  N   UNL     1      -7.834  -0.910 -34.154  1.00  0.00    -0.306 N 
HETATM    4  O   UNL     1      -7.168   0.636 -35.762  1.00  0.00    -0.247 OA
HETATM    5  H   UNL     1      -9.040   1.783 -35.271  1.00  0.00     0.164 HD
HETATM    6  H   UNL     1      -8.710  -1.412 -34.111  1.00  0.00     0.171 HD
ENDROOT
BRANCH   1   7
HETATM    7  C   UNL     1      -9.706   1.107 -33.335  1.00  0.00     0.091 C 
HETATM    8  C   UNL     1     -11.156   0.619 -33.378  1.00  0.00     0.063 C 
HETATM    9  C   UNL     1     -12.196   1.606 -33.933  1.00  0.00     0.121 C 
HETATM   10  N   UNL     1     -11.955   2.995 -33.387  1.00  0.00    -0.059 N 
HETATM   11  C   UNL     1     -12.265   1.646 -35.464  1.00  0.00     0.046 C 
HETATM   12  C   UNL     1     -13.596   1.187 -33.429  1.00  0.00     0.046 C 
HETATM   13  C   UNL     1     -10.552   3.560 -33.290  1.00  0.00     0.121 C 
HETATM   14  H   UNL     1     -12.351   3.020 -32.436  1.00  0.00     0.279 HD
HETATM   15  H   UNL     1     -12.539   3.664 -33.913  1.00  0.00     0.279 HD
HETATM   16  C   UNL     1     -10.102   4.115 -34.644  1.00  0.00     0.046 C 
HETATM   17  C   UNL     1     -10.645   4.753 -32.314  1.00  0.00     0.046 C 
HETATM   18  C   UNL     1      -9.611   2.500 -32.701  1.00  0.00     0.063 C 
ENDBRANCH   1   7
BRANCH   3  19
HETATM   19  C   UNL     1      -6.668  -1.715 -34.151  1.00  0.00     0.072 A 
HETATM   20  C   UNL     1      -5.466  -1.322 -33.524  1.00  0.00     0.095 A 
HETATM   21  C   UNL     1      -4.347  -2.162 -33.603  1.00  0.00     0.042 A 
HETATM   22  C   UNL     1      -4.426  -3.384 -34.276  1.00  0.00     0.045 A 
HETATM   23  C   UNL     1      -5.629  -3.778 -34.843  1.00  0.00     0.118 A 
HETATM   24  F   UNL     1      -5.710  -4.958 -35.470  1.00  0.00    -0.206 F 
HETATM   25  C   UNL     1      -6.754  -2.965 -34.776  1.00  0.00     0.074 A 
BRANCH  20  26
HETATM   26  O   UNL     1      -5.501  -0.172 -32.772  1.00  0.00    -0.354 OA
HETATM   27  C   UNL     1      -5.712  -0.337 -31.374  1.00  0.00     0.210 C 
ENDBRANCH  20  26
ENDBRANCH   3  19
TORSDOF 3
ENDMDL
MODEL 2
REMARK VINA RESULT:      -8.1      2.132      3.719
REMARK  3 active torsions:
REMARK  status: ('A' for Active; 'I' for Inactive)
REMARK    1  A    between atoms: C_11  and  N_12 
REMARK       I    between atoms: N_12  and  C_13 
REMARK       I    between atoms: C_13  and  N_14 
REMARK    2  A    between atoms: N_14  and  C_15 
REMARK    3  A    between atoms: C_16  and  O_17 
ROOT
HETATM    1  N   UNL     1      -6.033   0.978 -32.805  1.00  0.00    -0.338 N 
HETATM    2  C   UNL     1      -5.789  -0.372 -32.759  1.00  0.00     0.321 C 
HETATM    3  N   UNL     1      -5.354  -0.919 -33.937  1.00  0.00    -0.306 N 
HETATM    4  O   UNL     1      -5.944  -0.938 -31.685  1.00  0.00    -0.247 OA
HETATM    5  H   UNL     1      -6.271   1.280 -31.869  1.00  0.00     0.164 HD
HETATM    6  H   UNL     1      -4.638  -0.361 -34.379  1.00  0.00     0.171 HD
ENDROOT
BRANCH   1   7
HETATM    7  C   UNL     1      -6.499   1.714 -33.968  1.00  0.00     0.091 C 
HETATM    8  C   UNL     1      -6.329   3.228 -33.822  1.00  0.00     0.063 C 
HETATM    9  C   UNL     1      -7.399   3.962 -32.998  1.00  0.00     0.121 C 
HETATM   10  N   UNL     1      -8.780   3.457 -33.349  1.00  0.00    -0.059 N 
HETATM   11  C   UNL     1      -7.181   3.888 -31.482  1.00  0.00     0.046 C 
HETATM   12  C   UNL     1      -7.382   5.458 -33.383  1.00  0.00     0.046 C 
HETATM   13  C   UNL     1      -9.044   1.975 -33.532  1.00  0.00     0.121 C 
HETATM   14  H   UNL     1      -9.057   3.917 -34.229  1.00  0.00     0.279 HD
HETATM   15  H   UNL     1      -9.454   3.824 -32.659  1.00  0.00     0.279 HD
HETATM   16  C   UNL     1      -9.242   1.294 -32.174  1.00  0.00     0.046 C 
HETATM   17  C   UNL     1     -10.383   1.876 -34.293  1.00  0.00     0.046 C 
HETATM   18  C   UNL     1      -7.931   1.356 -34.387  1.00  0.00     0.063 C 
ENDBRANCH   1   7
BRANCH   3  19
HETATM   19  C   UNL     1      -5.244  -2.318 -34.130  1.00  0.00     0.072 A 
HETATM   20  C   UNL     1      -4.170  -3.080 -33.622  1.00  0.00     0.095 A 
HETATM   21  C   UNL     1      -4.118  -4.455 -33.893  1.00  0.00     0.042 A 
HETATM   22  C   UNL     1      -5.128  -5.067 -34.638  1.00  0.00     0.045 A 
HETATM   23  C   UNL     1      -6.202  -4.313 -35.087  1.00  0.00     0.118 A 
HETATM   24  F   UNL     1      -7.180  -4.905 -35.784  1.00  0.00    -0.206 F 
HETATM   25  C   UNL     1      -6.279  -2.950 -34.830  1.00  0.00     0.074 A 
BRANCH  20  26
HETATM   26  O   UNL     1      -3.286  -2.437 -32.789  1.00  0.00    -0.354 OA
HETATM   27  C   UNL     1      -2.795  -3.188 -31.684  1.00  0.00     0.210 C 
ENDBRANCH  20  26
ENDBRANCH   3  19
TORSDOF 3
ENDMDL
MODEL 3
REMARK VINA RESULT:      -7.8      1.729      2.370
REMARK  3 active torsions:
REMARK  status: ('A' for Active; 'I' for Inactive)
REMARK    1  A    between atoms: C_11  and  N_12 
REMARK       I    between atoms: N_12  and  C_13 
REMARK       I    between atoms: C_13  and  N_14 
REMARK    2  A    between atoms: N_14  and  C_15 
REMARK    3  A    between atoms: C_16  and  O_17 
ROOT
HETATM    1  N   UNL     1      -9.294   0.726 -34.452  1.00  0.00    -0.338 N 
HETATM    2  C   UNL     1      -8.002   0.266 -34.500  1.00  0.00     0.321 C 
HETATM    3  N   UNL     1      -7.698  -0.697 -33.575  1.00  0.00    -0.306 N 
HETATM    4  O   UNL     1      -7.271   0.724 -35.370  1.00  0.00    -0.247 OA
HETATM    5  H   UNL     1      -9.422   1.369 -35.222  1.00  0.00     0.164 HD
HETATM    6  H   UNL     1      -8.412  -1.409 -33.513  1.00  0.00     0.171 HD
ENDROOT
BRANCH   1   7
HETATM    7  C   UNL     1     -10.113   0.822 -33.254  1.00  0.00     0.091 C 
HETATM    8  C   UNL     1     -11.592   0.533 -33.520  1.00  0.00     0.063 C 
HETATM    9  C   UNL     1     -12.421   1.684 -34.113  1.00  0.00     0.121 C 
HETATM   10  N   UNL     1     -12.090   2.988 -33.423  1.00  0.00    -0.059 N 
HETATM   11  C   UNL     1     -12.278   1.840 -35.631  1.00  0.00     0.046 C 
HETATM   12  C   UNL     1     -13.916   1.418 -33.826  1.00  0.00     0.046 C 
HETATM   13  C   UNL     1     -10.654   3.356 -33.103  1.00  0.00     0.121 C 
HETATM   14  H   UNL     1     -12.604   2.998 -32.530  1.00  0.00     0.279 HD
HETATM   15  H   UNL     1     -12.512   3.763 -33.958  1.00  0.00     0.279 HD
HETATM   16  C   UNL     1      -9.962   3.941 -34.337  1.00  0.00     0.046 C 
HETATM   17  C   UNL     1     -10.733   4.479 -32.047  1.00  0.00     0.046 C 
HETATM   18  C   UNL     1      -9.936   2.144 -32.496  1.00  0.00     0.063 C 
ENDBRANCH   1   7
BRANCH   3  19
HETATM   19  C   UNL     1      -6.371  -1.140 -33.348  1.00  0.00     0.072 A 
HETATM   20  C   UNL     1      -5.797  -2.227 -34.042  1.00  0.00     0.095 A 
HETATM   21  C   UNL     1      -4.490  -2.625 -33.728  1.00  0.00     0.042 A 
HETATM   22  C   UNL     1      -3.757  -1.942 -32.754  1.00  0.00     0.045 A 
HETATM   23  C   UNL     1      -4.319  -0.845 -32.118  1.00  0.00     0.118 A 
HETATM   24  F   UNL     1      -3.609  -0.178 -31.199  1.00  0.00    -0.206 F 
HETATM   25  C   UNL     1      -5.611  -0.428 -32.413  1.00  0.00     0.074 A 
BRANCH  20  26
HETATM   26  O   UNL     1      -6.527  -2.765 -35.075  1.00  0.00    -0.354 OA
HETATM   27  C   UNL     1      -6.591  -4.186 -35.131  1.00  0.00     0.210 C 
ENDBRANCH  20  26
ENDBRANCH   3  19
TORSDOF 3
ENDMDL
MODEL 4
REMARK VINA RESULT:      -7.5      5.382      6.921
REMARK  3 active torsions:
REMARK  status: ('A' for Active; 'I' for Inactive)
REMARK    1  A    between atoms: C_11  and  N_12 
REMARK       I    between atoms: N_12  and  C_13 
REMARK       I    between atoms: C_13  and  N_14 
REMARK    2  A    between atoms: N_14  and  C_15 
REMARK    3  A    between atoms: C_16  and  O_17 
ROOT
HETATM    1  N   UNL     1      -6.062   2.517 -32.440  1.00  0.00    -0.338 N 
HETATM    2  C   UNL     1      -4.994   3.367 -32.299  1.00  0.00     0.321 C 
HETATM    3  N   UNL     1      -4.945   4.387 -33.211  1.00  0.00    -0.306 N 
HETATM    4  O   UNL     1      -4.223   3.157 -31.370  1.00  0.00    -0.247 OA
HETATM    5  H   UNL     1      -6.034   1.857 -31.673  1.00  0.00     0.164 HD
HETATM    6  H   UNL     1      -5.843   4.833 -33.337  1.00  0.00     0.171 HD
ENDROOT
BRANCH   1   7
HETATM    7  C   UNL     1      -6.712   2.177 -33.695  1.00  0.00     0.091 C 
HETATM    8  C   UNL     1      -8.239   2.199 -33.599  1.00  0.00     0.063 C 
HETATM    9  C   UNL     1      -8.906   0.959 -32.981  1.00  0.00     0.121 C 
HETATM   10  N   UNL     1      -8.270  -0.306 -33.510  1.00  0.00    -0.059 N 
HETATM   11  C   UNL     1      -8.906   0.948 -31.448  1.00  0.00     0.046 C 
HETATM   12  C   UNL     1     -10.384   0.914 -33.432  1.00  0.00     0.046 C 
HETATM   13  C   UNL     1      -6.765  -0.417 -33.657  1.00  0.00     0.121 C 
HETATM   14  H   UNL     1      -8.672  -0.481 -34.443  1.00  0.00     0.279 HD
HETATM   15  H   UNL     1      -8.602  -1.105 -32.947  1.00  0.00     0.279 HD
HETATM   16  C   UNL     1      -6.120  -0.766 -32.312  1.00  0.00     0.046 C 
HETATM   17  C   UNL     1      -6.522  -1.612 -34.605  1.00  0.00     0.046 C 
HETATM   18  C   UNL     1      -6.216   0.860 -34.305  1.00  0.00     0.063 C 
ENDBRANCH   1   7
BRANCH   3  19
HETATM   19  C   UNL     1      -3.819   5.237 -33.342  1.00  0.00     0.072 A 
HETATM   20  C   UNL     1      -3.648   6.408 -32.573  1.00  0.00     0.095 A 
HETATM   21  C   UNL     1      -2.522   7.213 -32.793  1.00  0.00     0.042 A 
HETATM   22  C   UNL     1      -1.569   6.850 -33.748  1.00  0.00     0.045 A 
HETATM   23  C   UNL     1      -1.727   5.670 -34.459  1.00  0.00     0.118 A 
HETATM   24  F   UNL     1      -0.803   5.311 -35.360  1.00  0.00    -0.206 F 
HETATM   25  C   UNL     1      -2.833   4.853 -34.257  1.00  0.00     0.074 A 
BRANCH  20  26
HETATM   26  O   UNL     1      -4.555   6.632 -31.564  1.00  0.00    -0.354 OA
HETATM   27  C   UNL     1      -4.045   6.600 -30.236  1.00  0.00     0.210 C 
ENDBRANCH  20  26
ENDBRANCH   3  19
TORSDOF 3
ENDMDL
MODEL 5
REMARK VINA RESULT:      -7.4      3.268      6.915
REMARK  3 active torsions:
REMARK  status: ('A' for Active; 'I' for Inactive)
REMARK    1  A    between atoms: C_11  and  N_12 
REMARK       I    between atoms: N_12  and  C_13 
REMARK       I    between atoms: C_13  and  N_14 
REMARK    2  A    between atoms: N_14  and  C_15 
REMARK    3  A    between atoms: C_16  and  O_17 
ROOT
HETATM    1  N   UNL     1      -7.633   2.021 -32.263  1.00  0.00    -0.338 N 
HETATM    2  C   UNL     1      -9.000   1.982 -32.372  1.00  0.00     0.321 C 
HETATM    3  N   UNL     1      -9.472   1.306 -33.465  1.00  0.00    -0.306 N 
HETATM    4  O   UNL     1      -9.653   2.514 -31.483  1.00  0.00    -0.247 OA
HETATM    5  H   UNL     1      -7.406   2.475 -31.388  1.00  0.00     0.164 HD
HETATM    6  H   UNL     1      -8.999   0.424 -33.605  1.00  0.00     0.171 HD
ENDROOT
BRANCH   1   7
HETATM    7  C   UNL     1      -6.696   2.031 -33.375  1.00  0.00     0.091 C 
HETATM    8  C   UNL     1      -6.154   0.639 -33.708  1.00  0.00     0.063 C 
HETATM    9  C   UNL     1      -5.011   0.117 -32.822  1.00  0.00     0.121 C 
HETATM   10  N   UNL     1      -3.995   1.207 -32.568  1.00  0.00    -0.059 N 
HETATM   11  C   UNL     1      -5.477  -0.489 -31.494  1.00  0.00     0.046 C 
HETATM   12  C   UNL     1      -4.260  -0.996 -33.587  1.00  0.00     0.046 C 
HETATM   13  C   UNL     1      -4.435   2.622 -32.246  1.00  0.00     0.121 C 
HETATM   14  H   UNL     1      -3.398   1.266 -33.407  1.00  0.00     0.279 HD
HETATM   15  H   UNL     1      -3.348   0.891 -31.829  1.00  0.00     0.279 HD
HETATM   16  C   UNL     1      -4.800   2.745 -30.764  1.00  0.00     0.046 C 
HETATM   17  C   UNL     1      -3.198   3.513 -32.489  1.00  0.00     0.046 C 
HETATM   18  C   UNL     1      -5.555   3.042 -33.206  1.00  0.00     0.063 C 
ENDBRANCH   1   7
BRANCH   3  19
HETATM   19  C   UNL     1     -10.838   1.332 -33.844  1.00  0.00     0.072 A 
HETATM   20  C   UNL     1     -11.400   2.377 -34.610  1.00  0.00     0.095 A 
HETATM   21  C   UNL     1     -12.770   2.345 -34.908  1.00  0.00     0.042 A 
HETATM   22  C   UNL     1     -13.564   1.282 -34.470  1.00  0.00     0.045 A 
HETATM   23  C   UNL     1     -12.985   0.240 -33.762  1.00  0.00     0.118 A 
HETATM   24  F   UNL     1     -13.742  -0.789 -33.361  1.00  0.00    -0.206 F 
HETATM   25  C   UNL     1     -11.629   0.246 -33.456  1.00  0.00     0.074 A 
BRANCH  20  26
HETATM   26  O   UNL     1     -10.535   3.317 -35.115  1.00  0.00    -0.354 OA
HETATM   27  C   UNL     1     -10.628   4.626 -34.561  1.00  0.00     0.210 C 
ENDBRANCH  20  26
ENDBRANCH   3  19
TORSDOF 3
ENDMDL
MODEL 6
REMARK VINA RESULT:      -7.3      3.488      4.746
REMARK  3 active torsions:
REMARK  status: ('A' for Active; 'I' for Inactive)
REMARK    1  A    between atoms: C_11  and  N_12 
REMARK       I    between atoms: N_12  and  C_13 
REMARK       I    between atoms: C_13  and  N_14 
REMARK    2  A    between atoms: N_14  and  C_15 
REMARK    3  A    between atoms: C_16  and  O_17 
ROOT
HETATM    1  N   UNL     1      -6.648   2.148 -32.732  1.00  0.00    -0.338 N 
HETATM    2  C   UNL     1      -6.470   1.058 -33.547  1.00  0.00     0.321 C 
HETATM    3  N   UNL     1      -6.245  -0.122 -32.889  1.00  0.00    -0.306 N 
HETATM    4  O   UNL     1      -6.564   1.234 -34.755  1.00  0.00    -0.247 OA
HETATM    5  H   UNL     1      -6.880   2.938 -33.320  1.00  0.00     0.164 HD
HETATM    6  H   UNL     1      -6.877  -0.256 -32.113  1.00  0.00     0.171 HD
ENDROOT
BRANCH   1   7
HETATM    7  C   UNL     1      -6.027   2.342 -31.432  1.00  0.00     0.091 C 
HETATM    8  C   UNL     1      -6.729   3.410 -30.591  1.00  0.00     0.063 C 
HETATM    9  C   UNL     1      -6.384   4.873 -30.912  1.00  0.00     0.121 C 
HETATM   10  N   UNL     1      -4.896   5.035 -31.123  1.00  0.00    -0.059 N 
HETATM   11  C   UNL     1      -7.151   5.448 -32.108  1.00  0.00     0.046 C 
HETATM   12  C   UNL     1      -6.738   5.747 -29.687  1.00  0.00     0.046 C 
HETATM   13  C   UNL     1      -4.110   4.019 -31.928  1.00  0.00     0.121 C 
HETATM   14  H   UNL     1      -4.460   5.074 -30.190  1.00  0.00     0.279 HD
HETATM   15  H   UNL     1      -4.716   5.971 -31.517  1.00  0.00     0.279 HD
HETATM   16  C   UNL     1      -4.258   4.293 -33.428  1.00  0.00     0.046 C 
HETATM   17  C   UNL     1      -2.627   4.250 -31.565  1.00  0.00     0.046 C 
HETATM   18  C   UNL     1      -4.517   2.601 -31.506  1.00  0.00     0.063 C 
ENDBRANCH   1   7
BRANCH   3  19
HETATM   19  C   UNL     1      -5.845  -1.303 -33.563  1.00  0.00     0.072 A 
HETATM   20  C   UNL     1      -4.493  -1.676 -33.719  1.00  0.00     0.095 A 
HETATM   21  C   UNL     1      -4.183  -2.842 -34.435  1.00  0.00     0.042 A 
HETATM   22  C   UNL     1      -5.202  -3.635 -34.968  1.00  0.00     0.045 A 
HETATM   23  C   UNL     1      -6.527  -3.281 -34.762  1.00  0.00     0.118 A 
HETATM   24  F   UNL     1      -7.503  -4.053 -35.256  1.00  0.00    -0.206 F 
HETATM   25  C   UNL     1      -6.860  -2.132 -34.054  1.00  0.00     0.074 A 
BRANCH  20  26
HETATM   26  O   UNL     1      -3.555  -0.921 -33.058  1.00  0.00    -0.354 OA
HETATM   27  C   UNL     1      -2.992  -1.496 -31.884  1.00  0.00     0.210 C 
ENDBRANCH  20  26
ENDBRANCH   3  19
TORSDOF 3
ENDMDL
MODEL 7
REMARK VINA RESULT:      -7.2      3.213      5.079
REMARK  3 active torsions:
REMARK  status: ('A' for Active; 'I' for Inactive)
REMARK    1  A    between atoms: C_11  and  N_12 
REMARK       I    between atoms: N_12  and  C_13 
REMARK       I    between atoms: C_13  and  N_14 
REMARK    2  A    between atoms: N_14  and  C_15 
REMARK    3  A    between atoms: C_16  and  O_17 
ROOT
HETATM    1  N   UNL     1      -4.733   1.509 -31.400  1.00  0.00    -0.338 N 
HETATM    2  C   UNL     1      -5.112   0.243 -31.773  1.00  0.00     0.321 C 
HETATM    3  N   UNL     1      -4.641  -0.164 -32.992  1.00  0.00    -0.306 N 
HETATM    4  O   UNL     1      -5.789  -0.399 -30.980  1.00  0.00    -0.247 OA
HETATM    5  H   UNL     1      -5.072   1.668 -30.460  1.00  0.00     0.164 HD
HETATM    6  H   UNL     1      -3.663   0.053 -33.118  1.00  0.00     0.171 HD
ENDROOT
BRANCH   1   7
HETATM    7  C   UNL     1      -4.492   2.620 -32.306  1.00  0.00     0.091 C 
HETATM    8  C   UNL     1      -4.051   3.894 -31.581  1.00  0.00     0.063 C 
HETATM    9  C   UNL     1      -5.162   4.735 -30.933  1.00  0.00     0.121 C 
HETATM   10  N   UNL     1      -6.351   4.850 -31.859  1.00  0.00    -0.059 N 
HETATM   11  C   UNL     1      -5.612   4.224 -29.559  1.00  0.00     0.046 C 
HETATM   12  C   UNL     1      -4.639   6.175 -30.729  1.00  0.00     0.046 C 
HETATM   13  C   UNL     1      -6.853   3.647 -32.634  1.00  0.00     0.121 C 
HETATM   14  H   UNL     1      -6.125   5.576 -32.554  1.00  0.00     0.279 HD
HETATM   15  H   UNL     1      -7.143   5.252 -31.334  1.00  0.00     0.279 HD
HETATM   16  C   UNL     1      -7.746   2.773 -31.747  1.00  0.00     0.046 C 
HETATM   17  C   UNL     1      -7.742   4.214 -33.762  1.00  0.00     0.046 C 
HETATM   18  C   UNL     1      -5.664   2.903 -33.255  1.00  0.00     0.063 C 
ENDBRANCH   1   7
BRANCH   3  19
HETATM   19  C   UNL     1      -5.090  -1.351 -33.622  1.00  0.00     0.072 A 
HETATM   20  C   UNL     1      -6.388  -1.490 -34.160  1.00  0.00     0.095 A 
HETATM   21  C   UNL     1      -6.763  -2.714 -34.731  1.00  0.00     0.042 A 
HETATM   22  C   UNL     1      -5.857  -3.776 -34.787  1.00  0.00     0.045 A 
HETATM   23  C   UNL     1      -4.570  -3.605 -34.299  1.00  0.00     0.118 A 
HETATM   24  F   UNL     1      -3.695  -4.617 -34.372  1.00  0.00    -0.206 F 
HETATM   25  C   UNL     1      -4.172  -2.402 -33.731  1.00  0.00     0.074 A 
BRANCH  20  26
HETATM   26  O   UNL     1      -7.177  -0.366 -34.188  1.00  0.00    -0.354 OA
HETATM   27  C   UNL     1      -7.281   0.304 -35.439  1.00  0.00     0.210 C 
ENDBRANCH  20  26
ENDBRANCH   3  19
TORSDOF 3
ENDMDL
MODEL 8
REMARK VINA RESULT:      -7.1      3.529      7.499
REMARK  3 active torsions:
REMARK  status: ('A' for Active; 'I' for Inactive)
REMARK    1  A    between atoms: C_11  and  N_12 
REMARK       I    between atoms: N_12  and  C_13 
REMARK       I    between atoms: C_13  and  N_14 
REMARK    2  A    between atoms: N_14  and  C_15 
REMARK    3  A    between atoms: C_16  and  O_17 
ROOT
HETATM    1  N   UNL     1      -9.409   2.334 -33.571  1.00  0.00    -0.338 N 
HETATM    2  C   UNL     1     -10.750   2.473 -33.825  1.00  0.00     0.321 C 
HETATM    3  N   UNL     1     -11.562   2.317 -32.734  1.00  0.00    -0.306 N 
HETATM    4  O   UNL     1     -11.082   2.754 -34.970  1.00  0.00    -0.247 OA
HETATM    5  H   UNL     1      -8.910   2.545 -34.426  1.00  0.00     0.164 HD
HETATM    6  H   UNL     1     -11.218   2.813 -31.924  1.00  0.00     0.171 HD
ENDROOT
BRANCH   1   7
HETATM    7  C   UNL     1      -8.825   1.469 -32.559  1.00  0.00     0.091 C 
HETATM    8  C   UNL     1      -7.548   2.049 -31.945  1.00  0.00     0.063 C 
HETATM    9  C   UNL     1      -6.256   1.876 -32.759  1.00  0.00     0.121 C 
HETATM   10  N   UNL     1      -6.170   0.479 -33.331  1.00  0.00    -0.059 N 
HETATM   11  C   UNL     1      -6.076   2.913 -33.874  1.00  0.00     0.046 C 
HETATM   12  C   UNL     1      -5.047   2.022 -31.808  1.00  0.00     0.046 C 
HETATM   13  C   UNL     1      -7.386  -0.186 -33.946  1.00  0.00     0.121 C 
HETATM   14  H   UNL     1      -5.845  -0.139 -32.573  1.00  0.00     0.279 HD
HETATM   15  H   UNL     1      -5.400   0.448 -34.018  1.00  0.00     0.279 HD
HETATM   16  C   UNL     1      -7.586   0.291 -35.387  1.00  0.00     0.046 C 
HETATM   17  C   UNL     1      -7.057  -1.693 -34.004  1.00  0.00     0.046 C 
HETATM   18  C   UNL     1      -8.604   0.029 -33.038  1.00  0.00     0.063 C 
ENDBRANCH   1   7
BRANCH   3  19
HETATM   19  C   UNL     1     -12.973   2.229 -32.843  1.00  0.00     0.072 A 
HETATM   20  C   UNL     1     -13.848   3.141 -32.215  1.00  0.00     0.095 A 
HETATM   21  C   UNL     1     -15.232   2.958 -32.343  1.00  0.00     0.042 A 
HETATM   22  C   UNL     1     -15.739   1.898 -33.098  1.00  0.00     0.045 A 
HETATM   23  C   UNL     1     -14.864   1.041 -33.749  1.00  0.00     0.118 A 
HETATM   24  F   UNL     1     -15.351   0.037 -34.490  1.00  0.00    -0.206 F 
HETATM   25  C   UNL     1     -13.489   1.202 -33.641  1.00  0.00     0.074 A 
BRANCH  20  26
HETATM   26  O   UNL     1     -13.280   4.231 -31.601  1.00  0.00    -0.354 OA
HETATM   27  C   UNL     1     -13.233   4.203 -30.178  1.00  0.00     0.210 C 
ENDBRANCH  20  26
ENDBRANCH   3  19
TORSDOF 3
ENDMDL
MODEL 9
REMARK VINA RESULT:      -7.1     14.148     16.565
REMARK  3 active torsions:
REMARK  status: ('A' for Active; 'I' for Inactive)
REMARK    1  A    between atoms: C_11  and  N_12 
REMARK       I    between atoms: N_12  and  C_13 
REMARK       I    between atoms: C_13  and  N_14 
REMARK    2  A    between atoms: N_14  and  C_15 
REMARK    3  A    between atoms: C_16  and  O_17 
ROOT
HETATM    1  N   UNL     1      -4.674 -12.390 -40.043  1.00  0.00    -0.338 N 
HETATM    2  C   UNL     1      -5.956 -12.623 -40.474  1.00  0.00     0.321 C 
HETATM    3  N   UNL     1      -6.923 -12.456 -39.519  1.00  0.00    -0.306 N 
HETATM    4  O   UNL     1      -6.111 -12.916 -41.653  1.00  0.00    -0.247 OA
HETATM    5  H   UNL     1      -4.060 -12.468 -40.844  1.00  0.00     0.164 HD
HETATM    6  H   UNL     1      -6.791 -11.611 -38.982  1.00  0.00     0.171 HD
ENDROOT
BRANCH   1   7
HETATM    7  C   UNL     1      -4.178 -12.626 -38.697  1.00  0.00     0.091 C 
HETATM    8  C   UNL     1      -2.653 -12.533 -38.600  1.00  0.00     0.063 C 
HETATM    9  C   UNL     1      -1.860 -13.771 -39.049  1.00  0.00     0.121 C 
HETATM   10  N   UNL     1      -2.506 -15.034 -38.526  1.00  0.00    -0.059 N 
HETATM   11  C   UNL     1      -1.661 -13.870 -40.565  1.00  0.00     0.046 C 
HETATM   12  C   UNL     1      -0.453 -13.717 -38.412  1.00  0.00     0.046 C 
HETATM   13  C   UNL     1      -4.011 -15.212 -38.565  1.00  0.00     0.121 C 
HETATM   14  H   UNL     1      -2.221 -15.135 -37.541  1.00  0.00     0.279 HD
HETATM   15  H   UNL     1      -2.071 -15.846 -38.992  1.00  0.00     0.279 HD
HETATM   16  C   UNL     1      -4.462 -15.668 -39.956  1.00  0.00     0.046 C 
HETATM   17  C   UNL     1      -4.325 -16.361 -37.583  1.00  0.00     0.046 C 
HETATM   18  C   UNL     1      -4.693 -13.929 -38.073  1.00  0.00     0.063 C 
ENDBRANCH   1   7
BRANCH   3  19
HETATM   19  C   UNL     1      -8.271 -12.842 -39.728  1.00  0.00     0.072 A 
HETATM   20  C   UNL     1      -8.705 -14.183 -39.642  1.00  0.00     0.095 A 
HETATM   21  C   UNL     1     -10.050 -14.483 -39.902  1.00  0.00     0.042 A 
HETATM   22  C   UNL     1     -10.953 -13.466 -40.221  1.00  0.00     0.045 A 
HETATM   23  C   UNL     1     -10.519 -12.149 -40.251  1.00  0.00     0.118 A 
HETATM   24  F   UNL     1     -11.390 -11.172 -40.537  1.00  0.00    -0.206 F 
HETATM   25  C   UNL     1      -9.193 -11.824 -39.995  1.00  0.00     0.074 A 
BRANCH  20  26
HETATM   26  O   UNL     1      -7.794 -15.109 -39.197  1.00  0.00    -0.354 OA
HETATM   27  C   UNL     1      -8.064 -15.708 -37.934  1.00  0.00     0.210 C 
ENDBRANCH  20  26
ENDBRANCH   3  19
TORSDOF 3
ENDMDL
MODEL 10
REMARK VINA RESULT:      -7.1      4.376      6.069
REMARK  3 active torsions:
REMARK  status: ('A' for Active; 'I' for Inactive)
REMARK    1  A    between atoms: C_11  and  N_12 
REMARK       I    between atoms: N_12  and  C_13 
REMARK       I    between atoms: C_13  and  N_14 
REMARK    2  A    between atoms: N_14  and  C_15 
REMARK    3  A    between atoms: C_16  and  O_17 
ROOT
HETATM    1  N   UNL     1      -5.610   3.365 -32.380  1.00  0.00    -0.338 N 
HETATM    2  C   UNL     1      -5.932   2.313 -33.201  1.00  0.00     0.321 C 
HETATM    3  N   UNL     1      -6.072   1.109 -32.565  1.00  0.00    -0.306 N 
HETATM    4  O   UNL     1      -6.094   2.554 -34.391  1.00  0.00    -0.247 OA
HETATM    5  H   UNL     1      -5.608   4.206 -32.943  1.00  0.00     0.164 HD
HETATM    6  H   UNL     1      -6.617   1.183 -31.717  1.00  0.00     0.171 HD
ENDROOT
BRANCH   1   7
HETATM    7  C   UNL     1      -4.815   3.278 -31.166  1.00  0.00     0.091 C 
HETATM    8  C   UNL     1      -5.275   4.257 -30.083  1.00  0.00     0.063 C 
HETATM    9  C   UNL     1      -4.797   5.711 -30.225  1.00  0.00     0.121 C 
HETATM   10  N   UNL     1      -3.337   5.755 -30.616  1.00  0.00    -0.059 N 
HETATM   11  C   UNL     1      -5.629   6.550 -31.201  1.00  0.00     0.046 C 
HETATM   12  C   UNL     1      -4.889   6.401 -28.845  1.00  0.00     0.046 C 
HETATM   13  C   UNL     1      -2.784   4.813 -31.668  1.00  0.00     0.121 C 
HETATM   14  H   UNL     1      -2.788   5.596 -29.758  1.00  0.00     0.279 HD
HETATM   15  H   UNL     1      -3.095   6.721 -30.886  1.00  0.00     0.279 HD
HETATM   16  C   UNL     1      -3.080   5.345 -33.073  1.00  0.00     0.046 C 
HETATM   17  C   UNL     1      -1.251   4.831 -31.485  1.00  0.00     0.046 C 
HETATM   18  C   UNL     1      -3.306   3.393 -31.411  1.00  0.00     0.063 C 
ENDBRANCH   1   7
BRANCH   3  19
HETATM   19  C   UNL     1      -6.205  -0.112 -33.271  1.00  0.00     0.072 A 
HETATM   20  C   UNL     1      -7.440  -0.576 -33.775  1.00  0.00     0.095 A 
HETATM   21  C   UNL     1      -7.490  -1.815 -34.429  1.00  0.00     0.042 A 
HETATM   22  C   UNL     1      -6.328  -2.572 -34.598  1.00  0.00     0.045 A 
HETATM   23  C   UNL     1      -5.116  -2.079 -34.142  1.00  0.00     0.118 A 
HETATM   24  F   UNL     1      -3.999  -2.796 -34.322  1.00  0.00    -0.206 F 
HETATM   25  C   UNL     1      -5.039  -0.852 -33.493  1.00  0.00     0.074 A 
BRANCH  20  26
HETATM   26  O   UNL     1      -8.512   0.280 -33.688  1.00  0.00    -0.354 OA
HETATM   27  C   UNL     1      -9.503  -0.043 -32.718  1.00  0.00     0.210 C 
ENDBRANCH  20  26
ENDBRANCH   3  19
TORSDOF 3
ENDMDL
