MODEL 1
REMARK VINA RESULT:      -7.1      0.000      0.000
REMARK  5 active torsions:
REMARK  status: ('A' for Active; 'I' for Inactive)
REMARK    1  A    between atoms: C_2  and  O_3 
REMARK    2  A    between atoms: O_3  and  C_4 
REMARK    3  A    between atoms: C_9  and  C_10 
REMARK    4  A    between atoms: C_10  and  N_11 
REMARK       I    between atoms: N_11  and  C_12 
REMARK       I    between atoms: C_12  and  N_13 
REMARK    5  A    between atoms: N_13  and  C_14 
ROOT
HETATM    1  N   UNL     1      -5.439   0.874 -31.858  1.00  0.00    -0.338 N 
HETATM    2  C   UNL     1      -6.079   0.790 -30.665  1.00  0.00     0.320 C 
HETATM    3  N   UNL     1      -7.382   1.174 -30.613  1.00  0.00    -0.309 N 
HETATM    4  O   UNL     1      -5.523   0.426 -29.631  1.00  0.00    -0.247 OA
HETATM    5  H   UNL     1      -5.761   1.598 -32.485  1.00  0.00     0.164 HD
HETATM    6  H   UNL     1      -7.691   1.247 -29.650  1.00  0.00     0.170 HD
ENDROOT
BRANCH   1   7
HETATM    7  C   UNL     1      -4.079   0.405 -32.042  1.00  0.00     0.167 C 
BRANCH   7   8
HETATM    8  C   UNL     1      -3.981  -1.011 -32.546  1.00  0.00     0.013 A 
HETATM    9  C   UNL     1      -4.693  -1.416 -33.677  1.00  0.00     0.172 A 
HETATM   10  N   UNL     1      -4.686  -2.679 -34.167  1.00  0.00    -0.237 NA
HETATM   11  C   UNL     1      -3.960  -3.592 -33.490  1.00  0.00     0.119 A 
HETATM   12  C   UNL     1      -3.244  -3.308 -32.343  1.00  0.00     0.020 A 
HETATM   13  C   UNL     1      -3.263  -2.000 -31.863  1.00  0.00     0.014 A 
BRANCH   9  14
HETATM   14  O   UNL     1      -5.452  -0.459 -34.322  1.00  0.00    -0.334 OA
BRANCH  14  15
HETATM   15  C   UNL     1      -6.723  -0.935 -34.767  1.00  0.00     0.173 C 
HETATM   16  C   UNL     1      -7.456   0.231 -35.406  1.00  0.00     0.034 C 
ENDBRANCH  14  15
ENDBRANCH   9  14
ENDBRANCH   7   8
ENDBRANCH   1   7
BRANCH   3  17
HETATM   17  C   UNL     1      -8.376   1.342 -31.596  1.00  0.00     0.037 A 
HETATM   18  C   UNL     1      -8.586   2.513 -32.325  1.00  0.00     0.049 A 
HETATM   19  C   UNL     1      -9.587   2.575 -33.306  1.00  0.00     0.019 A 
HETATM   20 BR   UNL     1      -9.817   4.231 -34.211  1.00  0.00    -0.051 Br
HETATM   21  C   UNL     1     -10.375   1.453 -33.604  1.00  0.00    -0.044 A 
HETATM   22  C   UNL     1     -11.459   1.474 -34.644  1.00  0.00     0.049 C 
HETATM   23  C   UNL     1     -10.151   0.277 -32.878  1.00  0.00     0.010 A 
HETATM   24  C   UNL     1      -9.160   0.222 -31.893  1.00  0.00     0.030 A 
ENDBRANCH   3  17
TORSDOF 5
ENDMDL
MODEL 2
REMARK VINA RESULT:      -7.0      3.992      6.177
REMARK  5 active torsions:
REMARK  status: ('A' for Active; 'I' for Inactive)
REMARK    1  A    between atoms: C_2  and  O_3 
REMARK    2  A    between atoms: O_3  and  C_4 
REMARK    3  A    between atoms: C_9  and  C_10 
REMARK    4  A    between atoms: C_10  and  N_11 
REMARK       I    between atoms: N_11  and  C_12 
REMARK       I    between atoms: C_12  and  N_13 
REMARK    5  A    between atoms: N_13  and  C_14 
ROOT
HETATM    1  N   UNL     1      -6.030   3.191 -34.162  1.00  0.00    -0.338 N 
HETATM    2  C   UNL     1      -7.110   2.805 -33.438  1.00  0.00     0.320 C 
HETATM    3  N   UNL     1      -7.390   1.475 -33.373  1.00  0.00    -0.309 N 
HETATM    4  O   UNL     1      -7.862   3.601 -32.880  1.00  0.00    -0.247 OA
HETATM    5  H   UNL     1      -5.786   2.601 -34.945  1.00  0.00     0.164 HD
HETATM    6  H   UNL     1      -8.310   1.327 -32.972  1.00  0.00     0.170 HD
ENDROOT
BRANCH   1   7
HETATM    7  C   UNL     1      -5.591   4.572 -34.221  1.00  0.00     0.167 C 
BRANCH   7   8
HETATM    8  C   UNL     1      -4.124   4.762 -33.940  1.00  0.00     0.013 A 
HETATM    9  C   UNL     1      -3.618   4.594 -32.649  1.00  0.00     0.172 A 
HETATM   10  N   UNL     1      -2.321   4.784 -32.311  1.00  0.00    -0.237 NA
HETATM   11  C   UNL     1      -1.487   5.188 -33.292  1.00  0.00     0.119 A 
HETATM   12  C   UNL     1      -1.888   5.416 -34.595  1.00  0.00     0.020 A 
HETATM   13  C   UNL     1      -3.226   5.206 -34.918  1.00  0.00     0.014 A 
BRANCH   9  14
HETATM   14  O   UNL     1      -4.511   4.215 -31.665  1.00  0.00    -0.334 OA
BRANCH  14  15
HETATM   15  C   UNL     1      -4.187   2.971 -31.042  1.00  0.00     0.173 C 
HETATM   16  C   UNL     1      -5.367   2.565 -30.178  1.00  0.00     0.034 C 
ENDBRANCH  14  15
ENDBRANCH   9  14
ENDBRANCH   7   8
ENDBRANCH   1   7
BRANCH   3  17
HETATM   17  C   UNL     1      -6.626   0.318 -33.612  1.00  0.00     0.037 A 
HETATM   18  C   UNL     1      -5.541  -0.096 -32.838  1.00  0.00     0.049 A 
HETATM   19  C   UNL     1      -4.858  -1.283 -33.142  1.00  0.00     0.019 A 
HETATM   20 BR   UNL     1      -3.367  -1.732 -32.050  1.00  0.00    -0.051 Br
HETATM   21  C   UNL     1      -5.268  -2.100 -34.206  1.00  0.00    -0.044 A 
HETATM   22  C   UNL     1      -4.566  -3.377 -34.569  1.00  0.00     0.049 C 
HETATM   23  C   UNL     1      -6.366  -1.686 -34.971  1.00  0.00     0.010 A 
HETATM   24  C   UNL     1      -7.038  -0.497 -34.673  1.00  0.00     0.030 A 
ENDBRANCH   3  17
TORSDOF 5
ENDMDL
MODEL 3
REMARK VINA RESULT:      -6.8      1.625      2.692
REMARK  5 active torsions:
REMARK  status: ('A' for Active; 'I' for Inactive)
REMARK    1  A    between atoms: C_2  and  O_3 
REMARK    2  A    between atoms: O_3  and  C_4 
REMARK    3  A    between atoms: C_9  and  C_10 
REMARK    4  A    between atoms: C_10  and  N_11 
REMARK       I    between atoms: N_11  and  C_12 
REMARK       I    between atoms: C_12  and  N_13 
REMARK    5  A    between atoms: N_13  and  C_14 
ROOT
HETATM    1  N   UNL     1      -6.793   0.258 -33.399  1.00  0.00    -0.338 N 
HETATM    2  C   UNL     1      -7.100   0.148 -32.082  1.00  0.00     0.320 C 
HETATM    3  N   UNL     1      -8.295   0.645 -31.663  1.00  0.00    -0.309 N 
HETATM    4  O   UNL     1      -6.333  -0.338 -31.254  1.00  0.00    -0.247 OA
HETATM    5  H   UNL     1      -7.189   1.052 -33.883  1.00  0.00     0.164 HD
HETATM    6  H   UNL     1      -8.328   0.677 -30.650  1.00  0.00     0.170 HD
ENDROOT
BRANCH   1   7
HETATM    7  C   UNL     1      -5.589  -0.319 -33.965  1.00  0.00     0.167 C 
BRANCH   7   8
HETATM    8  C   UNL     1      -5.659  -1.809 -34.168  1.00  0.00     0.013 A 
HETATM    9  C   UNL     1      -4.546  -2.616 -33.924  1.00  0.00     0.172 A 
HETATM   10  N   UNL     1      -4.521  -3.956 -34.120  1.00  0.00    -0.237 NA
HETATM   11  C   UNL     1      -5.643  -4.523 -34.608  1.00  0.00     0.119 A 
HETATM   12  C   UNL     1      -6.790  -3.815 -34.914  1.00  0.00     0.020 A 
HETATM   13  C   UNL     1      -6.793  -2.440 -34.697  1.00  0.00     0.014 A 
BRANCH   9  14
HETATM   14  O   UNL     1      -3.405  -1.992 -33.459  1.00  0.00    -0.334 OA
BRANCH  14  15
HETATM   15  C   UNL     1      -3.249  -2.060 -32.041  1.00  0.00     0.173 C 
HETATM   16  C   UNL     1      -2.779  -0.698 -31.561  1.00  0.00     0.034 C 
ENDBRANCH  14  15
ENDBRANCH   9  14
ENDBRANCH   7   8
ENDBRANCH   1   7
BRANCH   3  17
HETATM   17  C   UNL     1      -9.489   0.974 -32.333  1.00  0.00     0.037 A 
HETATM   18  C   UNL     1      -9.888   2.269 -32.660  1.00  0.00     0.049 A 
HETATM   19  C   UNL     1     -11.086   2.494 -33.355  1.00  0.00     0.019 A 
HETATM   20 BR   UNL     1     -11.558   4.300 -33.714  1.00  0.00    -0.051 Br
HETATM   21  C   UNL     1     -11.892   1.423 -33.769  1.00  0.00    -0.044 A 
HETATM   22  C   UNL     1     -13.183   1.615 -34.513  1.00  0.00     0.049 C 
HETATM   23  C   UNL     1     -11.479   0.123 -33.448  1.00  0.00     0.010 A 
HETATM   24  C   UNL     1     -10.290  -0.097 -32.746  1.00  0.00     0.030 A 
ENDBRANCH   3  17
TORSDOF 5
ENDMDL
MODEL 4
REMARK VINA RESULT:      -6.8      3.036      6.031
REMARK  5 active torsions:
REMARK  status: ('A' for Active; 'I' for Inactive)
REMARK    1  A    between atoms: C_2  and  O_3 
REMARK    2  A    between atoms: O_3  and  C_4 
REMARK    3  A    between atoms: C_9  and  C_10 
REMARK    4  A    between atoms: C_10  and  N_11 
REMARK       I    between atoms: N_11  and  C_12 
REMARK       I    between atoms: C_12  and  N_13 
REMARK    5  A    between atoms: N_13  and  C_14 
ROOT
HETATM    1  N   UNL     1      -5.438   0.560 -30.921  1.00  0.00    -0.338 N 
HETATM    2  C   UNL     1      -4.609   1.137 -31.826  1.00  0.00     0.320 C 
HETATM    3  N   UNL     1      -4.198   0.385 -32.882  1.00  0.00    -0.309 N 
HETATM    4  O   UNL     1      -4.185   2.285 -31.710  1.00  0.00    -0.247 OA
HETATM    5  H   UNL     1      -5.340  -0.438 -30.801  1.00  0.00     0.164 HD
HETATM    6  H   UNL     1      -3.445   0.852 -33.376  1.00  0.00     0.170 HD
ENDROOT
BRANCH   1   7
HETATM    7  C   UNL     1      -6.008   1.300 -29.811  1.00  0.00     0.167 C 
BRANCH   7   8
HETATM    8  C   UNL     1      -6.935   2.412 -30.225  1.00  0.00     0.013 A 
HETATM    9  C   UNL     1      -7.989   2.170 -31.109  1.00  0.00     0.172 A 
HETATM   10  N   UNL     1      -8.839   3.124 -31.557  1.00  0.00    -0.237 NA
HETATM   11  C   UNL     1      -8.619   4.386 -31.132  1.00  0.00     0.119 A 
HETATM   12  C   UNL     1      -7.588   4.742 -30.284  1.00  0.00     0.020 A 
HETATM   13  C   UNL     1      -6.732   3.741 -29.833  1.00  0.00     0.014 A 
BRANCH   9  14
HETATM   14  O   UNL     1      -8.158   0.871 -31.548  1.00  0.00    -0.334 OA
BRANCH  14  15
HETATM   15  C   UNL     1      -8.778   0.773 -32.831  1.00  0.00     0.173 C 
HETATM   16  C   UNL     1      -9.974  -0.153 -32.698  1.00  0.00     0.034 C 
ENDBRANCH  14  15
ENDBRANCH   9  14
ENDBRANCH   7   8
ENDBRANCH   1   7
BRANCH   3  17
HETATM   17  C   UNL     1      -4.689  -0.794 -33.474  1.00  0.00     0.037 A 
HETATM   18  C   UNL     1      -4.085  -2.047 -33.375  1.00  0.00     0.049 A 
HETATM   19  C   UNL     1      -4.668  -3.171 -33.979  1.00  0.00     0.019 A 
HETATM   20 BR   UNL     1      -3.741  -4.823 -33.820  1.00  0.00    -0.051 Br
HETATM   21  C   UNL     1      -5.888  -3.070 -34.664  1.00  0.00    -0.044 A 
HETATM   22  C   UNL     1      -6.548  -4.246 -35.328  1.00  0.00     0.049 C 
HETATM   23  C   UNL     1      -6.496  -1.812 -34.749  1.00  0.00     0.010 A 
HETATM   24  C   UNL     1      -5.907  -0.691 -34.155  1.00  0.00     0.030 A 
ENDBRANCH   3  17
TORSDOF 5
ENDMDL
MODEL 5
REMARK VINA RESULT:      -6.7      4.616      6.787
REMARK  5 active torsions:
REMARK  status: ('A' for Active; 'I' for Inactive)
REMARK    1  A    between atoms: C_2  and  O_3 
REMARK    2  A    between atoms: O_3  and  C_4 
REMARK    3  A    between atoms: C_9  and  C_10 
REMARK    4  A    between atoms: C_10  and  N_11 
REMARK       I    between atoms: N_11  and  C_12 
REMARK       I    between atoms: C_12  and  N_13 
REMARK    5  A    between atoms: N_13  and  C_14 
ROOT
HETATM    1  N   UNL     1      -4.129   2.229 -32.363  1.00  0.00    -0.338 N 
HETATM    2  C   UNL     1      -5.445   2.304 -32.045  1.00  0.00     0.320 C 
HETATM    3  N   UNL     1      -6.291   1.404 -32.616  1.00  0.00    -0.309 N 
HETATM    4  O   UNL     1      -5.908   3.170 -31.304  1.00  0.00    -0.247 OA
HETATM    5  H   UNL     1      -3.914   1.871 -33.282  1.00  0.00     0.164 HD
HETATM    6  H   UNL     1      -7.255   1.675 -32.456  1.00  0.00     0.170 HD
ENDROOT
BRANCH   1   7
HETATM    7  C   UNL     1      -3.132   3.079 -31.741  1.00  0.00     0.167 C 
BRANCH   7   8
HETATM    8  C   UNL     1      -2.605   4.165 -32.640  1.00  0.00     0.013 A 
HETATM    9  C   UNL     1      -1.456   4.882 -32.295  1.00  0.00     0.172 A 
HETATM   10  N   UNL     1      -0.943   5.895 -33.032  1.00  0.00    -0.237 NA
HETATM   11  C   UNL     1      -1.615   6.237 -34.151  1.00  0.00     0.119 A 
HETATM   12  C   UNL     1      -2.778   5.618 -34.568  1.00  0.00     0.020 A 
HETATM   13  C   UNL     1      -3.281   4.574 -33.797  1.00  0.00     0.014 A 
BRANCH   9  14
HETATM   14  O   UNL     1      -0.818   4.524 -31.123  1.00  0.00    -0.334 OA
BRANCH  14  15
HETATM   15  C   UNL     1      -0.458   5.635 -30.301  1.00  0.00     0.173 C 
HETATM   16  C   UNL     1       0.738   5.221 -29.462  1.00  0.00     0.034 C 
ENDBRANCH  14  15
ENDBRANCH   9  14
ENDBRANCH   7   8
ENDBRANCH   1   7
BRANCH   3  17
HETATM   17  C   UNL     1      -6.092   0.155 -33.233  1.00  0.00     0.037 A 
HETATM   18  C   UNL     1      -5.123  -0.776 -32.856  1.00  0.00     0.049 A 
HETATM   19  C   UNL     1      -5.021  -2.009 -33.517  1.00  0.00     0.019 A 
HETATM   20 BR   UNL     1      -3.640  -3.187 -32.953  1.00  0.00    -0.051 Br
HETATM   21  C   UNL     1      -5.911  -2.352 -34.546  1.00  0.00    -0.044 A 
HETATM   22  C   UNL     1      -5.838  -3.659 -35.283  1.00  0.00     0.049 C 
HETATM   23  C   UNL     1      -6.889  -1.418 -34.911  1.00  0.00     0.010 A 
HETATM   24  C   UNL     1      -6.981  -0.186 -34.258  1.00  0.00     0.030 A 
ENDBRANCH   3  17
TORSDOF 5
ENDMDL
MODEL 6
REMARK VINA RESULT:      -6.5      2.916      6.782
REMARK  5 active torsions:
REMARK  status: ('A' for Active; 'I' for Inactive)
REMARK    1  A    between atoms: C_2  and  O_3 
REMARK    2  A    between atoms: O_3  and  C_4 
REMARK    3  A    between atoms: C_9  and  C_10 
REMARK    4  A    between atoms: C_10  and  N_11 
REMARK       I    between atoms: N_11  and  C_12 
REMARK       I    between atoms: C_12  and  N_13 
REMARK    5  A    between atoms: N_13  and  C_14 
ROOT
HETATM    1  N   UNL     1      -8.050   1.025 -32.417  1.00  0.00    -0.338 N 
HETATM    2  C   UNL     1      -7.956   1.382 -33.722  1.00  0.00     0.320 C 
HETATM    3  N   UNL     1      -7.015   0.763 -34.485  1.00  0.00    -0.309 N 
HETATM    4  O   UNL     1      -8.648   2.262 -34.228  1.00  0.00    -0.247 OA
HETATM    5  H   UNL     1      -7.195   0.711 -31.979  1.00  0.00     0.164 HD
HETATM    6  H   UNL     1      -6.912   1.239 -35.374  1.00  0.00     0.170 HD
ENDROOT
BRANCH   1   7
HETATM    7  C   UNL     1      -9.077   1.556 -31.541  1.00  0.00     0.167 C 
BRANCH   7   8
HETATM    8  C   UNL     1      -8.721   2.873 -30.905  1.00  0.00     0.013 A 
HETATM    9  C   UNL     1      -7.615   2.981 -30.059  1.00  0.00     0.172 A 
HETATM   10  N   UNL     1      -7.254   4.119 -29.421  1.00  0.00    -0.237 NA
HETATM   11  C   UNL     1      -8.042   5.199 -29.606  1.00  0.00     0.119 A 
HETATM   12  C   UNL     1      -9.176   5.195 -30.395  1.00  0.00     0.020 A 
HETATM   13  C   UNL     1      -9.522   4.014 -31.046  1.00  0.00     0.014 A 
BRANCH   9  14
HETATM   14  O   UNL     1      -6.854   1.843 -29.868  1.00  0.00    -0.334 OA
BRANCH  14  15
HETATM   15  C   UNL     1      -5.472   2.015 -30.185  1.00  0.00     0.173 C 
HETATM   16  C   UNL     1      -4.878   0.639 -30.425  1.00  0.00     0.034 C 
ENDBRANCH  14  15
ENDBRANCH   9  14
ENDBRANCH   7   8
ENDBRANCH   1   7
BRANCH   3  17
HETATM   17  C   UNL     1      -6.294  -0.438 -34.338  1.00  0.00     0.037 A 
HETATM   18  C   UNL     1      -6.719  -1.684 -34.798  1.00  0.00     0.049 A 
HETATM   19  C   UNL     1      -5.915  -2.821 -34.628  1.00  0.00     0.019 A 
HETATM   20 BR   UNL     1      -6.607  -4.478 -35.254  1.00  0.00    -0.051 Br
HETATM   21  C   UNL     1      -4.652  -2.728 -34.024  1.00  0.00    -0.044 A 
HETATM   22  C   UNL     1      -3.759  -3.919 -33.819  1.00  0.00     0.049 C 
HETATM   23  C   UNL     1      -4.226  -1.472 -33.575  1.00  0.00     0.010 A 
HETATM   24  C   UNL     1      -5.034  -0.342 -33.737  1.00  0.00     0.030 A 
ENDBRANCH   3  17
TORSDOF 5
ENDMDL
MODEL 7
REMARK VINA RESULT:      -6.4      3.730      5.282
REMARK  5 active torsions:
REMARK  status: ('A' for Active; 'I' for Inactive)
REMARK    1  A    between atoms: C_2  and  O_3 
REMARK    2  A    between atoms: O_3  and  C_4 
REMARK    3  A    between atoms: C_9  and  C_10 
REMARK    4  A    between atoms: C_10  and  N_11 
REMARK       I    between atoms: N_11  and  C_12 
REMARK       I    between atoms: C_12  and  N_13 
REMARK    5  A    between atoms: N_13  and  C_14 
ROOT
HETATM    1  N   UNL     1      -7.032   1.967 -32.513  1.00  0.00    -0.338 N 
HETATM    2  C   UNL     1      -7.609   2.555 -33.591  1.00  0.00     0.320 C 
HETATM    3  N   UNL     1      -7.218   3.818 -33.911  1.00  0.00    -0.309 N 
HETATM    4  O   UNL     1      -8.491   2.017 -34.256  1.00  0.00    -0.247 OA
HETATM    5  H   UNL     1      -6.732   2.589 -31.775  1.00  0.00     0.164 HD
HETATM    6  H   UNL     1      -7.843   4.216 -34.603  1.00  0.00     0.170 HD
ENDROOT
BRANCH   1   7
HETATM    7  C   UNL     1      -7.309   0.593 -32.140  1.00  0.00     0.167 C 
BRANCH   7   8
HETATM    8  C   UNL     1      -6.394  -0.414 -32.784  1.00  0.00     0.013 A 
HETATM    9  C   UNL     1      -5.092  -0.598 -32.313  1.00  0.00     0.172 A 
HETATM   10  N   UNL     1      -4.200  -1.456 -32.862  1.00  0.00    -0.237 NA
HETATM   11  C   UNL     1      -4.604  -2.145 -33.949  1.00  0.00     0.119 A 
HETATM   12  C   UNL     1      -5.857  -2.016 -34.517  1.00  0.00     0.020 A 
HETATM   13  C   UNL     1      -6.759  -1.133 -33.929  1.00  0.00     0.014 A 
BRANCH   9  14
HETATM   14  O   UNL     1      -4.705   0.152 -31.219  1.00  0.00    -0.334 OA
BRANCH  14  15
HETATM   15  C   UNL     1      -3.378   0.673 -31.319  1.00  0.00     0.173 C 
HETATM   16  C   UNL     1      -3.483   2.129 -31.736  1.00  0.00     0.034 C 
ENDBRANCH  14  15
ENDBRANCH   9  14
ENDBRANCH   7   8
ENDBRANCH   1   7
BRANCH   3  17
HETATM   17  C   UNL     1      -6.084   4.587 -33.587  1.00  0.00     0.037 A 
HETATM   18  C   UNL     1      -4.856   4.513 -34.244  1.00  0.00     0.049 A 
HETATM   19  C   UNL     1      -3.791   5.343 -33.864  1.00  0.00     0.019 A 
HETATM   20 BR   UNL     1      -2.148   5.132 -34.797  1.00  0.00    -0.051 Br
HETATM   21  C   UNL     1      -3.944   6.289 -32.840  1.00  0.00    -0.044 A 
HETATM   22  C   UNL     1      -2.830   7.196 -32.397  1.00  0.00     0.049 C 
HETATM   23  C   UNL     1      -5.183   6.367 -32.192  1.00  0.00     0.010 A 
HETATM   24  C   UNL     1      -6.239   5.531 -32.566  1.00  0.00     0.030 A 
ENDBRANCH   3  17
TORSDOF 5
ENDMDL
MODEL 8
REMARK VINA RESULT:      -6.4      3.841      5.943
REMARK  5 active torsions:
REMARK  status: ('A' for Active; 'I' for Inactive)
REMARK    1  A    between atoms: C_2  and  O_3 
REMARK    2  A    between atoms: O_3  and  C_4 
REMARK    3  A    between atoms: C_9  and  C_10 
REMARK    4  A    between atoms: C_10  and  N_11 
REMARK       I    between atoms: N_11  and  C_12 
REMARK       I    between atoms: C_12  and  N_13 
REMARK    5  A    between atoms: N_13  and  C_14 
ROOT
HETATM    1  N   UNL     1      -5.879   2.533 -31.890  1.00  0.00    -0.338 N 
HETATM    2  C   UNL     1      -5.440   2.815 -30.638  1.00  0.00     0.320 C 
HETATM    3  N   UNL     1      -4.264   3.487 -30.513  1.00  0.00    -0.309 N 
HETATM    4  O   UNL     1      -6.033   2.455 -29.623  1.00  0.00    -0.247 OA
HETATM    5  H   UNL     1      -5.165   2.404 -32.593  1.00  0.00     0.164 HD
HETATM    6  H   UNL     1      -3.950   3.472 -29.549  1.00  0.00     0.170 HD
ENDROOT
BRANCH   1   7
HETATM    7  C   UNL     1      -7.162   1.903 -32.137  1.00  0.00     0.167 C 
BRANCH   7   8
HETATM    8  C   UNL     1      -7.115   0.791 -33.151  1.00  0.00     0.013 A 
HETATM    9  C   UNL     1      -6.337  -0.347 -32.926  1.00  0.00     0.172 A 
HETATM   10  N   UNL     1      -6.215  -1.370 -33.805  1.00  0.00    -0.237 NA
HETATM   11  C   UNL     1      -6.870  -1.249 -34.977  1.00  0.00     0.119 A 
HETATM   12  C   UNL     1      -7.641  -0.153 -35.317  1.00  0.00     0.020 A 
HETATM   13  C   UNL     1      -7.757   0.882 -34.393  1.00  0.00     0.014 A 
BRANCH   9  14
HETATM   14  O   UNL     1      -5.653  -0.417 -31.727  1.00  0.00    -0.334 OA
BRANCH  14  15
HETATM   15  C   UNL     1      -4.369  -1.034 -31.832  1.00  0.00     0.173 C 
HETATM   16  C   UNL     1      -3.345  -0.072 -31.257  1.00  0.00     0.034 C 
ENDBRANCH  14  15
ENDBRANCH   9  14
ENDBRANCH   7   8
ENDBRANCH   1   7
BRANCH   3  17
HETATM   17  C   UNL     1      -3.511   4.282 -31.397  1.00  0.00     0.037 A 
HETATM   18  C   UNL     1      -3.243   5.639 -31.217  1.00  0.00     0.049 A 
HETATM   19  C   UNL     1      -2.456   6.341 -32.143  1.00  0.00     0.019 A 
HETATM   20 BR   UNL     1      -2.187   8.196 -31.827  1.00  0.00    -0.051 Br
HETATM   21  C   UNL     1      -1.891   5.690 -33.250  1.00  0.00    -0.044 A 
HETATM   22  C   UNL     1      -1.045   6.401 -34.268  1.00  0.00     0.049 C 
HETATM   23  C   UNL     1      -2.154   4.325 -33.418  1.00  0.00     0.010 A 
HETATM   24  C   UNL     1      -2.947   3.630 -32.500  1.00  0.00     0.030 A 
ENDBRANCH   3  17
TORSDOF 5
ENDMDL
MODEL 9
REMARK VINA RESULT:      -6.3      4.627      6.646
REMARK  5 active torsions:
REMARK  status: ('A' for Active; 'I' for Inactive)
REMARK    1  A    between atoms: C_2  and  O_3 
REMARK    2  A    between atoms: O_3  and  C_4 
REMARK    3  A    between atoms: C_9  and  C_10 
REMARK    4  A    between atoms: C_10  and  N_11 
REMARK       I    between atoms: N_11  and  C_12 
REMARK       I    between atoms: C_12  and  N_13 
REMARK    5  A    between atoms: N_13  and  C_14 
ROOT
HETATM    1  N   UNL     1      -4.286   3.632 -31.406  1.00  0.00    -0.338 N 
HETATM    2  C   UNL     1      -5.222   3.309 -30.478  1.00  0.00     0.320 C 
HETATM    3  N   UNL     1      -6.054   2.268 -30.749  1.00  0.00    -0.309 N 
HETATM    4  O   UNL     1      -5.375   3.939 -29.434  1.00  0.00    -0.247 OA
HETATM    5  H   UNL     1      -4.527   3.436 -32.367  1.00  0.00     0.164 HD
HETATM    6  H   UNL     1      -6.818   2.245 -30.083  1.00  0.00     0.170 HD
ENDROOT
BRANCH   1   7
HETATM    7  C   UNL     1      -3.293   4.663 -31.177  1.00  0.00     0.167 C 
BRANCH   7   8
HETATM    8  C   UNL     1      -2.533   5.070 -32.412  1.00  0.00     0.013 A 
HETATM    9  C   UNL     1      -1.547   6.056 -32.351  1.00  0.00     0.172 A 
HETATM   10  N   UNL     1      -0.850   6.501 -33.423  1.00  0.00    -0.237 NA
HETATM   11  C   UNL     1      -1.163   5.964 -34.620  1.00  0.00     0.119 A 
HETATM   12  C   UNL     1      -2.142   5.006 -34.800  1.00  0.00     0.020 A 
HETATM   13  C   UNL     1      -2.840   4.560 -33.681  1.00  0.00     0.014 A 
BRANCH   9  14
HETATM   14  O   UNL     1      -1.281   6.606 -31.112  1.00  0.00    -0.334 OA
BRANCH  14  15
HETATM   15  C   UNL     1       0.105   6.606 -30.767  1.00  0.00     0.173 C 
HETATM   16  C   UNL     1       0.402   5.306 -30.042  1.00  0.00     0.034 C 
ENDBRANCH  14  15
ENDBRANCH   9  14
ENDBRANCH   7   8
ENDBRANCH   1   7
BRANCH   3  17
HETATM   17  C   UNL     1      -5.981   1.186 -31.647  1.00  0.00     0.037 A 
HETATM   18  C   UNL     1      -6.665   1.110 -32.860  1.00  0.00     0.049 A 
HETATM   19  C   UNL     1      -6.506  -0.001 -33.702  1.00  0.00     0.019 A 
HETATM   20 BR   UNL     1      -7.516  -0.025 -35.312  1.00  0.00    -0.051 Br
HETATM   21  C   UNL     1      -5.630  -1.043 -33.363  1.00  0.00    -0.044 A 
HETATM   22  C   UNL     1      -5.429  -2.253 -34.232  1.00  0.00     0.049 C 
HETATM   23  C   UNL     1      -4.937  -0.955 -32.150  1.00  0.00     0.010 A 
HETATM   24  C   UNL     1      -5.106   0.149 -31.308  1.00  0.00     0.030 A 
ENDBRANCH   3  17
TORSDOF 5
ENDMDL
MODEL 10
REMARK VINA RESULT:      -6.3      2.400      3.708
REMARK  5 active torsions:
REMARK  status: ('A' for Active; 'I' for Inactive)
REMARK    1  A    between atoms: C_2  and  O_3 
REMARK    2  A    between atoms: O_3  and  C_4 
REMARK    3  A    between atoms: C_9  and  C_10 
REMARK    4  A    between atoms: C_10  and  N_11 
REMARK       I    between atoms: N_11  and  C_12 
REMARK       I    between atoms: C_12  and  N_13 
REMARK    5  A    between atoms: N_13  and  C_14 
ROOT
HETATM    1  N   UNL     1      -8.486   0.945 -32.984  1.00  0.00    -0.338 N 
HETATM    2  C   UNL     1      -8.430   2.066 -33.745  1.00  0.00     0.320 C 
HETATM    3  N   UNL     1      -9.590   2.528 -34.284  1.00  0.00    -0.309 N 
HETATM    4  O   UNL     1      -7.379   2.650 -34.001  1.00  0.00    -0.247 OA
HETATM    5  H   UNL     1      -9.213   0.284 -33.218  1.00  0.00     0.164 HD
HETATM    6  H   UNL     1      -9.397   3.244 -34.975  1.00  0.00     0.170 HD
ENDROOT
BRANCH   1   7
HETATM    7  C   UNL     1      -7.325   0.422 -32.289  1.00  0.00     0.167 C 
BRANCH   7   8
HETATM    8  C   UNL     1      -6.615  -0.684 -33.024  1.00  0.00     0.013 A 
HETATM    9  C   UNL     1      -5.266  -0.949 -32.784  1.00  0.00     0.172 A 
HETATM   10  N   UNL     1      -4.551  -1.899 -33.432  1.00  0.00    -0.237 NA
HETATM   11  C   UNL     1      -5.195  -2.603 -34.385  1.00  0.00     0.119 A 
HETATM   12  C   UNL     1      -6.518  -2.402 -34.727  1.00  0.00     0.020 A 
HETATM   13  C   UNL     1      -7.234  -1.424 -34.041  1.00  0.00     0.014 A 
BRANCH   9  14
HETATM   14  O   UNL     1      -4.633  -0.181 -31.825  1.00  0.00    -0.334 OA
BRANCH  14  15
HETATM   15  C   UNL     1      -3.499   0.535 -32.316  1.00  0.00     0.173 C 
HETATM   16  C   UNL     1      -3.802   2.018 -32.201  1.00  0.00     0.034 C 
ENDBRANCH  14  15
ENDBRANCH   9  14
ENDBRANCH   7   8
ENDBRANCH   1   7
BRANCH   3  17
HETATM   17  C   UNL     1     -10.947   2.312 -33.977  1.00  0.00     0.037 A 
HETATM   18  C   UNL     1     -11.672   3.028 -33.025  1.00  0.00     0.049 A 
HETATM   19  C   UNL     1     -13.032   2.756 -32.810  1.00  0.00     0.019 A 
HETATM   20 BR   UNL     1     -13.916   3.760 -31.459  1.00  0.00    -0.051 Br
HETATM   21  C   UNL     1     -13.703   1.787 -33.569  1.00  0.00    -0.044 A 
HETATM   22  C   UNL     1     -15.156   1.461 -33.372  1.00  0.00     0.049 C 
HETATM   23  C   UNL     1     -12.972   1.081 -34.533  1.00  0.00     0.010 A 
HETATM   24  C   UNL     1     -11.615   1.345 -34.737  1.00  0.00     0.030 A 
ENDBRANCH   3  17
TORSDOF 5
ENDMDL
