MODEL 1
REMARK VINA RESULT:      -9.4      0.000      0.000
REMARK  3 active torsions:
REMARK  status: ('A' for Active; 'I' for Inactive)
REMARK    1  A    between atoms: C_9  and  C_10 
REMARK       I    between atoms: C_10  and  N_11 
REMARK    2  A    between atoms: N_11  and  C_12 
REMARK    3  A    between atoms: C_19  and  C_20 
REMARK       I    between atoms: C_20  and  N_21 
ROOT
HETATM    1  C   UNL     1      -5.719  -0.205 -33.782  1.00  0.00     0.035 A 
HETATM    2  C   UNL     1      -4.900  -1.328 -33.615  1.00  0.00     0.046 A 
HETATM    3  C   UNL     1      -5.338  -2.580 -34.098  1.00  0.00     0.030 A 
HETATM    4  C   UNL     1      -6.562  -2.659 -34.751  1.00  0.00     0.063 A 
HETATM    5  N   UNL     1      -6.710  -3.976 -35.084  1.00  0.00    -0.277 N 
HETATM    6  H   UNL     1      -7.493  -4.400 -35.569  1.00  0.00     0.189 HD
HETATM    7  N   UNL     1      -5.697  -4.767 -34.698  1.00  0.00    -0.168 NA
HETATM    8  C   UNL     1      -4.839  -3.918 -34.086  1.00  0.00     0.156 A 
HETATM    9  C   UNL     1      -7.389  -1.555 -34.957  1.00  0.00     0.034 A 
HETATM   10  C   UNL     1      -6.945  -0.328 -34.451  1.00  0.00     0.032 A 
ENDROOT
BRANCH   1  11
HETATM   11  N   UNL     1      -5.431   1.054 -33.228  1.00  0.00    -0.325 N 
HETATM   12  C   UNL     1      -5.302   1.387 -31.891  1.00  0.00     0.252 C 
HETATM   13  O   UNL     1      -5.060   0.609 -30.972  1.00  0.00    -0.270 OA
HETATM   14  H   UNL     1      -5.437   1.843 -33.865  1.00  0.00     0.169 HD
BRANCH  12  15
HETATM   15  C   UNL     1      -5.601   2.877 -31.608  1.00  0.00     0.225 C 
HETATM   16  C   UNL     1      -5.603   3.642 -32.941  1.00  0.00     0.083 C 
HETATM   17  C   UNL     1      -4.213   4.154 -32.904  1.00  0.00    -0.021 A 
HETATM   18  C   UNL     1      -3.745   4.100 -31.605  1.00  0.00     0.076 A 
HETATM   19  C   UNL     1      -3.410   4.620 -33.927  1.00  0.00     0.017 A 
HETATM   20  C   UNL     1      -2.479   4.522 -31.261  1.00  0.00     0.044 A 
HETATM   21  O   UNL     1      -4.621   3.496 -30.733  1.00  0.00    -0.336 OA
HETATM   22  C   UNL     1      -1.632   4.986 -32.281  1.00  0.00    -0.053 A 
HETATM   23  C   UNL     1      -2.096   5.022 -33.624  1.00  0.00    -0.055 A 
HETATM   24  C   UNL     1      -0.226   5.394 -31.930  1.00  0.00     0.049 C 
HETATM   25  C   UNL     1      -1.190   5.451 -34.749  1.00  0.00     0.049 C 
ENDBRANCH  12  15
ENDBRANCH   1  11
BRANCH   8  26
HETATM   26  C   UNL     1      -3.585  -4.402 -33.493  1.00  0.00     0.270 C 
HETATM   27  N   UNL     1      -2.922  -5.319 -34.261  1.00  0.00    -0.365 N 
HETATM   28  H   UNL     1      -3.332  -5.597 -35.145  1.00  0.00     0.159 HD
HETATM   29  H   UNL     1      -2.060  -5.718 -33.927  1.00  0.00     0.159 HD
HETATM   30  O   UNL     1      -3.144  -4.049 -32.404  1.00  0.00    -0.266 OA
ENDBRANCH   8  26
TORSDOF 3
ENDMDL
MODEL 2
REMARK VINA RESULT:      -9.1      3.168      8.154
REMARK  3 active torsions:
REMARK  status: ('A' for Active; 'I' for Inactive)
REMARK    1  A    between atoms: C_9  and  C_10 
REMARK       I    between atoms: C_10  and  N_11 
REMARK    2  A    between atoms: N_11  and  C_12 
REMARK    3  A    between atoms: C_19  and  C_20 
REMARK       I    between atoms: C_20  and  N_21 
ROOT
HETATM    1  C   UNL     1      -3.825   3.590 -32.769  1.00  0.00     0.035 A 
HETATM    2  C   UNL     1      -2.695   3.921 -32.011  1.00  0.00     0.046 A 
HETATM    3  C   UNL     1      -1.954   5.076 -32.344  1.00  0.00     0.030 A 
HETATM    4  C   UNL     1      -2.384   5.870 -33.401  1.00  0.00     0.063 A 
HETATM    5  N   UNL     1      -1.475   6.887 -33.483  1.00  0.00    -0.277 N 
HETATM    6  H   UNL     1      -1.472   7.653 -34.147  1.00  0.00     0.189 HD
HETATM    7  N   UNL     1      -0.483   6.822 -32.581  1.00  0.00    -0.168 NA
HETATM    8  C   UNL     1      -0.765   5.707 -31.869  1.00  0.00     0.156 A 
HETATM    9  C   UNL     1      -3.520   5.584 -34.157  1.00  0.00     0.034 A 
HETATM   10  C   UNL     1      -4.227   4.422 -33.824  1.00  0.00     0.032 A 
ENDROOT
BRANCH   1  11
HETATM   11  N   UNL     1      -4.552   2.400 -32.598  1.00  0.00    -0.325 N 
HETATM   12  C   UNL     1      -5.818   2.100 -33.069  1.00  0.00     0.252 C 
HETATM   13  O   UNL     1      -6.391   2.653 -34.004  1.00  0.00    -0.270 OA
HETATM   14  H   UNL     1      -4.165   1.719 -31.953  1.00  0.00     0.169 HD
BRANCH  12  15
HETATM   15  C   UNL     1      -6.540   1.028 -32.222  1.00  0.00     0.225 C 
HETATM   16  C   UNL     1      -5.484   0.140 -31.545  1.00  0.00     0.083 C 
HETATM   17  C   UNL     1      -5.472  -0.974 -32.522  1.00  0.00    -0.021 A 
HETATM   18  C   UNL     1      -6.630  -0.926 -33.276  1.00  0.00     0.076 A 
HETATM   19  C   UNL     1      -4.519  -1.947 -32.749  1.00  0.00     0.017 A 
HETATM   20  C   UNL     1      -6.902  -1.849 -34.263  1.00  0.00     0.044 A 
HETATM   21  O   UNL     1      -7.411   0.174 -33.010  1.00  0.00    -0.336 OA
HETATM   22  C   UNL     1      -5.945  -2.842 -34.530  1.00  0.00    -0.053 A 
HETATM   23  C   UNL     1      -4.740  -2.883 -33.776  1.00  0.00    -0.055 A 
HETATM   24  C   UNL     1      -6.201  -3.819 -35.645  1.00  0.00     0.049 C 
HETATM   25  C   UNL     1      -3.666  -3.894 -34.081  1.00  0.00     0.049 C 
ENDBRANCH  12  15
ENDBRANCH   1  11
BRANCH   8  26
HETATM   26  C   UNL     1       0.109   5.263 -30.774  1.00  0.00     0.270 C 
HETATM   27  N   UNL     1      -0.342   5.603 -29.528  1.00  0.00    -0.365 N 
HETATM   28  H   UNL     1      -1.206   6.126 -29.452  1.00  0.00     0.159 HD
HETATM   29  H   UNL     1       0.201   5.354 -28.717  1.00  0.00     0.159 HD
HETATM   30  O   UNL     1       1.162   4.650 -30.923  1.00  0.00    -0.266 OA
ENDBRANCH   8  26
TORSDOF 3
ENDMDL
MODEL 3
REMARK VINA RESULT:      -8.9      5.749      8.618
REMARK  3 active torsions:
REMARK  status: ('A' for Active; 'I' for Inactive)
REMARK    1  A    between atoms: C_9  and  C_10 
REMARK       I    between atoms: C_10  and  N_11 
REMARK    2  A    between atoms: N_11  and  C_12 
REMARK    3  A    between atoms: C_19  and  C_20 
REMARK       I    between atoms: C_20  and  N_21 
ROOT
HETATM    1  C   UNL     1     -11.639   1.289 -33.703  1.00  0.00     0.035 A 
HETATM    2  C   UNL     1     -12.058   2.377 -32.928  1.00  0.00     0.046 A 
HETATM    3  C   UNL     1     -13.425   2.506 -32.599  1.00  0.00     0.030 A 
HETATM    4  C   UNL     1     -14.316   1.533 -33.035  1.00  0.00     0.063 A 
HETATM    5  N   UNL     1     -15.540   1.932 -32.578  1.00  0.00    -0.277 N 
HETATM    6  H   UNL     1     -16.428   1.462 -32.715  1.00  0.00     0.189 HD
HETATM    7  N   UNL     1     -15.531   3.087 -31.893  1.00  0.00    -0.168 NA
HETATM    8  C   UNL     1     -14.229   3.455 -31.898  1.00  0.00     0.156 A 
HETATM    9  C   UNL     1     -13.928   0.423 -33.785  1.00  0.00     0.034 A 
HETATM   10  C   UNL     1     -12.571   0.327 -34.117  1.00  0.00     0.032 A 
ENDROOT
BRANCH   1  11
HETATM   11  N   UNL     1     -10.328   1.140 -34.186  1.00  0.00    -0.325 N 
HETATM   12  C   UNL     1      -9.160   1.020 -33.454  1.00  0.00     0.252 C 
HETATM   13  O   UNL     1      -9.075   0.666 -32.282  1.00  0.00    -0.270 OA
HETATM   14  H   UNL     1     -10.195   1.255 -35.186  1.00  0.00     0.169 HD
BRANCH  12  15
HETATM   15  C   UNL     1      -7.909   1.488 -34.232  1.00  0.00     0.225 C 
HETATM   16  C   UNL     1      -7.623   0.482 -35.359  1.00  0.00     0.083 C 
HETATM   17  C   UNL     1      -6.601  -0.340 -34.668  1.00  0.00    -0.021 A 
HETATM   18  C   UNL     1      -6.089   0.377 -33.603  1.00  0.00     0.076 A 
HETATM   19  C   UNL     1      -6.159  -1.620 -34.938  1.00  0.00     0.017 A 
HETATM   20  C   UNL     1      -5.108  -0.131 -32.779  1.00  0.00     0.044 A 
HETATM   21  O   UNL     1      -6.724   1.580 -33.398  1.00  0.00    -0.336 OA
HETATM   22  C   UNL     1      -4.650  -1.437 -33.016  1.00  0.00    -0.053 A 
HETATM   23  C   UNL     1      -5.188  -2.191 -34.094  1.00  0.00    -0.055 A 
HETATM   24  C   UNL     1      -3.622  -2.027 -32.088  1.00  0.00     0.049 C 
HETATM   25  C   UNL     1      -4.765  -3.616 -34.335  1.00  0.00     0.049 C 
ENDBRANCH  12  15
ENDBRANCH   1  11
BRANCH   8  26
HETATM   26  C   UNL     1     -13.789   4.701 -31.255  1.00  0.00     0.270 C 
HETATM   27  N   UNL     1     -13.177   4.518 -30.045  1.00  0.00    -0.365 N 
HETATM   28  H   UNL     1     -13.085   3.574 -29.687  1.00  0.00     0.159 HD
HETATM   29  H   UNL     1     -12.857   5.318 -29.523  1.00  0.00     0.159 HD
HETATM   30  O   UNL     1     -13.947   5.824 -31.723  1.00  0.00    -0.266 OA
ENDBRANCH   8  26
TORSDOF 3
ENDMDL
MODEL 4
REMARK VINA RESULT:      -8.8      3.494      8.861
REMARK  3 active torsions:
REMARK  status: ('A' for Active; 'I' for Inactive)
REMARK    1  A    between atoms: C_9  and  C_10 
REMARK       I    between atoms: C_10  and  N_11 
REMARK    2  A    between atoms: N_11  and  C_12 
REMARK    3  A    between atoms: C_19  and  C_20 
REMARK       I    between atoms: C_20  and  N_21 
ROOT
HETATM    1  C   UNL     1      -3.569   4.236 -32.685  1.00  0.00     0.035 A 
HETATM    2  C   UNL     1      -3.875   5.470 -32.099  1.00  0.00     0.046 A 
HETATM    3  C   UNL     1      -3.017   6.570 -32.320  1.00  0.00     0.030 A 
HETATM    4  C   UNL     1      -1.905   6.404 -33.136  1.00  0.00     0.063 A 
HETATM    5  N   UNL     1      -1.280   7.618 -33.147  1.00  0.00    -0.277 N 
HETATM    6  H   UNL     1      -0.427   7.863 -33.639  1.00  0.00     0.189 HD
HETATM    7  N   UNL     1      -1.877   8.561 -32.401  1.00  0.00    -0.168 NA
HETATM    8  C   UNL     1      -2.954   7.928 -31.882  1.00  0.00     0.156 A 
HETATM    9  C   UNL     1      -1.588   5.196 -33.757  1.00  0.00     0.034 A 
HETATM   10  C   UNL     1      -2.440   4.113 -33.507  1.00  0.00     0.032 A 
ENDROOT
BRANCH   1  11
HETATM   11  N   UNL     1      -4.287   3.056 -32.426  1.00  0.00    -0.325 N 
HETATM   12  C   UNL     1      -5.507   2.669 -32.951  1.00  0.00     0.252 C 
HETATM   13  O   UNL     1      -6.016   3.091 -33.986  1.00  0.00    -0.270 OA
HETATM   14  H   UNL     1      -3.939   2.467 -31.676  1.00  0.00     0.169 HD
BRANCH  12  15
HETATM   15  C   UNL     1      -6.274   1.687 -32.036  1.00  0.00     0.225 C 
HETATM   16  C   UNL     1      -5.261   0.753 -31.355  1.00  0.00     0.083 C 
HETATM   17  C   UNL     1      -5.362  -0.398 -32.283  1.00  0.00    -0.021 A 
HETATM   18  C   UNL     1      -6.539  -0.297 -33.002  1.00  0.00     0.076 A 
HETATM   19  C   UNL     1      -4.489  -1.446 -32.498  1.00  0.00     0.017 A 
HETATM   20  C   UNL     1      -6.909  -1.237 -33.939  1.00  0.00     0.044 A 
HETATM   21  O   UNL     1      -7.230   0.866 -32.759  1.00  0.00    -0.336 OA
HETATM   22  C   UNL     1      -6.035  -2.306 -34.193  1.00  0.00    -0.053 A 
HETATM   23  C   UNL     1      -4.811  -2.404 -33.477  1.00  0.00    -0.055 A 
HETATM   24  C   UNL     1      -6.398  -3.307 -35.257  1.00  0.00     0.049 C 
HETATM   25  C   UNL     1      -3.823  -3.502 -33.772  1.00  0.00     0.049 C 
ENDBRANCH  12  15
ENDBRANCH   1  11
BRANCH   8  26
HETATM   26  C   UNL     1      -3.879   8.621 -30.974  1.00  0.00     0.270 C 
HETATM   27  N   UNL     1      -3.289   9.103 -29.838  1.00  0.00    -0.365 N 
HETATM   28  H   UNL     1      -2.297   8.944 -29.703  1.00  0.00     0.159 HD
HETATM   29  H   UNL     1      -3.849   9.579 -29.150  1.00  0.00     0.159 HD
HETATM   30  O   UNL     1      -5.080   8.766 -31.176  1.00  0.00    -0.266 OA
ENDBRANCH   8  26
TORSDOF 3
ENDMDL
MODEL 5
REMARK VINA RESULT:      -8.7      6.037      9.732
REMARK  3 active torsions:
REMARK  status: ('A' for Active; 'I' for Inactive)
REMARK    1  A    between atoms: C_9  and  C_10 
REMARK       I    between atoms: C_10  and  N_11 
REMARK    2  A    between atoms: N_11  and  C_12 
REMARK    3  A    between atoms: C_19  and  C_20 
REMARK       I    between atoms: C_20  and  N_21 
ROOT
HETATM    1  C   UNL     1      -0.806   7.390 -29.640  1.00  0.00     0.035 A 
HETATM    2  C   UNL     1      -2.039   7.126 -29.030  1.00  0.00     0.046 A 
HETATM    3  C   UNL     1      -2.185   7.347 -27.643  1.00  0.00     0.030 A 
HETATM    4  C   UNL     1      -1.106   7.847 -26.924  1.00  0.00     0.063 A 
HETATM    5  N   UNL     1      -1.544   7.941 -25.633  1.00  0.00    -0.277 N 
HETATM    6  H   UNL     1      -1.017   8.264 -24.830  1.00  0.00     0.189 HD
HETATM    7  N   UNL     1      -2.809   7.535 -25.442  1.00  0.00    -0.168 NA
HETATM    8  C   UNL     1      -3.220   7.164 -26.677  1.00  0.00     0.156 A 
HETATM    9  C   UNL     1       0.126   8.146 -27.506  1.00  0.00     0.034 A 
HETATM   10  C   UNL     1       0.255   7.900 -28.877  1.00  0.00     0.032 A 
ENDROOT
BRANCH   1  11
HETATM   11  N   UNL     1      -0.524   7.086 -30.982  1.00  0.00    -0.325 N 
HETATM   12  C   UNL     1      -1.165   7.556 -32.115  1.00  0.00     0.252 C 
HETATM   13  O   UNL     1      -1.845   8.576 -32.190  1.00  0.00    -0.270 OA
HETATM   14  H   UNL     1       0.146   6.342 -31.149  1.00  0.00     0.169 HD
BRANCH  12  15
HETATM   15  C   UNL     1      -1.041   6.598 -33.321  1.00  0.00     0.225 C 
HETATM   16  C   UNL     1      -2.265   6.790 -34.232  1.00  0.00     0.083 C 
HETATM   17  C   UNL     1      -3.096   5.672 -33.725  1.00  0.00    -0.021 A 
HETATM   18  C   UNL     1      -2.286   4.776 -33.052  1.00  0.00     0.076 A 
HETATM   19  C   UNL     1      -4.456   5.457 -33.829  1.00  0.00     0.017 A 
HETATM   20  C   UNL     1      -2.782   3.626 -32.478  1.00  0.00     0.044 A 
HETATM   21  O   UNL     1      -0.983   5.200 -32.932  1.00  0.00    -0.336 OA
HETATM   22  C   UNL     1      -4.164   3.386 -32.551  1.00  0.00    -0.053 A 
HETATM   23  C   UNL     1      -5.008   4.315 -33.220  1.00  0.00    -0.055 A 
HETATM   24  C   UNL     1      -4.728   2.165 -31.877  1.00  0.00     0.049 C 
HETATM   25  C   UNL     1      -6.501   4.120 -33.260  1.00  0.00     0.049 C 
ENDBRANCH  12  15
ENDBRANCH   1  11
BRANCH   8  26
HETATM   26  C   UNL     1      -4.571   6.632 -26.900  1.00  0.00     0.270 C 
HETATM   27  N   UNL     1      -4.653   5.268 -26.827  1.00  0.00    -0.365 N 
HETATM   28  H   UNL     1      -3.807   4.742 -26.642  1.00  0.00     0.159 HD
HETATM   29  H   UNL     1      -5.538   4.814 -26.983  1.00  0.00     0.159 HD
HETATM   30  O   UNL     1      -5.561   7.315 -27.144  1.00  0.00    -0.266 OA
ENDBRANCH   8  26
TORSDOF 3
ENDMDL
MODEL 6
REMARK VINA RESULT:      -8.6      4.215      8.845
REMARK  3 active torsions:
REMARK  status: ('A' for Active; 'I' for Inactive)
REMARK    1  A    between atoms: C_9  and  C_10 
REMARK       I    between atoms: C_10  and  N_11 
REMARK    2  A    between atoms: N_11  and  C_12 
REMARK    3  A    between atoms: C_19  and  C_20 
REMARK       I    between atoms: C_20  and  N_21 
ROOT
HETATM    1  C   UNL     1      -4.910   5.367 -30.387  1.00  0.00     0.035 A 
HETATM    2  C   UNL     1      -3.831   5.790 -31.173  1.00  0.00     0.046 A 
HETATM    3  C   UNL     1      -3.496   7.161 -31.206  1.00  0.00     0.030 A 
HETATM    4  C   UNL     1      -4.231   8.052 -30.434  1.00  0.00     0.063 A 
HETATM    5  N   UNL     1      -3.685   9.280 -30.681  1.00  0.00    -0.277 N 
HETATM    6  H   UNL     1      -3.976  10.169 -30.290  1.00  0.00     0.189 HD
HETATM    7  N   UNL     1      -2.666   9.273 -31.555  1.00  0.00    -0.168 NA
HETATM    8  C   UNL     1      -2.537   7.968 -31.890  1.00  0.00     0.156 A 
HETATM    9  C   UNL     1      -5.292   7.660 -29.619  1.00  0.00     0.034 A 
HETATM   10  C   UNL     1      -5.621   6.300 -29.618  1.00  0.00     0.032 A 
ENDROOT
BRANCH   1  11
HETATM   11  N   UNL     1      -5.399   4.050 -30.385  1.00  0.00    -0.325 N 
HETATM   12  C   UNL     1      -6.528   3.560 -31.018  1.00  0.00     0.252 C 
HETATM   13  O   UNL     1      -7.105   4.078 -31.970  1.00  0.00    -0.270 OA
HETATM   14  H   UNL     1      -4.949   3.398 -29.750  1.00  0.00     0.169 HD
BRANCH  12  15
HETATM   15  C   UNL     1      -7.102   2.297 -30.337  1.00  0.00     0.225 C 
HETATM   16  C   UNL     1      -5.936   1.376 -29.941  1.00  0.00     0.083 C 
HETATM   17  C   UNL     1      -5.960   0.472 -31.115  1.00  0.00    -0.021 A 
HETATM   18  C   UNL     1      -7.188   0.576 -31.741  1.00  0.00     0.076 A 
HETATM   19  C   UNL     1      -4.982  -0.369 -31.609  1.00  0.00     0.017 A 
HETATM   20  C   UNL     1      -7.506  -0.160 -32.862  1.00  0.00     0.044 A 
HETATM   21  O   UNL     1      -7.998   1.545 -31.198  1.00  0.00    -0.336 OA
HETATM   22  C   UNL     1      -6.527  -1.011 -33.400  1.00  0.00    -0.053 A 
HETATM   23  C   UNL     1      -5.252  -1.106 -32.777  1.00  0.00    -0.055 A 
HETATM   24  C   UNL     1      -6.839  -1.776 -34.659  1.00  0.00     0.049 C 
HETATM   25  C   UNL     1      -4.160  -1.959 -33.366  1.00  0.00     0.049 C 
ENDBRANCH  12  15
ENDBRANCH   1  11
BRANCH   8  26
HETATM   26  C   UNL     1      -1.523   7.529 -32.858  1.00  0.00     0.270 C 
HETATM   27  N   UNL     1      -0.460   6.876 -32.296  1.00  0.00    -0.365 N 
HETATM   28  H   UNL     1      -0.443   6.756 -31.290  1.00  0.00     0.159 HD
HETATM   29  H   UNL     1       0.292   6.553 -32.883  1.00  0.00     0.159 HD
HETATM   30  O   UNL     1      -1.581   7.722 -34.068  1.00  0.00    -0.266 OA
ENDBRANCH   8  26
TORSDOF 3
ENDMDL
MODEL 7
REMARK VINA RESULT:      -8.5      1.739      2.491
REMARK  3 active torsions:
REMARK  status: ('A' for Active; 'I' for Inactive)
REMARK    1  A    between atoms: C_9  and  C_10 
REMARK       I    between atoms: C_10  and  N_11 
REMARK    2  A    between atoms: N_11  and  C_12 
REMARK    3  A    between atoms: C_19  and  C_20 
REMARK       I    between atoms: C_20  and  N_21 
ROOT
HETATM    1  C   UNL     1      -5.337  -0.235 -32.518  1.00  0.00     0.035 A 
HETATM    2  C   UNL     1      -5.792  -1.310 -33.291  1.00  0.00     0.046 A 
HETATM    3  C   UNL     1      -4.982  -2.459 -33.422  1.00  0.00     0.030 A 
HETATM    4  C   UNL     1      -3.763  -2.502 -32.756  1.00  0.00     0.063 A 
HETATM    5  N   UNL     1      -3.216  -3.712 -33.080  1.00  0.00    -0.277 N 
HETATM    6  H   UNL     1      -2.323  -4.081 -32.775  1.00  0.00     0.189 HD
HETATM    7  N   UNL     1      -3.965  -4.459 -33.907  1.00  0.00    -0.168 NA
HETATM    8  C   UNL     1      -5.060  -3.697 -34.129  1.00  0.00     0.156 A 
HETATM    9  C   UNL     1      -3.293  -1.460 -31.957  1.00  0.00     0.034 A 
HETATM   10  C   UNL     1      -4.103  -0.323 -31.859  1.00  0.00     0.032 A 
ENDROOT
BRANCH   1  11
HETATM   11  N   UNL     1      -6.009   0.996 -32.429  1.00  0.00    -0.325 N 
HETATM   12  C   UNL     1      -6.315   1.875 -33.453  1.00  0.00     0.252 C 
HETATM   13  O   UNL     1      -6.383   1.597 -34.648  1.00  0.00    -0.270 OA
HETATM   14  H   UNL     1      -6.188   1.350 -31.496  1.00  0.00     0.169 HD
BRANCH  12  15
HETATM   15  C   UNL     1      -6.475   3.334 -32.970  1.00  0.00     0.225 C 
HETATM   16  C   UNL     1      -6.113   4.280 -34.126  1.00  0.00     0.083 C 
HETATM   17  C   UNL     1      -4.705   4.555 -33.756  1.00  0.00    -0.021 A 
HETATM   18  C   UNL     1      -4.517   4.235 -32.424  1.00  0.00     0.076 A 
HETATM   19  C   UNL     1      -3.661   5.035 -34.522  1.00  0.00     0.017 A 
HETATM   20  C   UNL     1      -3.303   4.397 -31.794  1.00  0.00     0.044 A 
HETATM   21  O   UNL     1      -5.619   3.654 -31.841  1.00  0.00    -0.336 OA
HETATM   22  C   UNL     1      -2.217   4.867 -32.550  1.00  0.00    -0.053 A 
HETATM   23  C   UNL     1      -2.394   5.176 -33.927  1.00  0.00    -0.055 A 
HETATM   24  C   UNL     1      -0.870   4.992 -31.890  1.00  0.00     0.049 C 
HETATM   25  C   UNL     1      -1.235   5.619 -34.780  1.00  0.00     0.049 C 
ENDBRANCH  12  15
ENDBRANCH   1  11
BRANCH   8  26
HETATM   26  C   UNL     1      -6.138  -4.156 -35.016  1.00  0.00     0.270 C 
HETATM   27  N   UNL     1      -7.333  -4.361 -34.382  1.00  0.00    -0.365 N 
HETATM   28  H   UNL     1      -7.385  -4.199 -33.383  1.00  0.00     0.159 HD
HETATM   29  H   UNL     1      -8.125  -4.692 -34.908  1.00  0.00     0.159 HD
HETATM   30  O   UNL     1      -6.015  -4.360 -36.219  1.00  0.00    -0.266 OA
ENDBRANCH   8  26
TORSDOF 3
ENDMDL
MODEL 8
REMARK VINA RESULT:      -8.5      3.634      8.232
REMARK  3 active torsions:
REMARK  status: ('A' for Active; 'I' for Inactive)
REMARK    1  A    between atoms: C_9  and  C_10 
REMARK       I    between atoms: C_10  and  N_11 
REMARK    2  A    between atoms: N_11  and  C_12 
REMARK    3  A    between atoms: C_19  and  C_20 
REMARK       I    between atoms: C_20  and  N_21 
ROOT
HETATM    1  C   UNL     1      -4.136   4.331 -31.914  1.00  0.00     0.035 A 
HETATM    2  C   UNL     1      -3.137   5.230 -31.522  1.00  0.00     0.046 A 
HETATM    3  C   UNL     1      -2.552   6.077 -32.489  1.00  0.00     0.030 A 
HETATM    4  C   UNL     1      -3.004   6.013 -33.801  1.00  0.00     0.063 A 
HETATM    5  N   UNL     1      -2.253   6.926 -34.487  1.00  0.00    -0.277 N 
HETATM    6  H   UNL     1      -2.308   7.145 -35.475  1.00  0.00     0.189 HD
HETATM    7  N   UNL     1      -1.343   7.573 -33.742  1.00  0.00    -0.168 NA
HETATM    8  C   UNL     1      -1.515   7.058 -32.502  1.00  0.00     0.156 A 
HETATM    9  C   UNL     1      -4.016   5.149 -34.219  1.00  0.00     0.034 A 
HETATM   10  C   UNL     1      -4.567   4.304 -33.248  1.00  0.00     0.032 A 
ENDROOT
BRANCH   1  11
HETATM   11  N   UNL     1      -4.689   3.364 -31.057  1.00  0.00    -0.325 N 
HETATM   12  C   UNL     1      -4.220   2.089 -30.798  1.00  0.00     0.252 C 
HETATM   13  O   UNL     1      -3.071   1.691 -30.975  1.00  0.00    -0.270 OA
HETATM   14  H   UNL     1      -5.605   3.568 -30.672  1.00  0.00     0.169 HD
BRANCH  12  15
HETATM   15  C   UNL     1      -5.331   1.117 -30.339  1.00  0.00     0.225 C 
HETATM   16  C   UNL     1      -4.873  -0.323 -30.615  1.00  0.00     0.083 C 
HETATM   17  C   UNL     1      -5.552  -0.527 -31.917  1.00  0.00    -0.021 A 
HETATM   18  C   UNL     1      -6.559   0.410 -32.052  1.00  0.00     0.076 A 
HETATM   19  C   UNL     1      -5.304  -1.450 -32.914  1.00  0.00     0.017 A 
HETATM   20  C   UNL     1      -7.373   0.459 -33.163  1.00  0.00     0.044 A 
HETATM   21  O   UNL     1      -6.591   1.330 -31.031  1.00  0.00    -0.336 OA
HETATM   22  C   UNL     1      -7.136  -0.455 -34.203  1.00  0.00    -0.053 A 
HETATM   23  C   UNL     1      -6.086  -1.407 -34.083  1.00  0.00    -0.055 A 
HETATM   24  C   UNL     1      -7.977  -0.375 -35.449  1.00  0.00     0.049 C 
HETATM   25  C   UNL     1      -5.764  -2.356 -35.207  1.00  0.00     0.049 C 
ENDBRANCH  12  15
ENDBRANCH   1  11
BRANCH   8  26
HETATM   26  C   UNL     1      -0.681   7.497 -31.375  1.00  0.00     0.270 C 
HETATM   27  N   UNL     1       0.568   6.939 -31.354  1.00  0.00    -0.365 N 
HETATM   28  H   UNL     1       0.816   6.280 -32.083  1.00  0.00     0.159 HD
HETATM   29  H   UNL     1       1.204   7.170 -30.608  1.00  0.00     0.159 HD
HETATM   30  O   UNL     1      -1.039   8.283 -30.504  1.00  0.00    -0.266 OA
ENDBRANCH   8  26
TORSDOF 3
ENDMDL
MODEL 9
REMARK VINA RESULT:      -8.3      2.579      4.871
REMARK  3 active torsions:
REMARK  status: ('A' for Active; 'I' for Inactive)
REMARK    1  A    between atoms: C_9  and  C_10 
REMARK       I    between atoms: C_10  and  N_11 
REMARK    2  A    between atoms: N_11  and  C_12 
REMARK    3  A    between atoms: C_19  and  C_20 
REMARK       I    between atoms: C_20  and  N_21 
ROOT
HETATM    1  C   UNL     1      -4.576   3.830 -31.738  1.00  0.00     0.035 A 
HETATM    2  C   UNL     1      -4.491   2.515 -32.212  1.00  0.00     0.046 A 
HETATM    3  C   UNL     1      -5.278   1.511 -31.607  1.00  0.00     0.030 A 
HETATM    4  C   UNL     1      -6.137   1.861 -30.572  1.00  0.00     0.063 A 
HETATM    5  N   UNL     1      -6.741   0.696 -30.193  1.00  0.00    -0.277 N 
HETATM    6  H   UNL     1      -7.428   0.574 -29.458  1.00  0.00     0.189 HD
HETATM    7  N   UNL     1      -6.345  -0.387 -30.881  1.00  0.00    -0.168 NA
HETATM    8  C   UNL     1      -5.439   0.100 -31.759  1.00  0.00     0.156 A 
HETATM    9  C   UNL     1      -6.265   3.166 -30.096  1.00  0.00     0.034 A 
HETATM   10  C   UNL     1      -5.460   4.141 -30.696  1.00  0.00     0.032 A 
ENDROOT
BRANCH   1  11
HETATM   11  N   UNL     1      -3.746   4.871 -32.188  1.00  0.00    -0.325 N 
HETATM   12  C   UNL     1      -3.938   5.703 -33.276  1.00  0.00     0.252 C 
HETATM   13  O   UNL     1      -5.009   5.931 -33.832  1.00  0.00    -0.270 OA
HETATM   14  H   UNL     1      -2.837   4.953 -31.743  1.00  0.00     0.169 HD
BRANCH  12  15
HETATM   15  C   UNL     1      -2.617   6.277 -33.838  1.00  0.00     0.225 C 
HETATM   16  C   UNL     1      -1.524   5.202 -33.727  1.00  0.00     0.083 C 
HETATM   17  C   UNL     1      -0.906   5.645 -32.455  1.00  0.00    -0.021 A 
HETATM   18  C   UNL     1      -1.263   6.959 -32.213  1.00  0.00     0.076 A 
HETATM   19  C   UNL     1      -0.104   4.954 -31.568  1.00  0.00     0.017 A 
HETATM   20  C   UNL     1      -0.825   7.646 -31.102  1.00  0.00     0.044 A 
HETATM   21  O   UNL     1      -2.163   7.458 -33.125  1.00  0.00    -0.336 OA
HETATM   22  C   UNL     1      -0.022   6.966 -30.171  1.00  0.00    -0.053 A 
HETATM   23  C   UNL     1       0.330   5.607 -30.400  1.00  0.00    -0.055 A 
HETATM   24  C   UNL     1       0.414   7.685 -28.923  1.00  0.00     0.049 C 
HETATM   25  C   UNL     1       1.134   4.831 -29.390  1.00  0.00     0.049 C 
ENDBRANCH  12  15
ENDBRANCH   1  11
BRANCH   8  26
HETATM   26  C   UNL     1      -4.741  -0.785 -32.701  1.00  0.00     0.270 C 
HETATM   27  N   UNL     1      -5.394  -0.958 -33.891  1.00  0.00    -0.365 N 
HETATM   28  H   UNL     1      -6.282  -0.490 -34.029  1.00  0.00     0.159 HD
HETATM   29  H   UNL     1      -4.997  -1.562 -34.593  1.00  0.00     0.159 HD
HETATM   30  O   UNL     1      -3.674  -1.347 -32.475  1.00  0.00    -0.266 OA
ENDBRANCH   8  26
TORSDOF 3
ENDMDL
MODEL 10
REMARK VINA RESULT:      -8.3      3.788      8.159
REMARK  3 active torsions:
REMARK  status: ('A' for Active; 'I' for Inactive)
REMARK    1  A    between atoms: C_9  and  C_10 
REMARK       I    between atoms: C_10  and  N_11 
REMARK    2  A    between atoms: N_11  and  C_12 
REMARK    3  A    between atoms: C_19  and  C_20 
REMARK       I    between atoms: C_20  and  N_21 
ROOT
HETATM    1  C   UNL     1      -3.646   3.862 -31.827  1.00  0.00     0.035 A 
HETATM    2  C   UNL     1      -2.634   4.763 -31.474  1.00  0.00     0.046 A 
HETATM    3  C   UNL     1      -2.224   5.741 -32.407  1.00  0.00     0.030 A 
HETATM    4  C   UNL     1      -2.855   5.799 -33.643  1.00  0.00     0.063 A 
HETATM    5  N   UNL     1      -2.244   6.819 -34.315  1.00  0.00    -0.277 N 
HETATM    6  H   UNL     1      -2.447   7.143 -35.254  1.00  0.00     0.189 HD
HETATM    7  N   UNL     1      -1.261   7.427 -33.632  1.00  0.00    -0.168 NA
HETATM    8  C   UNL     1      -1.235   6.770 -32.449  1.00  0.00     0.156 A 
HETATM    9  C   UNL     1      -3.885   4.934 -34.016  1.00  0.00     0.034 A 
HETATM   10  C   UNL     1      -4.261   3.959 -33.084  1.00  0.00     0.032 A 
ENDROOT
BRANCH   1  11
HETATM   11  N   UNL     1      -4.035   2.779 -31.021  1.00  0.00    -0.325 N 
HETATM   12  C   UNL     1      -4.003   1.431 -31.332  1.00  0.00     0.252 C 
HETATM   13  O   UNL     1      -3.312   0.906 -32.202  1.00  0.00    -0.270 OA
HETATM   14  H   UNL     1      -4.511   3.005 -30.154  1.00  0.00     0.169 HD
BRANCH  12  15
HETATM   15  C   UNL     1      -5.031   0.601 -30.530  1.00  0.00     0.225 C 
HETATM   16  C   UNL     1      -5.673  -0.432 -31.470  1.00  0.00     0.083 C 
HETATM   17  C   UNL     1      -6.901   0.321 -31.820  1.00  0.00    -0.021 A 
HETATM   18  C   UNL     1      -7.108   1.311 -30.877  1.00  0.00     0.076 A 
HETATM   19  C   UNL     1      -7.766   0.165 -32.885  1.00  0.00     0.017 A 
HETATM   20  C   UNL     1      -8.185   2.168 -30.937  1.00  0.00     0.044 A 
HETATM   21  O   UNL     1      -6.091   1.411 -29.957  1.00  0.00    -0.336 OA
HETATM   22  C   UNL     1      -9.074   2.047 -32.018  1.00  0.00    -0.053 A 
HETATM   23  C   UNL     1      -8.856   1.048 -33.005  1.00  0.00    -0.055 A 
HETATM   24  C   UNL     1     -10.222   3.015 -32.128  1.00  0.00     0.049 C 
HETATM   25  C   UNL     1      -9.752   0.935 -34.210  1.00  0.00     0.049 C 
ENDBRANCH  12  15
ENDBRANCH   1  11
BRANCH   8  26
HETATM   26  C   UNL     1      -0.266   7.126 -31.403  1.00  0.00     0.270 C 
HETATM   27  N   UNL     1      -0.829   7.668 -30.281  1.00  0.00    -0.365 N 
HETATM   28  H   UNL     1      -1.835   7.791 -30.256  1.00  0.00     0.159 HD
HETATM   29  H   UNL     1      -0.239   7.957 -29.518  1.00  0.00     0.159 HD
HETATM   30  O   UNL     1       0.948   6.976 -31.495  1.00  0.00    -0.266 OA
ENDBRANCH   8  26
TORSDOF 3
ENDMDL
