MODEL 1
REMARK VINA RESULT:     -10.0      0.000      0.000
REMARK  6 active torsions:
REMARK  status: ('A' for Active; 'I' for Inactive)
REMARK    1  A    between atoms: O_2  and  C_3 
REMARK    2  A    between atoms: C_6  and  C_7 
REMARK    3  A    between atoms: C_7  and  N_8 
REMARK       I    between atoms: N_8  and  C_9 
REMARK    4  A    between atoms: C_9  and  C_10 
REMARK    5  A    between atoms: C_13  and  C_14 
REMARK    6  A    between atoms: C_19  and  C_20 
ROOT
HETATM    1  C   UNL     1      -9.055   1.288 -32.959  1.00  0.00     0.096 A 
HETATM    2  C   UNL     1      -7.869   0.577 -32.967  1.00  0.00     0.138 A 
HETATM    3  N   UNL     1      -6.984   1.308 -32.207  1.00  0.00    -0.240 N 
HETATM    4  C   UNL     1      -5.588   0.959 -32.009  1.00  0.00     0.221 C 
HETATM    5  C   UNL     1      -5.332  -0.507 -32.402  1.00  0.00     0.066 C 
HETATM    6  C   UNL     1      -6.045  -0.836 -33.718  1.00  0.00     0.118 C 
HETATM    7  N   UNL     1      -7.482  -0.583 -33.566  1.00  0.00    -0.365 N 
HETATM    8  N   UNL     1      -7.460   2.510 -31.845  1.00  0.00    -0.181 NA
HETATM    9  C   UNL     1      -8.726   2.482 -32.271  1.00  0.00     0.160 A 
HETATM   10  H   UNL     1      -8.009  -0.897 -34.383  1.00  0.00     0.161 HD
ENDROOT
BRANCH   1  11
HETATM   11  C   UNL     1     -10.337   0.970 -33.558  1.00  0.00     0.257 C 
HETATM   12  N   UNL     1     -10.749   1.843 -34.537  1.00  0.00    -0.352 N 
HETATM   13  H   UNL     1     -10.073   2.504 -34.898  1.00  0.00     0.163 HD
HETATM   14  O   UNL     1     -10.981  -0.015 -33.218  1.00  0.00    -0.267 OA
BRANCH  12  15
HETATM   15  C   UNL     1     -12.003   1.679 -35.234  1.00  0.00     0.161 C 
BRANCH  15  16
HETATM   16  C   UNL     1     -13.195   1.863 -34.330  1.00  0.00    -0.040 A 
HETATM   17  C   UNL     1     -14.282   0.982 -34.384  1.00  0.00     0.011 A 
HETATM   18  C   UNL     1     -15.355   1.124 -33.500  1.00  0.00     0.037 A 
HETATM   19  C   UNL     1     -15.354   2.132 -32.535  1.00  0.00     0.068 A 
HETATM   20  C   UNL     1     -14.283   3.023 -32.482  1.00  0.00     0.037 A 
HETATM   21  C   UNL     1     -13.210   2.887 -33.372  1.00  0.00     0.011 A 
BRANCH  19  22
HETATM   22  O   UNL     1     -16.448   2.147 -31.714  1.00  0.00    -0.356 OA
HETATM   23  C   UNL     1     -17.548   2.941 -32.140  1.00  0.00     0.210 C 
ENDBRANCH  19  22
ENDBRANCH  15  16
ENDBRANCH  12  15
ENDBRANCH   1  11
BRANCH   4  24
HETATM   24  C   UNL     1      -5.145   1.187 -30.580  1.00  0.00     0.409 C 
HETATM   25  F   UNL     1      -6.136   0.956 -29.690  1.00  0.00    -0.169 F 
HETATM   26  F   UNL     1      -4.141   0.319 -30.274  1.00  0.00    -0.169 F 
HETATM   27  F   UNL     1      -4.650   2.421 -30.355  1.00  0.00    -0.169 F 
ENDBRANCH   4  24
BRANCH   6  28
HETATM   28  C   UNL     1      -5.829  -2.275 -34.140  1.00  0.00    -0.035 A 
HETATM   29  C   UNL     1      -6.874  -3.044 -34.679  1.00  0.00     0.009 A 
HETATM   30  C   UNL     1      -6.664  -4.372 -35.052  1.00  0.00     0.001 A 
HETATM   31  C   UNL     1      -5.407  -4.950 -34.894  1.00  0.00     0.000 A 
HETATM   32  C   UNL     1      -4.358  -4.199 -34.367  1.00  0.00     0.001 A 
HETATM   33  C   UNL     1      -4.567  -2.871 -33.992  1.00  0.00     0.009 A 
ENDBRANCH   6  28
TORSDOF 6
ENDMDL
MODEL 2
REMARK VINA RESULT:      -9.4      5.039      8.156
REMARK  6 active torsions:
REMARK  status: ('A' for Active; 'I' for Inactive)
REMARK    1  A    between atoms: O_2  and  C_3 
REMARK    2  A    between atoms: C_6  and  C_7 
REMARK    3  A    between atoms: C_7  and  N_8 
REMARK       I    between atoms: N_8  and  C_9 
REMARK    4  A    between atoms: C_9  and  C_10 
REMARK    5  A    between atoms: C_13  and  C_14 
REMARK    6  A    between atoms: C_19  and  C_20 
ROOT
HETATM    1  C   UNL     1      -6.474   3.534 -33.470  1.00  0.00     0.096 A 
HETATM    2  C   UNL     1      -6.946   2.234 -33.426  1.00  0.00     0.138 A 
HETATM    3  N   UNL     1      -8.265   2.323 -33.041  1.00  0.00    -0.240 N 
HETATM    4  C   UNL     1      -9.128   1.181 -32.796  1.00  0.00     0.221 C 
HETATM    5  C   UNL     1      -8.524  -0.098 -33.406  1.00  0.00     0.066 C 
HETATM    6  C   UNL     1      -7.023  -0.170 -33.107  1.00  0.00     0.118 C 
HETATM    7  N   UNL     1      -6.365   1.023 -33.649  1.00  0.00    -0.365 N 
HETATM    8  N   UNL     1      -8.631   3.563 -32.681  1.00  0.00    -0.181 NA
HETATM    9  C   UNL     1      -7.557   4.301 -32.974  1.00  0.00     0.160 A 
HETATM   10  H   UNL     1      -5.348   0.961 -33.571  1.00  0.00     0.161 HD
ENDROOT
BRANCH   1  11
HETATM   11  C   UNL     1      -5.170   4.039 -33.854  1.00  0.00     0.257 C 
HETATM   12  N   UNL     1      -4.139   3.669 -33.022  1.00  0.00    -0.352 N 
HETATM   13  H   UNL     1      -4.318   2.939 -32.343  1.00  0.00     0.163 HD
HETATM   14  O   UNL     1      -5.014   4.727 -34.856  1.00  0.00    -0.267 OA
BRANCH  12  15
HETATM   15  C   UNL     1      -2.778   4.087 -33.252  1.00  0.00     0.161 C 
BRANCH  15  16
HETATM   16  C   UNL     1      -2.525   5.504 -32.802  1.00  0.00    -0.040 A 
HETATM   17  C   UNL     1      -1.883   6.422 -33.643  1.00  0.00     0.011 A 
HETATM   18  C   UNL     1      -1.709   7.749 -33.242  1.00  0.00     0.037 A 
HETATM   19  C   UNL     1      -2.187   8.189 -32.007  1.00  0.00     0.068 A 
HETATM   20  C   UNL     1      -2.815   7.280 -31.157  1.00  0.00     0.037 A 
HETATM   21  C   UNL     1      -2.984   5.947 -31.554  1.00  0.00     0.011 A 
BRANCH  19  22
HETATM   22  O   UNL     1      -1.977   9.515 -31.744  1.00  0.00    -0.356 OA
HETATM   23  C   UNL     1      -2.560  10.025 -30.552  1.00  0.00     0.210 C 
ENDBRANCH  19  22
ENDBRANCH  15  16
ENDBRANCH  12  15
ENDBRANCH   1  11
BRANCH   4  24
HETATM   24  C   UNL     1     -10.521   1.397 -33.347  1.00  0.00     0.409 C 
HETATM   25  F   UNL     1     -11.210   2.333 -32.656  1.00  0.00    -0.169 F 
HETATM   26  F   UNL     1     -10.435   1.849 -34.629  1.00  0.00    -0.169 F 
HETATM   27  F   UNL     1     -11.264   0.273 -33.400  1.00  0.00    -0.169 F 
ENDBRANCH   4  24
BRANCH   6  28
HETATM   28  C   UNL     1      -6.383  -1.410 -33.697  1.00  0.00    -0.035 A 
HETATM   29  C   UNL     1      -7.154  -2.410 -34.314  1.00  0.00     0.009 A 
HETATM   30  C   UNL     1      -6.551  -3.552 -34.841  1.00  0.00     0.001 A 
HETATM   31  C   UNL     1      -5.170  -3.711 -34.764  1.00  0.00     0.000 A 
HETATM   32  C   UNL     1      -4.390  -2.726 -34.161  1.00  0.00     0.001 A 
HETATM   33  C   UNL     1      -4.991  -1.583 -33.630  1.00  0.00     0.009 A 
ENDBRANCH   6  28
TORSDOF 6
ENDMDL
MODEL 3
REMARK VINA RESULT:      -9.4      5.182      8.899
REMARK  6 active torsions:
REMARK  status: ('A' for Active; 'I' for Inactive)
REMARK    1  A    between atoms: O_2  and  C_3 
REMARK    2  A    between atoms: C_6  and  C_7 
REMARK    3  A    between atoms: C_7  and  N_8 
REMARK       I    between atoms: N_8  and  C_9 
REMARK    4  A    between atoms: C_9  and  C_10 
REMARK    5  A    between atoms: C_13  and  C_14 
REMARK    6  A    between atoms: C_19  and  C_20 
ROOT
HETATM    1  C   UNL     1      -5.130   2.940 -32.220  1.00  0.00     0.096 A 
HETATM    2  C   UNL     1      -5.905   1.860 -32.600  1.00  0.00     0.138 A 
HETATM    3  N   UNL     1      -7.213   2.264 -32.459  1.00  0.00    -0.240 N 
HETATM    4  C   UNL     1      -8.366   1.409 -32.681  1.00  0.00     0.221 C 
HETATM    5  C   UNL     1      -7.966   0.151 -33.474  1.00  0.00     0.066 C 
HETATM    6  C   UNL     1      -6.655  -0.425 -32.928  1.00  0.00     0.118 C 
HETATM    7  N   UNL     1      -5.606   0.597 -33.013  1.00  0.00    -0.365 N 
HETATM    8  N   UNL     1      -7.339   3.463 -31.868  1.00  0.00    -0.181 NA
HETATM    9  C   UNL     1      -6.077   3.886 -31.756  1.00  0.00     0.160 A 
HETATM   10  H   UNL     1      -4.690   0.219 -32.765  1.00  0.00     0.161 HD
ENDROOT
BRANCH   1  11
HETATM   11  C   UNL     1      -3.688   3.096 -32.211  1.00  0.00     0.257 C 
HETATM   12  N   UNL     1      -3.232   4.282 -32.737  1.00  0.00    -0.352 N 
HETATM   13  H   UNL     1      -3.908   5.016 -32.904  1.00  0.00     0.163 HD
HETATM   14  O   UNL     1      -2.949   2.235 -31.749  1.00  0.00    -0.267 OA
BRANCH  12  15
HETATM   15  C   UNL     1      -1.826   4.599 -32.811  1.00  0.00     0.161 C 
BRANCH  15  16
HETATM   16  C   UNL     1      -1.402   5.594 -31.760  1.00  0.00    -0.040 A 
HETATM   17  C   UNL     1      -2.350   6.245 -30.962  1.00  0.00     0.011 A 
HETATM   18  C   UNL     1      -1.946   7.119 -29.949  1.00  0.00     0.037 A 
HETATM   19  C   UNL     1      -0.591   7.343 -29.701  1.00  0.00     0.068 A 
HETATM   20  C   UNL     1       0.360   6.710 -30.499  1.00  0.00     0.037 A 
HETATM   21  C   UNL     1      -0.043   5.840 -31.520  1.00  0.00     0.011 A 
BRANCH  19  22
HETATM   22  O   UNL     1      -0.326   8.198 -28.666  1.00  0.00    -0.356 OA
HETATM   23  C   UNL     1       1.001   8.182 -28.156  1.00  0.00     0.210 C 
ENDBRANCH  19  22
ENDBRANCH  15  16
ENDBRANCH  12  15
ENDBRANCH   1  11
BRANCH   4  24
HETATM   24  C   UNL     1      -9.477   2.135 -33.409  1.00  0.00     0.409 C 
HETATM   25  F   UNL     1      -9.006   3.025 -34.312  1.00  0.00    -0.169 F 
HETATM   26  F   UNL     1     -10.224   1.236 -34.107  1.00  0.00    -0.169 F 
HETATM   27  F   UNL     1     -10.336   2.773 -32.589  1.00  0.00    -0.169 F 
ENDBRANCH   4  24
BRANCH   6  28
HETATM   28  C   UNL     1      -6.215  -1.661 -33.685  1.00  0.00    -0.035 A 
HETATM   29  C   UNL     1      -7.150  -2.551 -34.240  1.00  0.00     0.009 A 
HETATM   30  C   UNL     1      -6.730  -3.693 -34.923  1.00  0.00     0.001 A 
HETATM   31  C   UNL     1      -5.371  -3.960 -35.066  1.00  0.00     0.000 A 
HETATM   32  C   UNL     1      -4.431  -3.084 -34.528  1.00  0.00     0.001 A 
HETATM   33  C   UNL     1      -4.849  -1.942 -33.841  1.00  0.00     0.009 A 
ENDBRANCH   6  28
TORSDOF 6
ENDMDL
MODEL 4
REMARK VINA RESULT:      -9.0      4.857      8.494
REMARK  6 active torsions:
REMARK  status: ('A' for Active; 'I' for Inactive)
REMARK    1  A    between atoms: O_2  and  C_3 
REMARK    2  A    between atoms: C_6  and  C_7 
REMARK    3  A    between atoms: C_7  and  N_8 
REMARK       I    between atoms: N_8  and  C_9 
REMARK    4  A    between atoms: C_9  and  C_10 
REMARK    5  A    between atoms: C_13  and  C_14 
REMARK    6  A    between atoms: C_19  and  C_20 
ROOT
HETATM    1  C   UNL     1      -6.867   4.408 -33.452  1.00  0.00     0.096 A 
HETATM    2  C   UNL     1      -6.945   3.073 -33.098  1.00  0.00     0.138 A 
HETATM    3  N   UNL     1      -8.283   2.810 -32.904  1.00  0.00    -0.240 N 
HETATM    4  C   UNL     1      -8.812   1.536 -32.447  1.00  0.00     0.221 C 
HETATM    5  C   UNL     1      -7.759   0.423 -32.601  1.00  0.00     0.066 C 
HETATM    6  C   UNL     1      -6.389   0.919 -32.128  1.00  0.00     0.118 C 
HETATM    7  N   UNL     1      -6.009   2.104 -32.906  1.00  0.00    -0.365 N 
HETATM    8  N   UNL     1      -9.053   3.908 -32.950  1.00  0.00    -0.181 NA
HETATM    9  C   UNL     1      -8.200   4.869 -33.316  1.00  0.00     0.160 A 
HETATM   10  H   UNL     1      -5.052   2.399 -32.700  1.00  0.00     0.161 HD
ENDROOT
BRANCH   1  11
HETATM   11  C   UNL     1      -5.715   5.210 -33.813  1.00  0.00     0.257 C 
HETATM   12  N   UNL     1      -4.878   4.634 -34.741  1.00  0.00    -0.352 N 
HETATM   13  H   UNL     1      -5.211   3.815 -35.233  1.00  0.00     0.163 HD
HETATM   14  O   UNL     1      -5.527   6.322 -33.335  1.00  0.00    -0.267 OA
BRANCH  12  15
HETATM   15  C   UNL     1      -3.682   5.292 -35.210  1.00  0.00     0.161 C 
BRANCH  15  16
HETATM   16  C   UNL     1      -2.664   5.487 -34.116  1.00  0.00    -0.040 A 
HETATM   17  C   UNL     1      -2.009   6.714 -33.953  1.00  0.00     0.011 A 
HETATM   18  C   UNL     1      -1.112   6.905 -32.899  1.00  0.00     0.037 A 
HETATM   19  C   UNL     1      -0.867   5.886 -31.978  1.00  0.00     0.068 A 
HETATM   20  C   UNL     1      -1.503   4.656 -32.139  1.00  0.00     0.037 A 
HETATM   21  C   UNL     1      -2.397   4.459 -33.199  1.00  0.00     0.011 A 
BRANCH  19  22
HETATM   22  O   UNL     1       0.010   6.208 -30.978  1.00  0.00    -0.356 OA
HETATM   23  C   UNL     1       0.236   5.211 -29.989  1.00  0.00     0.210 C 
ENDBRANCH  19  22
ENDBRANCH  15  16
ENDBRANCH  12  15
ENDBRANCH   1  11
BRANCH   4  24
HETATM   24  C   UNL     1     -10.073   1.150 -33.189  1.00  0.00     0.409 C 
HETATM   25  F   UNL     1     -11.124   1.936 -32.866  1.00  0.00    -0.169 F 
HETATM   26  F   UNL     1      -9.874   1.301 -34.528  1.00  0.00    -0.169 F 
HETATM   27  F   UNL     1     -10.433  -0.137 -33.012  1.00  0.00    -0.169 F 
ENDBRANCH   4  24
BRANCH   6  28
HETATM   28  C   UNL     1      -5.317  -0.142 -32.271  1.00  0.00    -0.035 A 
HETATM   29  C   UNL     1      -4.191  -0.163 -31.430  1.00  0.00     0.009 A 
HETATM   30  C   UNL     1      -3.206  -1.139 -31.582  1.00  0.00     0.001 A 
HETATM   31  C   UNL     1      -3.332  -2.109 -32.572  1.00  0.00     0.000 A 
HETATM   32  C   UNL     1      -4.446  -2.107 -33.410  1.00  0.00     0.001 A 
HETATM   33  C   UNL     1      -5.432  -1.130 -33.261  1.00  0.00     0.009 A 
ENDBRANCH   6  28
TORSDOF 6
ENDMDL
MODEL 5
REMARK VINA RESULT:      -8.8      4.630      8.095
REMARK  6 active torsions:
REMARK  status: ('A' for Active; 'I' for Inactive)
REMARK    1  A    between atoms: O_2  and  C_3 
REMARK    2  A    between atoms: C_6  and  C_7 
REMARK    3  A    between atoms: C_7  and  N_8 
REMARK       I    between atoms: N_8  and  C_9 
REMARK    4  A    between atoms: C_9  and  C_10 
REMARK    5  A    between atoms: C_13  and  C_14 
REMARK    6  A    between atoms: C_19  and  C_20 
ROOT
HETATM    1  C   UNL     1      -7.436   3.328 -30.811  1.00  0.00     0.096 A 
HETATM    2  C   UNL     1      -7.706   2.225 -31.599  1.00  0.00     0.138 A 
HETATM    3  N   UNL     1      -9.050   2.290 -31.894  1.00  0.00    -0.240 N 
HETATM    4  C   UNL     1      -9.776   1.280 -32.645  1.00  0.00     0.221 C 
HETATM    5  C   UNL     1      -8.801   0.362 -33.405  1.00  0.00     0.066 C 
HETATM    6  C   UNL     1      -7.626  -0.026 -32.503  1.00  0.00     0.118 C 
HETATM    7  N   UNL     1      -6.943   1.191 -32.048  1.00  0.00    -0.365 N 
HETATM    8  N   UNL     1      -9.694   3.260 -31.227  1.00  0.00    -0.181 NA
HETATM    9  C   UNL     1      -8.710   3.910 -30.599  1.00  0.00     0.160 A 
HETATM   10  H   UNL     1      -6.086   0.974 -31.537  1.00  0.00     0.161 HD
ENDROOT
BRANCH   1  11
HETATM   11  C   UNL     1      -6.181   3.787 -30.249  1.00  0.00     0.257 C 
HETATM   12  N   UNL     1      -5.973   5.145 -30.331  1.00  0.00    -0.352 N 
HETATM   13  H   UNL     1      -6.759   5.729 -30.586  1.00  0.00     0.163 HD
HETATM   14  O   UNL     1      -5.386   3.014 -29.727  1.00  0.00    -0.267 OA
BRANCH  12  15
HETATM   15  C   UNL     1      -4.775   5.771 -29.827  1.00  0.00     0.161 C 
BRANCH  15  16
HETATM   16  C   UNL     1      -3.767   6.049 -30.913  1.00  0.00    -0.040 A 
HETATM   17  C   UNL     1      -3.073   5.004 -31.536  1.00  0.00     0.011 A 
HETATM   18  C   UNL     1      -2.187   5.266 -32.583  1.00  0.00     0.037 A 
HETATM   19  C   UNL     1      -1.991   6.569 -33.042  1.00  0.00     0.068 A 
HETATM   20  C   UNL     1      -2.666   7.618 -32.420  1.00  0.00     0.037 A 
HETATM   21  C   UNL     1      -3.550   7.359 -31.364  1.00  0.00     0.011 A 
BRANCH  19  22
HETATM   22  O   UNL     1      -1.120   6.689 -34.089  1.00  0.00    -0.356 OA
HETATM   23  C   UNL     1      -0.998   5.560 -34.945  1.00  0.00     0.210 C 
ENDBRANCH  19  22
ENDBRANCH  15  16
ENDBRANCH  12  15
ENDBRANCH   1  11
BRANCH   4  24
HETATM   24  C   UNL     1     -10.756   1.898 -33.620  1.00  0.00     0.409 C 
HETATM   25  F   UNL     1     -10.255   2.994 -34.232  1.00  0.00    -0.169 F 
HETATM   26  F   UNL     1     -11.039   1.001 -34.605  1.00  0.00    -0.169 F 
HETATM   27  F   UNL     1     -11.940   2.224 -33.064  1.00  0.00    -0.169 F 
ENDBRANCH   4  24
BRANCH   6  28
HETATM   28  C   UNL     1      -6.633  -0.924 -33.213  1.00  0.00    -0.035 A 
HETATM   29  C   UNL     1      -7.054  -1.891 -34.141  1.00  0.00     0.009 A 
HETATM   30  C   UNL     1      -6.130  -2.720 -34.778  1.00  0.00     0.001 A 
HETATM   31  C   UNL     1      -4.772  -2.592 -34.499  1.00  0.00     0.000 A 
HETATM   32  C   UNL     1      -4.336  -1.635 -33.585  1.00  0.00     0.001 A 
HETATM   33  C   UNL     1      -5.260  -0.806 -32.946  1.00  0.00     0.009 A 
ENDBRANCH   6  28
TORSDOF 6
ENDMDL
MODEL 6
REMARK VINA RESULT:      -8.7      2.110      2.742
REMARK  6 active torsions:
REMARK  status: ('A' for Active; 'I' for Inactive)
REMARK    1  A    between atoms: O_2  and  C_3 
REMARK    2  A    between atoms: C_6  and  C_7 
REMARK    3  A    between atoms: C_7  and  N_8 
REMARK       I    between atoms: N_8  and  C_9 
REMARK    4  A    between atoms: C_9  and  C_10 
REMARK    5  A    between atoms: C_13  and  C_14 
REMARK    6  A    between atoms: C_19  and  C_20 
ROOT
HETATM    1  C   UNL     1      -8.200   1.845 -33.076  1.00  0.00     0.096 A 
HETATM    2  C   UNL     1      -7.122   0.981 -33.134  1.00  0.00     0.138 A 
HETATM    3  N   UNL     1      -6.077   1.639 -32.523  1.00  0.00    -0.240 N 
HETATM    4  C   UNL     1      -4.724   1.120 -32.428  1.00  0.00     0.221 C 
HETATM    5  C   UNL     1      -4.698  -0.391 -32.717  1.00  0.00     0.066 C 
HETATM    6  C   UNL     1      -5.578  -0.714 -33.929  1.00  0.00     0.118 C 
HETATM    7  N   UNL     1      -6.948  -0.260 -33.666  1.00  0.00    -0.365 N 
HETATM    8  N   UNL     1      -6.357   2.917 -32.221  1.00  0.00    -0.181 NA
HETATM    9  C   UNL     1      -7.654   3.029 -32.524  1.00  0.00     0.160 A 
HETATM   10  H   UNL     1      -7.592  -0.557 -34.402  1.00  0.00     0.161 HD
ENDROOT
BRANCH   1  11
HETATM   11  C   UNL     1      -9.567   1.660 -33.524  1.00  0.00     0.257 C 
HETATM   12  N   UNL     1     -10.516   2.298 -32.760  1.00  0.00    -0.352 N 
HETATM   13  H   UNL     1     -10.199   2.983 -32.086  1.00  0.00     0.163 HD
HETATM   14  O   UNL     1      -9.837   0.998 -34.519  1.00  0.00    -0.267 OA
BRANCH  12  15
HETATM   15  C   UNL     1     -11.926   2.216 -33.059  1.00  0.00     0.161 C 
BRANCH  15  16
HETATM   16  C   UNL     1     -12.450   3.468 -33.715  1.00  0.00    -0.040 A 
HETATM   17  C   UNL     1     -12.957   4.525 -32.948  1.00  0.00     0.011 A 
HETATM   18  C   UNL     1     -13.384   5.705 -33.561  1.00  0.00     0.037 A 
HETATM   19  C   UNL     1     -13.295   5.862 -34.944  1.00  0.00     0.068 A 
HETATM   20  C   UNL     1     -12.805   4.811 -35.718  1.00  0.00     0.037 A 
HETATM   21  C   UNL     1     -12.384   3.624 -35.107  1.00  0.00     0.011 A 
BRANCH  19  22
HETATM   22  O   UNL     1     -13.720   7.073 -35.418  1.00  0.00    -0.356 OA
HETATM   23  C   UNL     1     -13.486   7.332 -36.796  1.00  0.00     0.210 C 
ENDBRANCH  19  22
ENDBRANCH  15  16
ENDBRANCH  12  15
ENDBRANCH   1  11
BRANCH   4  24
HETATM   24  C   UNL     1      -4.111   1.388 -31.070  1.00  0.00     0.409 C 
HETATM   25  F   UNL     1      -3.113   0.524 -30.774  1.00  0.00    -0.169 F 
HETATM   26  F   UNL     1      -3.559   2.633 -31.060  1.00  0.00    -0.169 F 
HETATM   27  F   UNL     1      -5.003   1.370 -30.059  1.00  0.00    -0.169 F 
ENDBRANCH   4  24
BRANCH   6  28
HETATM   28  C   UNL     1      -5.592  -2.196 -34.247  1.00  0.00    -0.035 A 
HETATM   29  C   UNL     1      -6.758  -2.837 -34.697  1.00  0.00     0.009 A 
HETATM   30  C   UNL     1      -6.759  -4.205 -34.973  1.00  0.00     0.001 A 
HETATM   31  C   UNL     1      -5.595  -4.950 -34.807  1.00  0.00     0.000 A 
HETATM   32  C   UNL     1      -4.428  -4.328 -34.367  1.00  0.00     0.001 A 
HETATM   33  C   UNL     1      -4.426  -2.960 -34.088  1.00  0.00     0.009 A 
ENDBRANCH   6  28
TORSDOF 6
ENDMDL
MODEL 7
REMARK VINA RESULT:      -8.6     15.454     17.783
REMARK  6 active torsions:
REMARK  status: ('A' for Active; 'I' for Inactive)
REMARK    1  A    between atoms: O_2  and  C_3 
REMARK    2  A    between atoms: C_6  and  C_7 
REMARK    3  A    between atoms: C_7  and  N_8 
REMARK       I    between atoms: N_8  and  C_9 
REMARK    4  A    between atoms: C_9  and  C_10 
REMARK    5  A    between atoms: C_13  and  C_14 
REMARK    6  A    between atoms: C_19  and  C_20 
ROOT
HETATM    1  C   UNL     1      -4.851 -13.334 -39.998  1.00  0.00     0.096 A 
HETATM    2  C   UNL     1      -5.857 -13.415 -39.053  1.00  0.00     0.138 A 
HETATM    3  N   UNL     1      -6.931 -12.734 -39.584  1.00  0.00    -0.240 N 
HETATM    4  C   UNL     1      -8.185 -12.508 -38.888  1.00  0.00     0.221 C 
HETATM    5  C   UNL     1      -8.315 -13.452 -37.679  1.00  0.00     0.066 C 
HETATM    6  C   UNL     1      -6.991 -13.515 -36.910  1.00  0.00     0.118 C 
HETATM    7  N   UNL     1      -5.929 -13.972 -37.813  1.00  0.00    -0.365 N 
HETATM    8  N   UNL     1      -6.640 -12.089 -40.724  1.00  0.00    -0.181 NA
HETATM    9  C   UNL     1      -5.391 -12.481 -40.992  1.00  0.00     0.160 A 
HETATM   10  H   UNL     1      -5.054 -14.136 -37.313  1.00  0.00     0.161 HD
ENDROOT
BRANCH   1  11
HETATM   11  C   UNL     1      -3.518 -13.905 -39.991  1.00  0.00     0.257 C 
HETATM   12  N   UNL     1      -2.546 -13.096 -39.448  1.00  0.00    -0.352 N 
HETATM   13  H   UNL     1      -2.845 -12.278 -38.934  1.00  0.00     0.163 HD
HETATM   14  O   UNL     1      -3.295 -15.030 -40.422  1.00  0.00    -0.267 OA
BRANCH  12  15
HETATM   15  C   UNL     1      -1.164 -13.504 -39.366  1.00  0.00     0.161 C 
BRANCH  15  16
HETATM   16  C   UNL     1      -0.841 -14.189 -38.063  1.00  0.00    -0.040 A 
HETATM   17  C   UNL     1      -1.611 -13.956 -36.917  1.00  0.00     0.011 A 
HETATM   18  C   UNL     1      -1.342 -14.641 -35.729  1.00  0.00     0.037 A 
HETATM   19  C   UNL     1      -0.315 -15.583 -35.668  1.00  0.00     0.068 A 
HETATM   20  C   UNL     1       0.467 -15.812 -36.799  1.00  0.00     0.037 A 
HETATM   21  C   UNL     1       0.204 -15.121 -37.988  1.00  0.00     0.011 A 
BRANCH  19  22
HETATM   22  O   UNL     1      -0.171 -16.204 -34.457  1.00  0.00    -0.356 OA
HETATM   23  C   UNL     1      -1.354 -16.370 -33.685  1.00  0.00     0.210 C 
ENDBRANCH  19  22
ENDBRANCH  15  16
ENDBRANCH  12  15
ENDBRANCH   1  11
BRANCH   4  24
HETATM   24  C   UNL     1      -9.378 -12.686 -39.802  1.00  0.00     0.409 C 
HETATM   25  F   UNL     1      -9.222 -13.720 -40.660  1.00  0.00    -0.169 F 
HETATM   26  F   UNL     1     -10.482 -12.967 -39.056  1.00  0.00    -0.169 F 
HETATM   27  F   UNL     1      -9.685 -11.584 -40.515  1.00  0.00    -0.169 F 
ENDBRANCH   4  24
BRANCH   6  28
HETATM   28  C   UNL     1      -7.069 -14.442 -35.714  1.00  0.00    -0.035 A 
HETATM   29  C   UNL     1      -7.049 -13.945 -34.400  1.00  0.00     0.009 A 
HETATM   30  C   UNL     1      -7.108 -14.812 -33.308  1.00  0.00     0.001 A 
HETATM   31  C   UNL     1      -7.191 -16.186 -33.514  1.00  0.00     0.000 A 
HETATM   32  C   UNL     1      -7.218 -16.696 -34.811  1.00  0.00     0.001 A 
HETATM   33  C   UNL     1      -7.157 -15.830 -35.904  1.00  0.00     0.009 A 
ENDBRANCH   6  28
TORSDOF 6
ENDMDL
MODEL 8
REMARK VINA RESULT:      -8.6      4.044      9.323
REMARK  6 active torsions:
REMARK  status: ('A' for Active; 'I' for Inactive)
REMARK    1  A    between atoms: O_2  and  C_3 
REMARK    2  A    between atoms: C_6  and  C_7 
REMARK    3  A    between atoms: C_7  and  N_8 
REMARK       I    between atoms: N_8  and  C_9 
REMARK    4  A    between atoms: C_9  and  C_10 
REMARK    5  A    between atoms: C_13  and  C_14 
REMARK    6  A    between atoms: C_19  and  C_20 
ROOT
HETATM    1  C   UNL     1     -10.123   0.500 -33.030  1.00  0.00     0.096 A 
HETATM    2  C   UNL     1     -11.014   1.365 -33.640  1.00  0.00     0.138 A 
HETATM    3  N   UNL     1     -12.220   0.703 -33.677  1.00  0.00    -0.240 N 
HETATM    4  C   UNL     1     -13.423   1.222 -34.304  1.00  0.00     0.221 C 
HETATM    5  C   UNL     1     -13.299   2.737 -34.550  1.00  0.00     0.066 C 
HETATM    6  C   UNL     1     -11.914   3.070 -35.113  1.00  0.00     0.118 C 
HETATM    7  N   UNL     1     -10.886   2.612 -34.172  1.00  0.00    -0.365 N 
HETATM    8  N   UNL     1     -12.136  -0.578 -33.285  1.00  0.00    -0.181 NA
HETATM    9  C   UNL     1     -10.874  -0.689 -32.860  1.00  0.00     0.160 A 
HETATM   10  H   UNL     1      -9.953   2.916 -34.456  1.00  0.00     0.161 HD
ENDROOT
BRANCH   1  11
HETATM   11  C   UNL     1      -8.727   0.688 -32.690  1.00  0.00     0.257 C 
HETATM   12  N   UNL     1      -7.865   0.688 -33.762  1.00  0.00    -0.352 N 
HETATM   13  H   UNL     1      -8.265   0.754 -34.690  1.00  0.00     0.163 HD
HETATM   14  O   UNL     1      -8.360   0.851 -31.532  1.00  0.00    -0.267 OA
BRANCH  12  15
HETATM   15  C   UNL     1      -6.441   0.857 -33.604  1.00  0.00     0.161 C 
BRANCH  15  16
HETATM   16  C   UNL     1      -5.699  -0.455 -33.617  1.00  0.00    -0.040 A 
HETATM   17  C   UNL     1      -6.094  -1.498 -34.464  1.00  0.00     0.011 A 
HETATM   18  C   UNL     1      -5.364  -2.687 -34.513  1.00  0.00     0.037 A 
HETATM   19  C   UNL     1      -4.216  -2.851 -33.737  1.00  0.00     0.068 A 
HETATM   20  C   UNL     1      -3.821  -1.825 -32.881  1.00  0.00     0.037 A 
HETATM   21  C   UNL     1      -4.556  -0.634 -32.824  1.00  0.00     0.011 A 
BRANCH  19  22
HETATM   22  O   UNL     1      -3.576  -4.050 -33.897  1.00  0.00    -0.356 OA
HETATM   23  C   UNL     1      -4.404  -5.189 -34.093  1.00  0.00     0.210 C 
ENDBRANCH  19  22
ENDBRANCH  15  16
ENDBRANCH  12  15
ENDBRANCH   1  11
BRANCH   4  24
HETATM   24  C   UNL     1     -14.658   0.942 -33.475  1.00  0.00     0.409 C 
HETATM   25  F   UNL     1     -15.802   1.178 -34.156  1.00  0.00    -0.169 F 
HETATM   26  F   UNL     1     -14.681  -0.375 -33.128  1.00  0.00    -0.169 F 
HETATM   27  F   UNL     1     -14.702   1.631 -32.317  1.00  0.00    -0.169 F 
ENDBRANCH   4  24
BRANCH   6  28
HETATM   28  C   UNL     1     -11.741   4.555 -35.363  1.00  0.00    -0.035 A 
HETATM   29  C   UNL     1     -10.473   5.158 -35.342  1.00  0.00     0.009 A 
HETATM   30  C   UNL     1     -10.331   6.529 -35.560  1.00  0.00     0.001 A 
HETATM   31  C   UNL     1     -11.453   7.316 -35.806  1.00  0.00     0.000 A 
HETATM   32  C   UNL     1     -12.718   6.732 -35.836  1.00  0.00     0.001 A 
HETATM   33  C   UNL     1     -12.862   5.361 -35.616  1.00  0.00     0.009 A 
ENDBRANCH   6  28
TORSDOF 6
ENDMDL
MODEL 9
REMARK VINA RESULT:      -8.6      3.114      5.030
REMARK  6 active torsions:
REMARK  status: ('A' for Active; 'I' for Inactive)
REMARK    1  A    between atoms: O_2  and  C_3 
REMARK    2  A    between atoms: C_6  and  C_7 
REMARK    3  A    between atoms: C_7  and  N_8 
REMARK       I    between atoms: N_8  and  C_9 
REMARK    4  A    between atoms: C_9  and  C_10 
REMARK    5  A    between atoms: C_13  and  C_14 
REMARK    6  A    between atoms: C_19  and  C_20 
ROOT
HETATM    1  C   UNL     1      -7.431   1.922 -33.091  1.00  0.00     0.096 A 
HETATM    2  C   UNL     1      -6.071   2.082 -32.894  1.00  0.00     0.138 A 
HETATM    3  N   UNL     1      -5.609   0.867 -32.438  1.00  0.00    -0.240 N 
HETATM    4  C   UNL     1      -4.238   0.610 -32.033  1.00  0.00     0.221 C 
HETATM    5  C   UNL     1      -3.300   1.714 -32.553  1.00  0.00     0.066 C 
HETATM    6  C   UNL     1      -3.935   3.092 -32.342  1.00  0.00     0.118 C 
HETATM    7  N   UNL     1      -5.227   3.140 -33.036  1.00  0.00    -0.365 N 
HETATM    8  N   UNL     1      -6.590  -0.011 -32.176  1.00  0.00    -0.181 NA
HETATM    9  C   UNL     1      -7.689   0.616 -32.605  1.00  0.00     0.160 A 
HETATM   10  H   UNL     1      -5.631   4.078 -33.015  1.00  0.00     0.161 HD
ENDROOT
BRANCH   1  11
HETATM   11  C   UNL     1      -8.415   2.856 -33.601  1.00  0.00     0.257 C 
HETATM   12  N   UNL     1      -9.384   2.295 -34.400  1.00  0.00    -0.352 N 
HETATM   13  H   UNL     1      -9.459   1.286 -34.415  1.00  0.00     0.163 HD
HETATM   14  O   UNL     1      -8.382   4.048 -33.318  1.00  0.00    -0.267 OA
BRANCH  12  15
HETATM   15  C   UNL     1     -10.438   3.080 -34.996  1.00  0.00     0.161 C 
BRANCH  15  16
HETATM   16  C   UNL     1     -11.802   2.711 -34.470  1.00  0.00    -0.040 A 
HETATM   17  C   UNL     1     -12.507   1.623 -34.999  1.00  0.00     0.011 A 
HETATM   18  C   UNL     1     -13.743   1.251 -34.465  1.00  0.00     0.037 A 
HETATM   19  C   UNL     1     -14.288   1.941 -33.381  1.00  0.00     0.068 A 
HETATM   20  C   UNL     1     -13.600   3.034 -32.855  1.00  0.00     0.037 A 
HETATM   21  C   UNL     1     -12.365   3.414 -33.395  1.00  0.00     0.011 A 
BRANCH  19  22
HETATM   22  O   UNL     1     -15.488   1.462 -32.934  1.00  0.00    -0.356 OA
HETATM   23  C   UNL     1     -16.259   2.341 -32.124  1.00  0.00     0.210 C 
ENDBRANCH  19  22
ENDBRANCH  15  16
ENDBRANCH  12  15
ENDBRANCH   1  11
BRANCH   4  24
HETATM   24  C   UNL     1      -3.750  -0.740 -32.515  1.00  0.00     0.409 C 
HETATM   25  F   UNL     1      -2.409  -0.872 -32.408  1.00  0.00    -0.169 F 
HETATM   26  F   UNL     1      -4.298  -1.720 -31.744  1.00  0.00    -0.169 F 
HETATM   27  F   UNL     1      -4.107  -1.024 -33.784  1.00  0.00    -0.169 F 
ENDBRANCH   4  24
BRANCH   6  28
HETATM   28  C   UNL     1      -3.050   4.212 -32.850  1.00  0.00    -0.035 A 
HETATM   29  C   UNL     1      -1.862   4.565 -32.187  1.00  0.00     0.009 A 
HETATM   30  C   UNL     1      -1.064   5.607 -32.658  1.00  0.00     0.001 A 
HETATM   31  C   UNL     1      -1.438   6.310 -33.800  1.00  0.00     0.000 A 
HETATM   32  C   UNL     1      -2.610   5.970 -34.474  1.00  0.00     0.001 A 
HETATM   33  C   UNL     1      -3.411   4.928 -34.002  1.00  0.00     0.009 A 
ENDBRANCH   6  28
TORSDOF 6
ENDMDL
MODEL 10
REMARK VINA RESULT:      -8.4      4.299      8.005
REMARK  6 active torsions:
REMARK  status: ('A' for Active; 'I' for Inactive)
REMARK    1  A    between atoms: O_2  and  C_3 
REMARK    2  A    between atoms: C_6  and  C_7 
REMARK    3  A    between atoms: C_7  and  N_8 
REMARK       I    between atoms: N_8  and  C_9 
REMARK    4  A    between atoms: C_9  and  C_10 
REMARK    5  A    between atoms: C_13  and  C_14 
REMARK    6  A    between atoms: C_19  and  C_20 
ROOT
HETATM    1  C   UNL     1      -9.895   4.021 -31.163  1.00  0.00     0.096 A 
HETATM    2  C   UNL     1      -9.796   2.925 -32.000  1.00  0.00     0.138 A 
HETATM    3  N   UNL     1     -11.010   2.828 -32.643  1.00  0.00    -0.240 N 
HETATM    4  C   UNL     1     -11.368   1.764 -33.565  1.00  0.00     0.221 C 
HETATM    5  C   UNL     1     -10.113   1.010 -34.040  1.00  0.00     0.066 C 
HETATM    6  C   UNL     1      -9.176   0.741 -32.859  1.00  0.00     0.118 C 
HETATM    7  N   UNL     1      -8.809   2.017 -32.233  1.00  0.00    -0.365 N 
HETATM    8  N   UNL     1     -11.932   3.679 -32.168  1.00  0.00    -0.181 NA
HETATM    9  C   UNL     1     -11.246   4.425 -31.297  1.00  0.00     0.160 A 
HETATM   10  H   UNL     1      -8.095   1.892 -31.512  1.00  0.00     0.161 HD
ENDROOT
BRANCH   1  11
HETATM   11  C   UNL     1      -8.906   4.616 -30.285  1.00  0.00     0.257 C 
HETATM   12  N   UNL     1      -7.645   4.077 -30.387  1.00  0.00    -0.352 N 
HETATM   13  H   UNL     1      -7.453   3.467 -31.172  1.00  0.00     0.163 HD
HETATM   14  O   UNL     1      -9.186   5.538 -29.528  1.00  0.00    -0.267 OA
BRANCH  12  15
HETATM   15  C   UNL     1      -6.542   4.545 -29.583  1.00  0.00     0.161 C 
BRANCH  15  16
HETATM   16  C   UNL     1      -5.228   4.498 -30.321  1.00  0.00    -0.040 A 
HETATM   17  C   UNL     1      -4.422   5.639 -30.428  1.00  0.00     0.011 A 
HETATM   18  C   UNL     1      -3.178   5.571 -31.061  1.00  0.00     0.037 A 
HETATM   19  C   UNL     1      -2.707   4.364 -31.578  1.00  0.00     0.068 A 
HETATM   20  C   UNL     1      -3.507   3.227 -31.488  1.00  0.00     0.037 A 
HETATM   21  C   UNL     1      -4.758   3.293 -30.862  1.00  0.00     0.011 A 
BRANCH  19  22
HETATM   22  O   UNL     1      -1.464   4.425 -32.148  1.00  0.00    -0.356 OA
HETATM   23  C   UNL     1      -1.349   5.198 -33.336  1.00  0.00     0.210 C 
ENDBRANCH  19  22
ENDBRANCH  15  16
ENDBRANCH  12  15
ENDBRANCH   1  11
BRANCH   4  24
HETATM   24  C   UNL     1     -12.130   2.288 -34.763  1.00  0.00     0.409 C 
HETATM   25  F   UNL     1     -11.544   3.375 -35.313  1.00  0.00    -0.169 F 
HETATM   26  F   UNL     1     -12.160   1.333 -35.733  1.00  0.00    -0.169 F 
HETATM   27  F   UNL     1     -13.418   2.587 -34.498  1.00  0.00    -0.169 F 
ENDBRANCH   4  24
BRANCH   6  28
HETATM   28  C   UNL     1      -7.919   0.008 -33.281  1.00  0.00    -0.035 A 
HETATM   29  C   UNL     1      -7.759  -0.475 -34.591  1.00  0.00     0.009 A 
HETATM   30  C   UNL     1      -6.602  -1.160 -34.963  1.00  0.00     0.001 A 
HETATM   31  C   UNL     1      -5.587  -1.369 -34.033  1.00  0.00     0.000 A 
HETATM   32  C   UNL     1      -5.727  -0.892 -32.731  1.00  0.00     0.001 A 
HETATM   33  C   UNL     1      -6.885  -0.208 -32.357  1.00  0.00     0.009 A 
ENDBRANCH   6  28
TORSDOF 6
ENDMDL
