MODEL 1
REMARK VINA RESULT:      -8.4      0.000      0.000
REMARK  5 active torsions:
REMARK  status: ('A' for Active; 'I' for Inactive)
REMARK    1  A    between atoms: C_8  and  N_9 
REMARK       I    between atoms: N_9  and  C_10 
REMARK       I    between atoms: C_10  and  N_11 
REMARK    2  A    between atoms: N_11  and  C_12 
REMARK    3  A    between atoms: C_13  and  O_14 
REMARK    4  A    between atoms: O_14  and  C_15 
REMARK    5  A    between atoms: C_15  and  C_16 
ROOT
HETATM    1  N   UNL     1     -10.310   1.184 -34.636  1.00  0.00    -0.305 N 
HETATM    2  C   UNL     1      -9.514   0.866 -33.551  1.00  0.00     0.325 C 
HETATM    3  N   UNL     1      -8.359   0.235 -33.975  1.00  0.00    -0.306 N 
HETATM    4  O   UNL     1      -9.782   1.115 -32.382  1.00  0.00    -0.247 OA
HETATM    5  H   UNL     1      -9.813   1.400 -35.487  1.00  0.00     0.171 HD
HETATM    6  H   UNL     1      -8.436  -0.294 -34.835  1.00  0.00     0.171 HD
ENDROOT
BRANCH   3   7
HETATM    7  C   UNL     1      -7.214  -0.036 -33.196  1.00  0.00     0.070 A 
HETATM    8  C   UNL     1      -6.380  -1.093 -33.601  1.00  0.00     0.098 A 
HETATM    9  C   UNL     1      -5.194  -1.372 -32.924  1.00  0.00     0.081 A 
HETATM   10  C   UNL     1      -4.858  -0.606 -31.815  1.00  0.00     0.119 A 
HETATM   11  F   UNL     1      -3.723  -0.868 -31.155  1.00  0.00    -0.206 F 
HETATM   12  C   UNL     1      -5.680   0.429 -31.381  1.00  0.00     0.044 A 
HETATM   13  C   UNL     1      -6.859   0.718 -32.074  1.00  0.00     0.035 A 
BRANCH   8  14
HETATM   14  O   UNL     1      -6.754  -1.833 -34.697  1.00  0.00    -0.340 OA
BRANCH  14  15
HETATM   15  C   UNL     1      -5.804  -2.886 -34.958  1.00  0.00     0.293 C 
BRANCH  15  16
HETATM   16  C   UNL     1      -6.481  -4.241 -34.838  1.00  0.00     0.408 C 
HETATM   17  F   UNL     1      -7.578  -4.174 -34.049  1.00  0.00    -0.169 F 
HETATM   18  F   UNL     1      -6.866  -4.715 -36.043  1.00  0.00    -0.169 F 
HETATM   19  F   UNL     1      -5.640  -5.150 -34.292  1.00  0.00    -0.169 F 
ENDBRANCH  15  16
ENDBRANCH  14  15
ENDBRANCH   8  14
ENDBRANCH   3   7
BRANCH   1  20
HETATM   20  C   UNL     1     -11.617   1.633 -34.557  1.00  0.00     0.086 A 
HETATM   21  C   UNL     1     -12.006   2.887 -34.983  1.00  0.00     0.052 A 
HETATM   22  C   UNL     1     -11.256   4.033 -35.543  1.00  0.00     0.072 C 
HETATM   23  N   UNL     1     -13.352   2.953 -34.750  1.00  0.00    -0.280 N 
HETATM   24  H   UNL     1     -13.979   3.732 -34.919  1.00  0.00     0.189 HD
HETATM   25  N   UNL     1     -13.872   1.829 -34.246  1.00  0.00    -0.177 NA
HETATM   26  C   UNL     1     -12.820   1.005 -34.124  1.00  0.00     0.079 A 
HETATM   27  C   UNL     1     -13.052  -0.382 -33.649  1.00  0.00     0.075 C 
ENDBRANCH   1  20
TORSDOF 5
ENDMDL
MODEL 2
REMARK VINA RESULT:      -8.2      3.174      5.373
REMARK  5 active torsions:
REMARK  status: ('A' for Active; 'I' for Inactive)
REMARK    1  A    between atoms: C_8  and  N_9 
REMARK       I    between atoms: N_9  and  C_10 
REMARK       I    between atoms: C_10  and  N_11 
REMARK    2  A    between atoms: N_11  and  C_12 
REMARK    3  A    between atoms: C_13  and  O_14 
REMARK    4  A    between atoms: O_14  and  C_15 
REMARK    5  A    between atoms: C_15  and  C_16 
ROOT
HETATM    1  N   UNL     1      -6.573   1.659 -32.731  1.00  0.00    -0.305 N 
HETATM    2  C   UNL     1      -6.645   0.279 -32.715  1.00  0.00     0.325 C 
HETATM    3  N   UNL     1      -6.199  -0.236 -33.919  1.00  0.00    -0.306 N 
HETATM    4  O   UNL     1      -7.035  -0.397 -31.772  1.00  0.00    -0.247 OA
HETATM    5  H   UNL     1      -5.821   2.047 -33.281  1.00  0.00     0.171 HD
HETATM    6  H   UNL     1      -6.326   0.360 -34.727  1.00  0.00     0.171 HD
ENDROOT
BRANCH   3   7
HETATM    7  C   UNL     1      -5.911  -1.588 -34.201  1.00  0.00     0.070 A 
HETATM    8  C   UNL     1      -4.609  -2.049 -33.941  1.00  0.00     0.098 A 
HETATM    9  C   UNL     1      -4.271  -3.389 -34.126  1.00  0.00     0.081 A 
HETATM   10  C   UNL     1      -5.238  -4.265 -34.605  1.00  0.00     0.119 A 
HETATM   11  F   UNL     1      -4.923  -5.553 -34.790  1.00  0.00    -0.206 F 
HETATM   12  C   UNL     1      -6.525  -3.826 -34.893  1.00  0.00     0.044 A 
HETATM   13  C   UNL     1      -6.866  -2.485 -34.687  1.00  0.00     0.035 A 
BRANCH   8  14
HETATM   14  O   UNL     1      -3.680  -1.148 -33.478  1.00  0.00    -0.340 OA
BRANCH  14  15
HETATM   15  C   UNL     1      -3.353  -1.407 -32.098  1.00  0.00     0.293 C 
BRANCH  15  16
HETATM   16  C   UNL     1      -3.210  -0.096 -31.341  1.00  0.00     0.408 C 
HETATM   17  F   UNL     1      -3.278   0.964 -32.179  1.00  0.00    -0.169 F 
HETATM   18  F   UNL     1      -4.177   0.049 -30.409  1.00  0.00    -0.169 F 
HETATM   19  F   UNL     1      -2.018  -0.039 -30.705  1.00  0.00    -0.169 F 
ENDBRANCH  15  16
ENDBRANCH  14  15
ENDBRANCH   8  14
ENDBRANCH   3   7
BRANCH   1  20
HETATM   20  C   UNL     1      -7.127   2.494 -31.775  1.00  0.00     0.086 A 
HETATM   21  C   UNL     1      -6.367   3.214 -30.876  1.00  0.00     0.052 A 
HETATM   22  C   UNL     1      -4.909   3.289 -30.631  1.00  0.00     0.072 C 
HETATM   23  N   UNL     1      -7.262   3.911 -30.113  1.00  0.00    -0.280 N 
HETATM   24  H   UNL     1      -7.071   4.534 -29.336  1.00  0.00     0.189 HD
HETATM   25  N   UNL     1      -8.538   3.732 -30.472  1.00  0.00    -0.177 NA
HETATM   26  C   UNL     1      -8.473   2.866 -31.495  1.00  0.00     0.079 A 
HETATM   27  C   UNL     1      -9.729   2.493 -32.193  1.00  0.00     0.075 C 
ENDBRANCH   1  20
TORSDOF 5
ENDMDL
MODEL 3
REMARK VINA RESULT:      -7.9      2.161      3.919
REMARK  5 active torsions:
REMARK  status: ('A' for Active; 'I' for Inactive)
REMARK    1  A    between atoms: C_8  and  N_9 
REMARK       I    between atoms: N_9  and  C_10 
REMARK       I    between atoms: C_10  and  N_11 
REMARK    2  A    between atoms: N_11  and  C_12 
REMARK    3  A    between atoms: C_13  and  O_14 
REMARK    4  A    between atoms: O_14  and  C_15 
REMARK    5  A    between atoms: C_15  and  C_16 
ROOT
HETATM    1  N   UNL     1      -9.276   1.987 -33.806  1.00  0.00    -0.305 N 
HETATM    2  C   UNL     1      -8.709   0.739 -33.624  1.00  0.00     0.325 C 
HETATM    3  N   UNL     1      -7.567   0.617 -34.395  1.00  0.00    -0.306 N 
HETATM    4  O   UNL     1      -9.143  -0.131 -32.881  1.00  0.00    -0.247 OA
HETATM    5  H   UNL     1      -8.625   2.734 -33.996  1.00  0.00     0.171 HD
HETATM    6  H   UNL     1      -7.551   1.162 -35.248  1.00  0.00     0.171 HD
ENDROOT
BRANCH   3   7
HETATM    7  C   UNL     1      -6.601  -0.407 -34.311  1.00  0.00     0.070 A 
HETATM    8  C   UNL     1      -5.498  -0.201 -33.464  1.00  0.00     0.098 A 
HETATM    9  C   UNL     1      -4.541  -1.197 -33.275  1.00  0.00     0.081 A 
HETATM   10  C   UNL     1      -4.676  -2.396 -33.963  1.00  0.00     0.119 A 
HETATM   11  F   UNL     1      -3.760  -3.358 -33.791  1.00  0.00    -0.206 F 
HETATM   12  C   UNL     1      -5.745  -2.614 -34.824  1.00  0.00     0.044 A 
HETATM   13  C   UNL     1      -6.713  -1.620 -34.997  1.00  0.00     0.035 A 
BRANCH   8  14
HETATM   14  O   UNL     1      -5.397   1.004 -32.810  1.00  0.00    -0.340 OA
BRANCH  14  15
HETATM   15  C   UNL     1      -4.948   0.818 -31.453  1.00  0.00     0.293 C 
BRANCH  15  16
HETATM   16  C   UNL     1      -6.142   0.659 -30.525  1.00  0.00     0.408 C 
HETATM   17  F   UNL     1      -6.667  -0.585 -30.610  1.00  0.00    -0.169 F 
HETATM   18  F   UNL     1      -5.805   0.880 -29.236  1.00  0.00    -0.169 F 
HETATM   19  F   UNL     1      -7.119   1.537 -30.848  1.00  0.00    -0.169 F 
ENDBRANCH  15  16
ENDBRANCH  14  15
ENDBRANCH   8  14
ENDBRANCH   3   7
BRANCH   1  20
HETATM   20  C   UNL     1     -10.527   2.365 -33.349  1.00  0.00     0.086 A 
HETATM   21  C   UNL     1     -10.716   3.075 -32.180  1.00  0.00     0.052 A 
HETATM   22  C   UNL     1      -9.782   3.562 -31.142  1.00  0.00     0.072 C 
HETATM   23  N   UNL     1     -12.067   3.258 -32.076  1.00  0.00    -0.280 N 
HETATM   24  H   UNL     1     -12.581   3.722 -31.335  1.00  0.00     0.189 HD
HETATM   25  N   UNL     1     -12.764   2.760 -33.103  1.00  0.00    -0.177 NA
HETATM   26  C   UNL     1     -11.833   2.210 -33.897  1.00  0.00     0.079 A 
HETATM   27  C   UNL     1     -12.259   1.614 -35.188  1.00  0.00     0.075 C 
ENDBRANCH   1  20
TORSDOF 5
ENDMDL
MODEL 4
REMARK VINA RESULT:      -7.9      2.011      2.740
REMARK  5 active torsions:
REMARK  status: ('A' for Active; 'I' for Inactive)
REMARK    1  A    between atoms: C_8  and  N_9 
REMARK       I    between atoms: N_9  and  C_10 
REMARK       I    between atoms: C_10  and  N_11 
REMARK    2  A    between atoms: N_11  and  C_12 
REMARK    3  A    between atoms: C_13  and  O_14 
REMARK    4  A    between atoms: O_14  and  C_15 
REMARK    5  A    between atoms: C_15  and  C_16 
ROOT
HETATM    1  N   UNL     1      -8.152   2.144 -32.932  1.00  0.00    -0.305 N 
HETATM    2  C   UNL     1      -7.465   1.126 -32.297  1.00  0.00     0.325 C 
HETATM    3  N   UNL     1      -6.382   0.732 -33.061  1.00  0.00    -0.306 N 
HETATM    4  O   UNL     1      -7.760   0.647 -31.209  1.00  0.00    -0.247 OA
HETATM    5  H   UNL     1      -7.586   2.762 -33.494  1.00  0.00     0.171 HD
HETATM    6  H   UNL     1      -6.481   0.852 -34.061  1.00  0.00     0.171 HD
ENDROOT
BRANCH   3   7
HETATM    7  C   UNL     1      -5.326  -0.110 -32.652  1.00  0.00     0.070 A 
HETATM    8  C   UNL     1      -5.244  -1.388 -33.231  1.00  0.00     0.098 A 
HETATM    9  C   UNL     1      -4.187  -2.247 -32.931  1.00  0.00     0.081 A 
HETATM   10  C   UNL     1      -3.224  -1.832 -32.020  1.00  0.00     0.119 A 
HETATM   11  F   UNL     1      -2.208  -2.651 -31.721  1.00  0.00    -0.206 F 
HETATM   12  C   UNL     1      -3.298  -0.582 -31.415  1.00  0.00     0.044 A 
HETATM   13  C   UNL     1      -4.348   0.284 -31.734  1.00  0.00     0.035 A 
BRANCH   8  14
HETATM   14  O   UNL     1      -6.223  -1.763 -34.120  1.00  0.00    -0.340 OA
BRANCH  14  15
HETATM   15  C   UNL     1      -5.738  -2.776 -35.025  1.00  0.00     0.293 C 
BRANCH  15  16
HETATM   16  C   UNL     1      -6.511  -4.069 -34.822  1.00  0.00     0.408 C 
HETATM   17  F   UNL     1      -7.584  -3.879 -34.021  1.00  0.00    -0.169 F 
HETATM   18  F   UNL     1      -6.953  -4.575 -35.994  1.00  0.00    -0.169 F 
HETATM   19  F   UNL     1      -5.728  -5.008 -34.242  1.00  0.00    -0.169 F 
ENDBRANCH  15  16
ENDBRANCH  14  15
ENDBRANCH   8  14
ENDBRANCH   3   7
BRANCH   1  20
HETATM   20  C   UNL     1      -9.391   2.626 -32.547  1.00  0.00     0.086 A 
HETATM   21  C   UNL     1     -10.575   2.175 -33.095  1.00  0.00     0.052 A 
HETATM   22  C   UNL     1     -10.876   1.197 -34.165  1.00  0.00     0.072 C 
HETATM   23  N   UNL     1     -11.564   2.876 -32.462  1.00  0.00    -0.280 N 
HETATM   24  H   UNL     1     -12.565   2.826 -32.618  1.00  0.00     0.189 HD
HETATM   25  N   UNL     1     -11.118   3.715 -31.521  1.00  0.00    -0.177 NA
HETATM   26  C   UNL     1      -9.785   3.572 -31.557  1.00  0.00     0.079 A 
HETATM   27  C   UNL     1      -8.960   4.319 -30.574  1.00  0.00     0.075 C 
ENDBRANCH   1  20
TORSDOF 5
ENDMDL
MODEL 5
REMARK VINA RESULT:      -7.9      2.319      4.375
REMARK  5 active torsions:
REMARK  status: ('A' for Active; 'I' for Inactive)
REMARK    1  A    between atoms: C_8  and  N_9 
REMARK       I    between atoms: N_9  and  C_10 
REMARK       I    between atoms: C_10  and  N_11 
REMARK    2  A    between atoms: N_11  and  C_12 
REMARK    3  A    between atoms: C_13  and  O_14 
REMARK    4  A    between atoms: O_14  and  C_15 
REMARK    5  A    between atoms: C_15  and  C_16 
ROOT
HETATM    1  N   UNL     1      -7.647   1.081 -34.609  1.00  0.00    -0.305 N 
HETATM    2  C   UNL     1      -7.349  -0.147 -34.049  1.00  0.00     0.325 C 
HETATM    3  N   UNL     1      -6.761  -0.971 -34.991  1.00  0.00    -0.306 N 
HETATM    4  O   UNL     1      -7.560  -0.461 -32.885  1.00  0.00    -0.247 OA
HETATM    5  H   UNL     1      -7.017   1.391 -35.333  1.00  0.00     0.171 HD
HETATM    6  H   UNL     1      -7.028  -0.802 -35.952  1.00  0.00     0.171 HD
ENDROOT
BRANCH   3   7
HETATM    7  C   UNL     1      -6.118  -2.203 -34.747  1.00  0.00     0.070 A 
HETATM    8  C   UNL     1      -4.830  -2.170 -34.185  1.00  0.00     0.098 A 
HETATM    9  C   UNL     1      -4.163  -3.348 -33.848  1.00  0.00     0.081 A 
HETATM   10  C   UNL     1      -4.779  -4.565 -34.108  1.00  0.00     0.119 A 
HETATM   11  F   UNL     1      -4.146  -5.702 -33.793  1.00  0.00    -0.206 F 
HETATM   12  C   UNL     1      -6.042  -4.623 -34.686  1.00  0.00     0.044 A 
HETATM   13  C   UNL     1      -6.716  -3.439 -35.004  1.00  0.00     0.035 A 
BRANCH   8  14
HETATM   14  O   UNL     1      -4.251  -0.945 -33.954  1.00  0.00    -0.340 OA
BRANCH  14  15
HETATM   15  C   UNL     1      -3.528  -0.942 -32.706  1.00  0.00     0.293 C 
BRANCH  15  16
HETATM   16  C   UNL     1      -4.153   0.054 -31.743  1.00  0.00     0.408 C 
HETATM   17  F   UNL     1      -4.697   1.101 -32.405  1.00  0.00    -0.169 F 
HETATM   18  F   UNL     1      -5.125  -0.515 -30.998  1.00  0.00    -0.169 F 
HETATM   19  F   UNL     1      -3.223   0.546 -30.893  1.00  0.00    -0.169 F 
ENDBRANCH  15  16
ENDBRANCH  14  15
ENDBRANCH   8  14
ENDBRANCH   3   7
BRANCH   1  20
HETATM   20  C   UNL     1      -8.421   2.061 -34.010  1.00  0.00     0.086 A 
HETATM   21  C   UNL     1      -7.930   3.310 -33.685  1.00  0.00     0.052 A 
HETATM   22  C   UNL     1      -6.588   3.921 -33.805  1.00  0.00     0.072 C 
HETATM   23  N   UNL     1      -8.981   3.983 -33.125  1.00  0.00    -0.280 N 
HETATM   24  H   UNL     1      -8.991   4.924 -32.747  1.00  0.00     0.189 HD
HETATM   25  N   UNL     1     -10.121   3.285 -33.098  1.00  0.00    -0.177 NA
HETATM   26  C   UNL     1      -9.796   2.102 -33.641  1.00  0.00     0.079 A 
HETATM   27  C   UNL     1     -10.864   1.089 -33.834  1.00  0.00     0.075 C 
ENDBRANCH   1  20
TORSDOF 5
ENDMDL
MODEL 6
REMARK VINA RESULT:      -7.9     13.259     14.341
REMARK  5 active torsions:
REMARK  status: ('A' for Active; 'I' for Inactive)
REMARK    1  A    between atoms: C_8  and  N_9 
REMARK       I    between atoms: N_9  and  C_10 
REMARK       I    between atoms: C_10  and  N_11 
REMARK    2  A    between atoms: N_11  and  C_12 
REMARK    3  A    between atoms: C_13  and  O_14 
REMARK    4  A    between atoms: O_14  and  C_15 
REMARK    5  A    between atoms: C_15  and  C_16 
ROOT
HETATM    1  N   UNL     1      -8.593 -13.188 -38.735  1.00  0.00    -0.305 N 
HETATM    2  C   UNL     1      -7.250 -13.403 -38.983  1.00  0.00     0.325 C 
HETATM    3  N   UNL     1      -6.479 -12.621 -38.144  1.00  0.00    -0.306 N 
HETATM    4  O   UNL     1      -6.803 -14.181 -39.816  1.00  0.00    -0.247 OA
HETATM    5  H   UNL     1      -8.826 -12.964 -37.779  1.00  0.00     0.171 HD
HETATM    6  H   UNL     1      -6.899 -11.750 -37.844  1.00  0.00     0.171 HD
ENDROOT
BRANCH   3   7
HETATM    7  C   UNL     1      -5.087 -12.725 -37.941  1.00  0.00     0.070 A 
HETATM    8  C   UNL     1      -4.636 -13.558 -36.901  1.00  0.00     0.098 A 
HETATM    9  C   UNL     1      -3.274 -13.767 -36.688  1.00  0.00     0.081 A 
HETATM   10  C   UNL     1      -2.359 -13.112 -37.501  1.00  0.00     0.119 A 
HETATM   11  F   UNL     1      -1.049 -13.302 -37.302  1.00  0.00    -0.206 F 
HETATM   12  C   UNL     1      -2.780 -12.264 -38.519  1.00  0.00     0.044 A 
HETATM   13  C   UNL     1      -4.147 -12.072 -38.743  1.00  0.00     0.035 A 
BRANCH   8  14
HETATM   14  O   UNL     1      -5.575 -14.180 -36.113  1.00  0.00    -0.340 OA
BRANCH  14  15
HETATM   15  C   UNL     1      -5.579 -13.626 -34.782  1.00  0.00     0.293 C 
BRANCH  15  16
HETATM   16  C   UNL     1      -7.004 -13.325 -34.347  1.00  0.00     0.408 C 
HETATM   17  F   UNL     1      -7.849 -13.322 -35.403  1.00  0.00    -0.169 F 
HETATM   18  F   UNL     1      -7.457 -14.234 -33.457  1.00  0.00    -0.169 F 
HETATM   19  F   UNL     1      -7.079 -12.108 -33.760  1.00  0.00    -0.169 F 
ENDBRANCH  15  16
ENDBRANCH  14  15
ENDBRANCH   8  14
ENDBRANCH   3   7
BRANCH   1  20
HETATM   20  C   UNL     1      -9.631 -13.650 -39.527  1.00  0.00     0.086 A 
HETATM   21  C   UNL     1     -10.429 -12.813 -40.282  1.00  0.00     0.052 A 
HETATM   22  C   UNL     1     -10.470 -11.342 -40.439  1.00  0.00     0.072 C 
HETATM   23  N   UNL     1     -11.321 -13.631 -40.918  1.00  0.00    -0.280 N 
HETATM   24  H   UNL     1     -12.074 -13.368 -41.544  1.00  0.00     0.189 HD
HETATM   25  N   UNL     1     -11.139 -14.932 -40.668  1.00  0.00    -0.177 NA
HETATM   26  C   UNL     1     -10.103 -14.962 -39.817  1.00  0.00     0.079 A 
HETATM   27  C   UNL     1      -9.579 -16.280 -39.378  1.00  0.00     0.075 C 
ENDBRANCH   1  20
TORSDOF 5
ENDMDL
MODEL 7
REMARK VINA RESULT:      -7.8      1.173      1.986
REMARK  5 active torsions:
REMARK  status: ('A' for Active; 'I' for Inactive)
REMARK    1  A    between atoms: C_8  and  N_9 
REMARK       I    between atoms: N_9  and  C_10 
REMARK       I    between atoms: C_10  and  N_11 
REMARK    2  A    between atoms: N_11  and  C_12 
REMARK    3  A    between atoms: C_13  and  O_14 
REMARK    4  A    between atoms: O_14  and  C_15 
REMARK    5  A    between atoms: C_15  and  C_16 
ROOT
HETATM    1  N   UNL     1     -10.392   0.758 -32.908  1.00  0.00    -0.305 N 
HETATM    2  C   UNL     1      -9.076   0.992 -33.259  1.00  0.00     0.325 C 
HETATM    3  N   UNL     1      -8.226   0.380 -32.356  1.00  0.00    -0.306 N 
HETATM    4  O   UNL     1      -8.709   1.637 -34.233  1.00  0.00    -0.247 OA
HETATM    5  H   UNL     1     -10.569  -0.127 -32.458  1.00  0.00     0.171 HD
HETATM    6  H   UNL     1      -8.584   0.275 -31.415  1.00  0.00     0.171 HD
ENDROOT
BRANCH   3   7
HETATM    7  C   UNL     1      -6.834   0.202 -32.499  1.00  0.00     0.070 A 
HETATM    8  C   UNL     1      -6.387  -0.890 -33.264  1.00  0.00     0.098 A 
HETATM    9  C   UNL     1      -5.029  -1.087 -33.510  1.00  0.00     0.081 A 
HETATM   10  C   UNL     1      -4.112  -0.203 -32.957  1.00  0.00     0.119 A 
HETATM   11  F   UNL     1      -2.805  -0.386 -33.183  1.00  0.00    -0.206 F 
HETATM   12  C   UNL     1      -4.528   0.870 -32.177  1.00  0.00     0.044 A 
HETATM   13  C   UNL     1      -5.892   1.076 -31.949  1.00  0.00     0.035 A 
BRANCH   8  14
HETATM   14  O   UNL     1      -7.327  -1.748 -33.784  1.00  0.00    -0.340 OA
BRANCH  14  15
HETATM   15  C   UNL     1      -6.817  -2.428 -34.949  1.00  0.00     0.293 C 
BRANCH  15  16
HETATM   16  C   UNL     1      -6.847  -3.932 -34.729  1.00  0.00     0.408 C 
HETATM   17  F   UNL     1      -7.806  -4.279 -33.840  1.00  0.00    -0.169 F 
HETATM   18  F   UNL     1      -7.086  -4.599 -35.878  1.00  0.00    -0.169 F 
HETATM   19  F   UNL     1      -5.662  -4.368 -34.243  1.00  0.00    -0.169 F 
ENDBRANCH  15  16
ENDBRANCH  14  15
ENDBRANCH   8  14
ENDBRANCH   3   7
BRANCH   1  20
HETATM   20  C   UNL     1     -11.488   1.389 -33.472  1.00  0.00     0.086 A 
HETATM   21  C   UNL     1     -12.659   0.727 -33.780  1.00  0.00     0.052 A 
HETATM   22  C   UNL     1     -13.065  -0.693 -33.673  1.00  0.00     0.072 C 
HETATM   23  N   UNL     1     -13.492   1.676 -34.305  1.00  0.00    -0.280 N 
HETATM   24  H   UNL     1     -14.433   1.555 -34.663  1.00  0.00     0.189 HD
HETATM   25  N   UNL     1     -12.969   2.907 -34.324  1.00  0.00    -0.177 NA
HETATM   26  C   UNL     1     -11.739   2.750 -33.813  1.00  0.00     0.079 A 
HETATM   27  C   UNL     1     -10.888   3.951 -33.620  1.00  0.00     0.075 C 
ENDBRANCH   1  20
TORSDOF 5
ENDMDL
MODEL 8
REMARK VINA RESULT:      -7.7      2.379      4.165
REMARK  5 active torsions:
REMARK  status: ('A' for Active; 'I' for Inactive)
REMARK    1  A    between atoms: C_8  and  N_9 
REMARK       I    between atoms: N_9  and  C_10 
REMARK       I    between atoms: C_10  and  N_11 
REMARK    2  A    between atoms: N_11  and  C_12 
REMARK    3  A    between atoms: C_13  and  O_14 
REMARK    4  A    between atoms: O_14  and  C_15 
REMARK    5  A    between atoms: C_15  and  C_16 
ROOT
HETATM    1  N   UNL     1     -10.142   0.684 -33.070  1.00  0.00    -0.305 N 
HETATM    2  C   UNL     1      -9.015   0.348 -33.796  1.00  0.00     0.325 C 
HETATM    3  N   UNL     1      -8.175  -0.444 -33.035  1.00  0.00    -0.306 N 
HETATM    4  O   UNL     1      -8.792   0.689 -34.951  1.00  0.00    -0.247 OA
HETATM    5  H   UNL     1     -10.449  -0.008 -32.403  1.00  0.00     0.171 HD
HETATM    6  H   UNL     1      -8.220  -0.299 -32.034  1.00  0.00     0.171 HD
ENDROOT
BRANCH   3   7
HETATM    7  C   UNL     1      -7.053  -1.164 -33.495  1.00  0.00     0.070 A 
HETATM    8  C   UNL     1      -5.794  -0.820 -32.971  1.00  0.00     0.098 A 
HETATM    9  C   UNL     1      -4.650  -1.535 -33.323  1.00  0.00     0.081 A 
HETATM   10  C   UNL     1      -4.765  -2.581 -34.231  1.00  0.00     0.119 A 
HETATM   11  F   UNL     1      -3.672  -3.271 -34.579  1.00  0.00    -0.206 F 
HETATM   12  C   UNL     1      -5.995  -2.923 -34.781  1.00  0.00     0.044 A 
HETATM   13  C   UNL     1      -7.143  -2.216 -34.410  1.00  0.00     0.035 A 
BRANCH   8  14
HETATM   14  O   UNL     1      -5.722   0.228 -32.085  1.00  0.00    -0.340 OA
BRANCH  14  15
HETATM   15  C   UNL     1      -4.913   1.297 -32.614  1.00  0.00     0.293 C 
BRANCH  15  16
HETATM   16  C   UNL     1      -5.802   2.403 -33.159  1.00  0.00     0.408 C 
HETATM   17  F   UNL     1      -5.168   3.598 -33.139  1.00  0.00    -0.169 F 
HETATM   18  F   UNL     1      -6.181   2.156 -34.432  1.00  0.00    -0.169 F 
HETATM   19  F   UNL     1      -6.926   2.524 -32.416  1.00  0.00    -0.169 F 
ENDBRANCH  15  16
ENDBRANCH  14  15
ENDBRANCH   8  14
ENDBRANCH   3   7
BRANCH   1  20
HETATM   20  C   UNL     1     -11.082   1.626 -33.453  1.00  0.00     0.086 A 
HETATM   21  C   UNL     1     -12.401   1.310 -33.707  1.00  0.00     0.052 A 
HETATM   22  C   UNL     1     -13.142   0.029 -33.705  1.00  0.00     0.072 C 
HETATM   23  N   UNL     1     -13.004   2.489 -34.046  1.00  0.00    -0.280 N 
HETATM   24  H   UNL     1     -13.969   2.645 -34.317  1.00  0.00     0.189 HD
HETATM   25  N   UNL     1     -12.190   3.550 -33.992  1.00  0.00    -0.177 NA
HETATM   26  C   UNL     1     -11.006   3.038 -33.626  1.00  0.00     0.079 A 
HETATM   27  C   UNL     1      -9.868   3.965 -33.399  1.00  0.00     0.075 C 
ENDBRANCH   1  20
TORSDOF 5
ENDMDL
MODEL 9
REMARK VINA RESULT:      -7.5      3.951      6.545
REMARK  5 active torsions:
REMARK  status: ('A' for Active; 'I' for Inactive)
REMARK    1  A    between atoms: C_8  and  N_9 
REMARK       I    between atoms: N_9  and  C_10 
REMARK       I    between atoms: C_10  and  N_11 
REMARK    2  A    between atoms: N_11  and  C_12 
REMARK    3  A    between atoms: C_13  and  O_14 
REMARK    4  A    between atoms: O_14  and  C_15 
REMARK    5  A    between atoms: C_15  and  C_16 
ROOT
HETATM    1  N   UNL     1      -4.854   2.166 -31.051  1.00  0.00    -0.305 N 
HETATM    2  C   UNL     1      -5.018   1.470 -32.234  1.00  0.00     0.325 C 
HETATM    3  N   UNL     1      -4.855   0.114 -32.017  1.00  0.00    -0.306 N 
HETATM    4  O   UNL     1      -5.282   1.974 -33.318  1.00  0.00    -0.247 OA
HETATM    5  H   UNL     1      -5.143   1.676 -30.218  1.00  0.00     0.171 HD
HETATM    6  H   UNL     1      -4.237  -0.138 -31.256  1.00  0.00     0.171 HD
ENDROOT
BRANCH   3   7
HETATM    7  C   UNL     1      -5.164  -0.925 -32.919  1.00  0.00     0.070 A 
HETATM    8  C   UNL     1      -6.516  -1.130 -33.246  1.00  0.00     0.098 A 
HETATM    9  C   UNL     1      -6.891  -2.090 -34.185  1.00  0.00     0.081 A 
HETATM   10  C   UNL     1      -5.906  -2.871 -34.775  1.00  0.00     0.119 A 
HETATM   11  F   UNL     1      -6.255  -3.799 -35.675  1.00  0.00    -0.206 F 
HETATM   12  C   UNL     1      -4.564  -2.705 -34.449  1.00  0.00     0.044 A 
HETATM   13  C   UNL     1      -4.190  -1.728 -33.521  1.00  0.00     0.035 A 
BRANCH   8  14
HETATM   14  O   UNL     1      -7.460  -0.342 -32.632  1.00  0.00    -0.340 OA
BRANCH  14  15
HETATM   15  C   UNL     1      -8.520   0.002 -33.547  1.00  0.00     0.293 C 
BRANCH  15  16
HETATM   16  C   UNL     1      -9.810   0.248 -32.781  1.00  0.00     0.408 C 
HETATM   17  F   UNL     1     -10.638   1.069 -33.467  1.00  0.00    -0.169 F 
HETATM   18  F   UNL     1     -10.474  -0.903 -32.540  1.00  0.00    -0.169 F 
HETATM   19  F   UNL     1      -9.554   0.831 -31.587  1.00  0.00    -0.169 F 
ENDBRANCH  15  16
ENDBRANCH  14  15
ENDBRANCH   8  14
ENDBRANCH   3   7
BRANCH   1  20
HETATM   20  C   UNL     1      -4.749   3.542 -30.947  1.00  0.00     0.086 A 
HETATM   21  C   UNL     1      -5.705   4.324 -30.330  1.00  0.00     0.052 A 
HETATM   22  C   UNL     1      -7.006   4.005 -29.701  1.00  0.00     0.072 C 
HETATM   23  N   UNL     1      -5.246   5.609 -30.424  1.00  0.00    -0.280 N 
HETATM   24  H   UNL     1      -5.693   6.459 -30.099  1.00  0.00     0.189 HD
HETATM   25  N   UNL     1      -4.052   5.717 -31.017  1.00  0.00    -0.177 NA
HETATM   26  C   UNL     1      -3.730   4.457 -31.342  1.00  0.00     0.079 A 
HETATM   27  C   UNL     1      -2.408   4.197 -31.967  1.00  0.00     0.075 C 
ENDBRANCH   1  20
TORSDOF 5
ENDMDL
MODEL 10
REMARK VINA RESULT:      -7.2      4.121      7.266
REMARK  5 active torsions:
REMARK  status: ('A' for Active; 'I' for Inactive)
REMARK    1  A    between atoms: C_8  and  N_9 
REMARK       I    between atoms: N_9  and  C_10 
REMARK       I    between atoms: C_10  and  N_11 
REMARK    2  A    between atoms: N_11  and  C_12 
REMARK    3  A    between atoms: C_13  and  O_14 
REMARK    4  A    between atoms: O_14  and  C_15 
REMARK    5  A    between atoms: C_15  and  C_16 
ROOT
HETATM    1  N   UNL     1      -6.936  -0.388 -32.111  1.00  0.00    -0.305 N 
HETATM    2  C   UNL     1      -7.431   0.875 -32.375  1.00  0.00     0.325 C 
HETATM    3  N   UNL     1      -8.679   1.028 -31.798  1.00  0.00    -0.306 N 
HETATM    4  O   UNL     1      -6.850   1.742 -33.015  1.00  0.00    -0.247 OA
HETATM    5  H   UNL     1      -7.216  -0.787 -31.227  1.00  0.00     0.171 HD
HETATM    6  H   UNL     1      -9.224   0.182 -31.697  1.00  0.00     0.171 HD
ENDROOT
BRANCH   3   7
HETATM    7  C   UNL     1      -9.397   2.234 -31.655  1.00  0.00     0.070 A 
HETATM    8  C   UNL     1     -10.365   2.541 -32.627  1.00  0.00     0.098 A 
HETATM    9  C   UNL     1     -11.164   3.678 -32.512  1.00  0.00     0.081 A 
HETATM   10  C   UNL     1     -10.968   4.529 -31.432  1.00  0.00     0.119 A 
HETATM   11  F   UNL     1     -11.727   5.625 -31.315  1.00  0.00    -0.206 F 
HETATM   12  C   UNL     1     -10.000   4.259 -30.471  1.00  0.00     0.044 A 
HETATM   13  C   UNL     1      -9.214   3.108 -30.579  1.00  0.00     0.035 A 
BRANCH   8  14
HETATM   14  O   UNL     1     -10.520   1.677 -33.686  1.00  0.00    -0.340 OA
BRANCH  14  15
HETATM   15  C   UNL     1     -11.821   1.826 -34.287  1.00  0.00     0.293 C 
BRANCH  15  16
HETATM   16  C   UNL     1     -12.753   0.733 -33.791  1.00  0.00     0.408 C 
HETATM   17  F   UNL     1     -12.060  -0.290 -33.240  1.00  0.00    -0.169 F 
HETATM   18  F   UNL     1     -13.616   1.197 -32.862  1.00  0.00    -0.169 F 
HETATM   19  F   UNL     1     -13.485   0.228 -34.811  1.00  0.00    -0.169 F 
ENDBRANCH  15  16
ENDBRANCH  14  15
ENDBRANCH   8  14
ENDBRANCH   3   7
BRANCH   1  20
HETATM   20  C   UNL     1      -5.814  -0.941 -32.705  1.00  0.00     0.086 A 
HETATM   21  C   UNL     1      -4.539  -0.777 -32.200  1.00  0.00     0.052 A 
HETATM   22  C   UNL     1      -4.010  -0.020 -31.044  1.00  0.00     0.072 C 
HETATM   23  N   UNL     1      -3.717  -1.465 -33.048  1.00  0.00    -0.280 N 
HETATM   24  H   UNL     1      -2.707  -1.554 -33.005  1.00  0.00     0.189 HD
HETATM   25  N   UNL     1      -4.360  -2.095 -34.037  1.00  0.00    -0.177 NA
HETATM   26  C   UNL     1      -5.650  -1.787 -33.840  1.00  0.00     0.079 A 
HETATM   27  C   UNL     1      -6.672  -2.388 -34.734  1.00  0.00     0.075 C 
ENDBRANCH   1  20
TORSDOF 5
ENDMDL
