MODEL 1
REMARK VINA RESULT:      -9.0      0.000      0.000
REMARK  10 active torsions:
REMARK  status: ('A' for Active; 'I' for Inactive)
REMARK    1  A    between atoms: N_5  and  C_7 
REMARK    2  A    between atoms: C_7  and  C_8 
REMARK    3  A    between atoms: C_8  and  C_9 
REMARK    4  A    between atoms: C_9  and  N_10 
REMARK       I    between atoms: N_10  and  C_11 
REMARK    5  A    between atoms: C_11  and  C_12 
REMARK    6  A    between atoms: C_12  and  C_13 
REMARK    7  A    between atoms: C_13  and  C_14 
REMARK    8  A    between atoms: C_14  and  N_15 
REMARK       I    between atoms: N_15  and  C_16 
REMARK    9  A    between atoms: C_16  and  C_17 
REMARK   10  A    between atoms: C_17  and  N_18 
ROOT
HETATM    1  N   UNL     1      -4.776   4.275 -34.047  1.00  0.00    -0.360 N 
HETATM    2  C   UNL     1      -5.027   4.251 -32.692  1.00  0.00     0.235 C 
HETATM    3  O   UNL     1      -4.493   5.022 -31.898  1.00  0.00    -0.272 OA
HETATM    4  H   UNL     1      -5.123   3.507 -34.622  1.00  0.00     0.162 HD
ENDROOT
BRANCH   1   5
HETATM    5  C   UNL     1      -3.932   5.287 -34.646  1.00  0.00     0.123 C 
BRANCH   5   6
HETATM    6  C   UNL     1      -2.495   4.802 -34.838  1.00  0.00     0.029 C 
BRANCH   6   7
HETATM    7  C   UNL     1      -1.551   5.436 -33.819  1.00  0.00     0.104 C 
BRANCH   7   8
HETATM    8  C   UNL     1      -1.924   6.843 -33.378  1.00  0.00     0.217 C 
HETATM    9  N   UNL     1      -2.473   6.974 -32.125  1.00  0.00    -0.361 N 
HETATM   10  H   UNL     1      -2.792   6.145 -31.635  1.00  0.00     0.162 HD
HETATM   11  O   UNL     1      -1.627   7.838 -34.044  1.00  0.00    -0.274 OA
BRANCH   9  12
HETATM   12  C   UNL     1      -2.928   8.253 -31.620  1.00  0.00     0.124 C 
BRANCH  12  13
HETATM   13  C   UNL     1      -2.713   8.421 -30.117  1.00  0.00     0.047 C 
BRANCH  13  14
HETATM   14  C   UNL     1      -2.878   7.171 -29.250  1.00  0.00     0.236 C 
BRANCH  14  15
HETATM   15  N   UNL     1      -1.678   6.836 -28.395  1.00  0.00    -0.071 N 
HETATM   16  C   UNL     1      -0.420   6.576 -29.179  1.00  0.00     0.235 C 
HETATM   17  C   UNL     1       0.724   6.198 -28.249  1.00  0.00     0.032 C 
HETATM   18  C   UNL     1       0.966   7.222 -27.138  1.00  0.00    -0.016 C 
HETATM   19  C   UNL     1       1.596   8.510 -27.675  1.00  0.00     0.010 C 
HETATM   20  C   UNL     1      -0.345   7.494 -26.393  1.00  0.00     0.032 C 
HETATM   21  C   UNL     1      -1.485   7.888 -27.322  1.00  0.00     0.235 C 
HETATM   22  H   UNL     1      -1.944   5.977 -27.863  1.00  0.00     0.279 HD
ENDBRANCH  14  15
ENDBRANCH  13  14
ENDBRANCH  12  13
ENDBRANCH   9  12
ENDBRANCH   7   8
ENDBRANCH   6   7
ENDBRANCH   5   6
ENDBRANCH   1   5
BRANCH   2  23
HETATM   23  C   UNL     1      -5.949   3.131 -32.230  1.00  0.00     0.235 C 
BRANCH  23  24
HETATM   24  N   UNL     1      -5.203   1.887 -32.220  1.00  0.00    -0.299 N 
HETATM   25  C   UNL     1      -5.501   0.924 -33.180  1.00  0.00     0.262 C 
HETATM   26  O   UNL     1      -6.283   1.127 -34.108  1.00  0.00    -0.267 OA
HETATM   27  C   UNL     1      -4.767  -0.318 -33.015  1.00  0.00     0.075 A 
HETATM   28  C   UNL     1      -3.781  -0.351 -32.051  1.00  0.00     0.115 A 
HETATM   29  C   UNL     1      -4.916  -1.575 -33.687  1.00  0.00    -0.026 A 
HETATM   30  S   UNL     1      -3.007  -1.869 -31.981  1.00  0.00    -0.073 SA
HETATM   31  N   UNL     1      -3.428   0.660 -31.216  1.00  0.00    -0.235 NA
HETATM   32  C   UNL     1      -4.022  -2.506 -33.189  1.00  0.00    -0.008 A 
HETATM   33  C   UNL     1      -3.913  -3.931 -33.640  1.00  0.00     0.047 C 
HETATM   34  C   UNL     1      -5.190  -4.347 -34.386  1.00  0.00     0.005 C 
HETATM   35  C   UNL     1      -5.621  -3.282 -35.405  1.00  0.00     0.005 C 
HETATM   36  C   UNL     1      -5.930  -1.933 -34.734  1.00  0.00     0.041 C 
HETATM   37  C   UNL     1      -4.165   1.719 -31.322  1.00  0.00     0.214 C 
ENDBRANCH  23  24
ENDBRANCH   2  23
TORSDOF 10
ENDMDL
MODEL 2
REMARK VINA RESULT:      -8.7      1.470      1.980
REMARK  10 active torsions:
REMARK  status: ('A' for Active; 'I' for Inactive)
REMARK    1  A    between atoms: N_5  and  C_7 
REMARK    2  A    between atoms: C_7  and  C_8 
REMARK    3  A    between atoms: C_8  and  C_9 
REMARK    4  A    between atoms: C_9  and  N_10 
REMARK       I    between atoms: N_10  and  C_11 
REMARK    5  A    between atoms: C_11  and  C_12 
REMARK    6  A    between atoms: C_12  and  C_13 
REMARK    7  A    between atoms: C_13  and  C_14 
REMARK    8  A    between atoms: C_14  and  N_15 
REMARK       I    between atoms: N_15  and  C_16 
REMARK    9  A    between atoms: C_16  and  C_17 
REMARK   10  A    between atoms: C_17  and  N_18 
ROOT
HETATM    1  N   UNL     1      -3.964   4.162 -33.184  1.00  0.00    -0.360 N 
HETATM    2  C   UNL     1      -4.433   4.659 -31.986  1.00  0.00     0.235 C 
HETATM    3  O   UNL     1      -4.555   5.861 -31.762  1.00  0.00    -0.272 OA
HETATM    4  H   UNL     1      -3.734   3.170 -33.245  1.00  0.00     0.162 HD
ENDROOT
BRANCH   1   5
HETATM    5  C   UNL     1      -3.674   5.030 -34.305  1.00  0.00     0.123 C 
BRANCH   5   6
HETATM    6  C   UNL     1      -2.201   4.977 -34.711  1.00  0.00     0.029 C 
BRANCH   6   7
HETATM    7  C   UNL     1      -1.314   5.676 -33.684  1.00  0.00     0.104 C 
BRANCH   7   8
HETATM    8  C   UNL     1      -1.730   7.093 -33.326  1.00  0.00     0.217 C 
HETATM    9  N   UNL     1      -2.004   7.343 -32.002  1.00  0.00    -0.361 N 
HETATM   10  H   UNL     1      -2.117   6.561 -31.365  1.00  0.00     0.162 HD
HETATM   11  O   UNL     1      -1.694   8.014 -34.146  1.00  0.00    -0.274 OA
BRANCH   9  12
HETATM   12  C   UNL     1      -2.473   8.635 -31.549  1.00  0.00     0.124 C 
BRANCH  12  13
HETATM   13  C   UNL     1      -2.299   8.849 -30.046  1.00  0.00     0.047 C 
BRANCH  13  14
HETATM   14  C   UNL     1      -2.650   7.671 -29.134  1.00  0.00     0.236 C 
BRANCH  14  15
HETATM   15  N   UNL     1      -1.532   7.231 -28.217  1.00  0.00    -0.071 N 
HETATM   16  C   UNL     1      -0.242   6.923 -28.927  1.00  0.00     0.235 C 
HETATM   17  C   UNL     1       0.813   6.441 -27.940  1.00  0.00     0.032 C 
HETATM   18  C   UNL     1       1.039   7.408 -26.775  1.00  0.00    -0.016 C 
HETATM   19  C   UNL     1       1.779   8.673 -27.217  1.00  0.00     0.010 C 
HETATM   20  C   UNL     1      -0.301   7.732 -26.107  1.00  0.00     0.032 C 
HETATM   21  C   UNL     1      -1.350   8.230 -27.092  1.00  0.00     0.235 C 
HETATM   22  H   UNL     1      -1.884   6.372 -27.738  1.00  0.00     0.279 HD
ENDBRANCH  14  15
ENDBRANCH  13  14
ENDBRANCH  12  13
ENDBRANCH   9  12
ENDBRANCH   7   8
ENDBRANCH   6   7
ENDBRANCH   5   6
ENDBRANCH   1   5
BRANCH   2  23
HETATM   23  C   UNL     1      -4.706   3.608 -30.919  1.00  0.00     0.235 C 
BRANCH  23  24
HETATM   24  N   UNL     1      -5.544   2.570 -31.489  1.00  0.00    -0.299 N 
HETATM   25  C   UNL     1      -4.945   1.384 -31.905  1.00  0.00     0.262 C 
HETATM   26  O   UNL     1      -3.759   1.128 -31.701  1.00  0.00    -0.267 OA
HETATM   27  C   UNL     1      -5.859   0.459 -32.551  1.00  0.00     0.075 A 
HETATM   28  C   UNL     1      -7.200   0.782 -32.547  1.00  0.00     0.115 A 
HETATM   29  C   UNL     1      -5.594  -0.766 -33.247  1.00  0.00    -0.026 A 
HETATM   30  S   UNL     1      -8.143  -0.400 -33.335  1.00  0.00    -0.073 SA
HETATM   31  N   UNL     1      -7.765   1.894 -32.011  1.00  0.00    -0.235 NA
HETATM   32  C   UNL     1      -6.766  -1.313 -33.739  1.00  0.00    -0.008 A 
HETATM   33  C   UNL     1      -6.863  -2.577 -34.537  1.00  0.00     0.047 C 
HETATM   34  C   UNL     1      -5.489  -2.943 -35.118  1.00  0.00     0.005 C 
HETATM   35  C   UNL     1      -4.380  -2.822 -34.062  1.00  0.00     0.005 C 
HETATM   36  C   UNL     1      -4.255  -1.388 -33.518  1.00  0.00     0.041 C 
HETATM   37  C   UNL     1      -6.915   2.743 -31.529  1.00  0.00     0.214 C 
ENDBRANCH  23  24
ENDBRANCH   2  23
TORSDOF 10
ENDMDL
MODEL 3
REMARK VINA RESULT:      -8.6      1.681      2.355
REMARK  10 active torsions:
REMARK  status: ('A' for Active; 'I' for Inactive)
REMARK    1  A    between atoms: N_5  and  C_7 
REMARK    2  A    between atoms: C_7  and  C_8 
REMARK    3  A    between atoms: C_8  and  C_9 
REMARK    4  A    between atoms: C_9  and  N_10 
REMARK       I    between atoms: N_10  and  C_11 
REMARK    5  A    between atoms: C_11  and  C_12 
REMARK    6  A    between atoms: C_12  and  C_13 
REMARK    7  A    between atoms: C_13  and  C_14 
REMARK    8  A    between atoms: C_14  and  N_15 
REMARK       I    between atoms: N_15  and  C_16 
REMARK    9  A    between atoms: C_16  and  C_17 
REMARK   10  A    between atoms: C_17  and  N_18 
ROOT
HETATM    1  N   UNL     1      -2.682   3.650 -32.232  1.00  0.00    -0.360 N 
HETATM    2  C   UNL     1      -3.943   3.936 -31.754  1.00  0.00     0.235 C 
HETATM    3  O   UNL     1      -4.491   5.023 -31.919  1.00  0.00    -0.272 OA
HETATM    4  H   UNL     1      -2.224   2.793 -31.921  1.00  0.00     0.162 HD
ENDROOT
BRANCH   1   5
HETATM    5  C   UNL     1      -1.950   4.590 -33.055  1.00  0.00     0.123 C 
BRANCH   5   6
HETATM    6  C   UNL     1      -1.047   5.503 -32.225  1.00  0.00     0.029 C 
BRANCH   6   7
HETATM    7  C   UNL     1      -1.060   6.933 -32.758  1.00  0.00     0.104 C 
BRANCH   7   8
HETATM    8  C   UNL     1      -2.025   7.877 -32.059  1.00  0.00     0.217 C 
HETATM    9  N   UNL     1      -2.845   7.328 -31.102  1.00  0.00    -0.361 N 
HETATM   10  H   UNL     1      -2.925   6.319 -31.040  1.00  0.00     0.162 HD
HETATM   11  O   UNL     1      -1.989   9.098 -32.234  1.00  0.00    -0.274 OA
BRANCH   9  12
HETATM   12  C   UNL     1      -3.850   8.113 -30.416  1.00  0.00     0.124 C 
BRANCH  12  13
HETATM   13  C   UNL     1      -3.705   8.085 -28.896  1.00  0.00     0.047 C 
BRANCH  13  14
HETATM   14  C   UNL     1      -2.702   9.062 -28.278  1.00  0.00     0.236 C 
BRANCH  14  15
HETATM   15  N   UNL     1      -1.445   8.416 -27.740  1.00  0.00    -0.071 N 
HETATM   16  C   UNL     1      -1.647   7.015 -27.228  1.00  0.00     0.235 C 
HETATM   17  C   UNL     1      -0.349   6.458 -26.660  1.00  0.00     0.032 C 
HETATM   18  C   UNL     1       0.821   6.525 -27.646  1.00  0.00    -0.016 C 
HETATM   19  C   UNL     1       0.674   5.506 -28.778  1.00  0.00     0.010 C 
HETATM   20  C   UNL     1       0.965   7.954 -28.178  1.00  0.00     0.032 C 
HETATM   21  C   UNL     1      -0.330   8.504 -28.760  1.00  0.00     0.235 C 
HETATM   22  H   UNL     1      -1.125   9.032 -26.960  1.00  0.00     0.279 HD
ENDBRANCH  14  15
ENDBRANCH  13  14
ENDBRANCH  12  13
ENDBRANCH   9  12
ENDBRANCH   7   8
ENDBRANCH   6   7
ENDBRANCH   5   6
ENDBRANCH   1   5
BRANCH   2  23
HETATM   23  C   UNL     1      -4.579   2.831 -30.921  1.00  0.00     0.235 C 
BRANCH  23  24
HETATM   24  N   UNL     1      -5.021   1.773 -31.810  1.00  0.00    -0.299 N 
HETATM   25  C   UNL     1      -4.486   0.498 -31.645  1.00  0.00     0.262 C 
HETATM   26  O   UNL     1      -3.748   0.201 -30.707  1.00  0.00    -0.267 OA
HETATM   27  C   UNL     1      -4.920  -0.456 -32.649  1.00  0.00     0.075 A 
HETATM   28  C   UNL     1      -5.897  -0.049 -33.534  1.00  0.00     0.115 A 
HETATM   29  C   UNL     1      -4.471  -1.792 -32.909  1.00  0.00    -0.026 A 
HETATM   30  S   UNL     1      -6.304  -1.277 -34.644  1.00  0.00    -0.073 SA
HETATM   31  N   UNL     1      -6.493   1.171 -33.580  1.00  0.00    -0.235 NA
HETATM   32  C   UNL     1      -5.140  -2.333 -33.993  1.00  0.00    -0.008 A 
HETATM   33  C   UNL     1      -4.909  -3.700 -34.561  1.00  0.00     0.047 C 
HETATM   34  C   UNL     1      -3.552  -4.244 -34.089  1.00  0.00     0.005 C 
HETATM   35  C   UNL     1      -3.350  -4.028 -32.583  1.00  0.00     0.005 C 
HETATM   36  C   UNL     1      -3.374  -2.537 -32.205  1.00  0.00     0.041 C 
HETATM   37  C   UNL     1      -6.016   2.028 -32.736  1.00  0.00     0.214 C 
ENDBRANCH  23  24
ENDBRANCH   2  23
TORSDOF 10
ENDMDL
MODEL 4
REMARK VINA RESULT:      -8.2      2.278      3.765
REMARK  10 active torsions:
REMARK  status: ('A' for Active; 'I' for Inactive)
REMARK    1  A    between atoms: N_5  and  C_7 
REMARK    2  A    between atoms: C_7  and  C_8 
REMARK    3  A    between atoms: C_8  and  C_9 
REMARK    4  A    between atoms: C_9  and  N_10 
REMARK       I    between atoms: N_10  and  C_11 
REMARK    5  A    between atoms: C_11  and  C_12 
REMARK    6  A    between atoms: C_12  and  C_13 
REMARK    7  A    between atoms: C_13  and  C_14 
REMARK    8  A    between atoms: C_14  and  N_15 
REMARK       I    between atoms: N_15  and  C_16 
REMARK    9  A    between atoms: C_16  and  C_17 
REMARK   10  A    between atoms: C_17  and  N_18 
ROOT
HETATM    1  N   UNL     1      -2.269   4.400 -31.045  1.00  0.00    -0.360 N 
HETATM    2  C   UNL     1      -3.011   3.539 -31.826  1.00  0.00     0.235 C 
HETATM    3  O   UNL     1      -2.782   3.352 -33.019  1.00  0.00    -0.272 OA
HETATM    4  H   UNL     1      -2.612   4.631 -30.112  1.00  0.00     0.162 HD
ENDROOT
BRANCH   1   5
HETATM    5  C   UNL     1      -1.097   5.075 -31.560  1.00  0.00     0.123 C 
BRANCH   5   6
HETATM    6  C   UNL     1      -1.024   6.533 -31.107  1.00  0.00     0.029 C 
BRANCH   6   7
HETATM    7  C   UNL     1       0.347   6.868 -30.526  1.00  0.00     0.104 C 
BRANCH   7   8
HETATM    8  C   UNL     1       0.384   7.057 -29.018  1.00  0.00     0.217 C 
HETATM    9  N   UNL     1      -0.362   6.183 -28.265  1.00  0.00    -0.361 N 
HETATM   10  H   UNL     1      -1.048   5.594 -28.726  1.00  0.00     0.162 HD
HETATM   11  O   UNL     1       1.148   7.862 -28.477  1.00  0.00    -0.274 OA
BRANCH   9  12
HETATM   12  C   UNL     1      -0.458   6.303 -26.826  1.00  0.00     0.124 C 
BRANCH  12  13
HETATM   13  C   UNL     1      -1.722   7.025 -26.362  1.00  0.00     0.047 C 
BRANCH  13  14
HETATM   14  C   UNL     1      -1.566   8.483 -25.926  1.00  0.00     0.236 C 
BRANCH  14  15
HETATM   15  N   UNL     1      -2.217   9.489 -26.847  1.00  0.00    -0.071 N 
HETATM   16  C   UNL     1      -1.241  10.300 -27.657  1.00  0.00     0.235 C 
HETATM   17  C   UNL     1      -1.974  11.319 -28.518  1.00  0.00     0.032 C 
HETATM   18  C   UNL     1      -3.050  10.696 -29.410  1.00  0.00    -0.016 C 
HETATM   19  C   UNL     1      -2.443   9.896 -30.565  1.00  0.00     0.010 C 
HETATM   20  C   UNL     1      -3.995   9.843 -28.558  1.00  0.00     0.032 C 
HETATM   21  C   UNL     1      -3.263   8.813 -27.709  1.00  0.00     0.235 C 
HETATM   22  H   UNL     1      -2.770  10.122 -26.227  1.00  0.00     0.279 HD
ENDBRANCH  14  15
ENDBRANCH  13  14
ENDBRANCH  12  13
ENDBRANCH   9  12
ENDBRANCH   7   8
ENDBRANCH   6   7
ENDBRANCH   5   6
ENDBRANCH   1   5
BRANCH   2  23
HETATM   23  C   UNL     1      -4.201   2.899 -31.124  1.00  0.00     0.235 C 
BRANCH  23  24
HETATM   24  N   UNL     1      -4.718   1.833 -31.962  1.00  0.00    -0.299 N 
HETATM   25  C   UNL     1      -4.244   0.540 -31.762  1.00  0.00     0.262 C 
HETATM   26  O   UNL     1      -3.498   0.239 -30.831  1.00  0.00    -0.267 OA
HETATM   27  C   UNL     1      -4.752  -0.427 -32.719  1.00  0.00     0.075 A 
HETATM   28  C   UNL     1      -5.729  -0.002 -33.596  1.00  0.00     0.115 A 
HETATM   29  C   UNL     1      -4.377  -1.793 -32.940  1.00  0.00    -0.026 A 
HETATM   30  S   UNL     1      -6.225  -1.247 -34.649  1.00  0.00    -0.073 SA
HETATM   31  N   UNL     1      -6.263   1.244 -33.673  1.00  0.00    -0.235 NA
HETATM   32  C   UNL     1      -5.100  -2.337 -33.986  1.00  0.00    -0.008 A 
HETATM   33  C   UNL     1      -4.952  -3.733 -34.508  1.00  0.00     0.047 C 
HETATM   34  C   UNL     1      -3.613  -4.330 -34.048  1.00  0.00     0.005 C 
HETATM   35  C   UNL     1      -3.362  -4.070 -32.556  1.00  0.00     0.005 C 
HETATM   36  C   UNL     1      -3.302  -2.567 -32.234  1.00  0.00     0.041 C 
HETATM   37  C   UNL     1      -5.722   2.106 -32.873  1.00  0.00     0.214 C 
ENDBRANCH  23  24
ENDBRANCH   2  23
TORSDOF 10
ENDMDL
MODEL 5
REMARK VINA RESULT:      -8.1      3.053      9.365
REMARK  10 active torsions:
REMARK  status: ('A' for Active; 'I' for Inactive)
REMARK    1  A    between atoms: N_5  and  C_7 
REMARK    2  A    between atoms: C_7  and  C_8 
REMARK    3  A    between atoms: C_8  and  C_9 
REMARK    4  A    between atoms: C_9  and  N_10 
REMARK       I    between atoms: N_10  and  C_11 
REMARK    5  A    between atoms: C_11  and  C_12 
REMARK    6  A    between atoms: C_12  and  C_13 
REMARK    7  A    between atoms: C_13  and  C_14 
REMARK    8  A    between atoms: C_14  and  N_15 
REMARK       I    between atoms: N_15  and  C_16 
REMARK    9  A    between atoms: C_16  and  C_17 
REMARK   10  A    between atoms: C_17  and  N_18 
ROOT
HETATM    1  N   UNL     1      -3.495   1.220 -31.801  1.00  0.00    -0.360 N 
HETATM    2  C   UNL     1      -4.797   1.481 -32.173  1.00  0.00     0.235 C 
HETATM    3  O   UNL     1      -5.722   0.698 -31.968  1.00  0.00    -0.272 OA
HETATM    4  H   UNL     1      -2.757   1.834 -32.145  1.00  0.00     0.162 HD
ENDROOT
BRANCH   1   5
HETATM    5  C   UNL     1      -3.143   0.036 -31.048  1.00  0.00     0.123 C 
BRANCH   5   6
HETATM    6  C   UNL     1      -2.471  -1.025 -31.920  1.00  0.00     0.029 C 
BRANCH   6   7
HETATM    7  C   UNL     1      -3.219  -2.354 -31.857  1.00  0.00     0.104 C 
BRANCH   7   8
HETATM    8  C   UNL     1      -3.956  -2.746 -33.127  1.00  0.00     0.217 C 
HETATM    9  N   UNL     1      -4.834  -1.823 -33.643  1.00  0.00    -0.361 N 
HETATM   10  H   UNL     1      -5.107  -1.029 -33.074  1.00  0.00     0.162 HD
HETATM   11  O   UNL     1      -3.688  -3.777 -33.749  1.00  0.00    -0.274 OA
BRANCH   9  12
HETATM   12  C   UNL     1      -5.642  -2.106 -34.811  1.00  0.00     0.124 C 
BRANCH  12  13
HETATM   13  C   UNL     1      -7.112  -1.730 -34.635  1.00  0.00     0.047 C 
BRANCH  13  14
HETATM   14  C   UNL     1      -7.522  -0.320 -35.067  1.00  0.00     0.236 C 
BRANCH  14  15
HETATM   15  N   UNL     1      -7.918   0.596 -33.931  1.00  0.00    -0.071 N 
HETATM   16  C   UNL     1      -8.255   1.998 -34.363  1.00  0.00     0.235 C 
HETATM   17  C   UNL     1      -8.592   2.865 -33.158  1.00  0.00     0.032 C 
HETATM   18  C   UNL     1      -9.697   2.275 -32.278  1.00  0.00    -0.016 C 
HETATM   19  C   UNL     1     -11.071   2.366 -32.948  1.00  0.00     0.010 C 
HETATM   20  C   UNL     1      -9.340   0.836 -31.897  1.00  0.00     0.032 C 
HETATM   21  C   UNL     1      -9.018  -0.035 -33.104  1.00  0.00     0.235 C 
HETATM   22  H   UNL     1      -7.095   0.615 -33.287  1.00  0.00     0.279 HD
ENDBRANCH  14  15
ENDBRANCH  13  14
ENDBRANCH  12  13
ENDBRANCH   9  12
ENDBRANCH   7   8
ENDBRANCH   6   7
ENDBRANCH   5   6
ENDBRANCH   1   5
BRANCH   2  23
HETATM   23  C   UNL     1      -4.997   2.779 -32.944  1.00  0.00     0.235 C 
BRANCH  23  24
HETATM   24  N   UNL     1      -4.613   3.890 -32.093  1.00  0.00    -0.299 N 
HETATM   25  C   UNL     1      -3.316   4.385 -32.188  1.00  0.00     0.262 C 
HETATM   26  O   UNL     1      -2.517   4.003 -33.042  1.00  0.00    -0.267 OA
HETATM   27  C   UNL     1      -3.011   5.426 -31.223  1.00  0.00     0.075 A 
HETATM   28  C   UNL     1      -4.050   5.898 -30.447  1.00  0.00     0.115 A 
HETATM   29  C   UNL     1      -1.762   6.052 -30.903  1.00  0.00    -0.026 A 
HETATM   30  S   UNL     1      -3.539   7.117 -29.371  1.00  0.00    -0.073 SA
HETATM   31  N   UNL     1      -5.341   5.478 -30.477  1.00  0.00    -0.235 NA
HETATM   32  C   UNL     1      -1.924   6.978 -29.888  1.00  0.00    -0.008 A 
HETATM   33  C   UNL     1      -0.828   7.802 -29.284  1.00  0.00     0.047 C 
HETATM   34  C   UNL     1       0.539   7.181 -29.607  1.00  0.00     0.005 C 
HETATM   35  C   UNL     1       0.644   6.787 -31.087  1.00  0.00     0.005 C 
HETATM   36  C   UNL     1      -0.413   5.741 -31.483  1.00  0.00     0.041 C 
HETATM   37  C   UNL     1      -5.558   4.484 -31.277  1.00  0.00     0.214 C 
ENDBRANCH  23  24
ENDBRANCH   2  23
TORSDOF 10
ENDMDL
MODEL 6
REMARK VINA RESULT:      -8.1      1.646      2.559
REMARK  10 active torsions:
REMARK  status: ('A' for Active; 'I' for Inactive)
REMARK    1  A    between atoms: N_5  and  C_7 
REMARK    2  A    between atoms: C_7  and  C_8 
REMARK    3  A    between atoms: C_8  and  C_9 
REMARK    4  A    between atoms: C_9  and  N_10 
REMARK       I    between atoms: N_10  and  C_11 
REMARK    5  A    between atoms: C_11  and  C_12 
REMARK    6  A    between atoms: C_12  and  C_13 
REMARK    7  A    between atoms: C_13  and  C_14 
REMARK    8  A    between atoms: C_14  and  N_15 
REMARK       I    between atoms: N_15  and  C_16 
REMARK    9  A    between atoms: C_16  and  C_17 
REMARK   10  A    between atoms: C_17  and  N_18 
ROOT
HETATM    1  N   UNL     1      -7.439   4.158 -31.924  1.00  0.00    -0.360 N 
HETATM    2  C   UNL     1      -8.007   3.080 -32.569  1.00  0.00     0.235 C 
HETATM    3  O   UNL     1      -8.449   3.142 -33.715  1.00  0.00    -0.272 OA
HETATM    4  H   UNL     1      -7.244   4.083 -30.926  1.00  0.00     0.162 HD
ENDROOT
BRANCH   1   5
HETATM    5  C   UNL     1      -7.234   5.424 -32.596  1.00  0.00     0.123 C 
BRANCH   5   6
HETATM    6  C   UNL     1      -5.756   5.695 -32.879  1.00  0.00     0.029 C 
BRANCH   6   7
HETATM    7  C   UNL     1      -4.857   4.711 -32.136  1.00  0.00     0.104 C 
BRANCH   7   8
HETATM    8  C   UNL     1      -3.380   4.787 -32.489  1.00  0.00     0.217 C 
HETATM    9  N   UNL     1      -3.037   5.593 -33.548  1.00  0.00    -0.361 N 
HETATM   10  H   UNL     1      -3.766   5.934 -34.166  1.00  0.00     0.162 HD
HETATM   11  O   UNL     1      -2.510   4.268 -31.784  1.00  0.00    -0.274 OA
BRANCH   9  12
HETATM   12  C   UNL     1      -1.672   5.696 -34.020  1.00  0.00     0.124 C 
BRANCH  12  13
HETATM   13  C   UNL     1      -0.961   6.961 -33.544  1.00  0.00     0.047 C 
BRANCH  13  14
HETATM   14  C   UNL     1      -1.597   7.714 -32.373  1.00  0.00     0.236 C 
BRANCH  14  15
HETATM   15  N   UNL     1      -1.255   7.161 -31.009  1.00  0.00    -0.071 N 
HETATM   16  C   UNL     1       0.147   6.624 -30.899  1.00  0.00     0.235 C 
HETATM   17  C   UNL     1       0.392   6.042 -29.514  1.00  0.00     0.032 C 
HETATM   18  C   UNL     1       0.084   7.024 -28.381  1.00  0.00    -0.016 C 
HETATM   19  C   UNL     1       1.130   8.138 -28.290  1.00  0.00     0.010 C 
HETATM   20  C   UNL     1      -1.332   7.582 -28.553  1.00  0.00     0.032 C 
HETATM   21  C   UNL     1      -1.572   8.178 -29.933  1.00  0.00     0.235 C 
HETATM   22  H   UNL     1      -1.940   6.390 -30.840  1.00  0.00     0.279 HD
ENDBRANCH  14  15
ENDBRANCH  13  14
ENDBRANCH  12  13
ENDBRANCH   9  12
ENDBRANCH   7   8
ENDBRANCH   6   7
ENDBRANCH   5   6
ENDBRANCH   1   5
BRANCH   2  23
HETATM   23  C   UNL     1      -8.133   1.820 -31.724  1.00  0.00     0.235 C 
BRANCH  23  24
HETATM   24  N   UNL     1      -6.993   0.963 -31.993  1.00  0.00    -0.299 N 
HETATM   25  C   UNL     1      -7.138  -0.066 -32.920  1.00  0.00     0.262 C 
HETATM   26  O   UNL     1      -8.148  -0.207 -33.608  1.00  0.00    -0.267 OA
HETATM   27  C   UNL     1      -5.970  -0.921 -33.036  1.00  0.00     0.075 A 
HETATM   28  C   UNL     1      -4.834  -0.543 -32.351  1.00  0.00     0.115 A 
HETATM   29  C   UNL     1      -5.796  -2.155 -33.744  1.00  0.00    -0.026 A 
HETATM   30  S   UNL     1      -3.551  -1.640 -32.590  1.00  0.00    -0.073 SA
HETATM   31  N   UNL     1      -4.692   0.548 -31.555  1.00  0.00    -0.235 NA
HETATM   32  C   UNL     1      -4.519  -2.653 -33.554  1.00  0.00    -0.008 A 
HETATM   33  C   UNL     1      -3.996  -3.936 -34.125  1.00  0.00     0.047 C 
HETATM   34  C   UNL     1      -5.162  -4.835 -34.561  1.00  0.00     0.005 C 
HETATM   35  C   UNL     1      -6.213  -4.049 -35.358  1.00  0.00     0.005 C 
HETATM   36  C   UNL     1      -6.830  -2.907 -34.531  1.00  0.00     0.041 C 
HETATM   37  C   UNL     1      -5.777   1.235 -31.396  1.00  0.00     0.214 C 
ENDBRANCH  23  24
ENDBRANCH   2  23
TORSDOF 10
ENDMDL
MODEL 7
REMARK VINA RESULT:      -8.1      2.302      3.879
REMARK  10 active torsions:
REMARK  status: ('A' for Active; 'I' for Inactive)
REMARK    1  A    between atoms: N_5  and  C_7 
REMARK    2  A    between atoms: C_7  and  C_8 
REMARK    3  A    between atoms: C_8  and  C_9 
REMARK    4  A    between atoms: C_9  and  N_10 
REMARK       I    between atoms: N_10  and  C_11 
REMARK    5  A    between atoms: C_11  and  C_12 
REMARK    6  A    between atoms: C_12  and  C_13 
REMARK    7  A    between atoms: C_13  and  C_14 
REMARK    8  A    between atoms: C_14  and  N_15 
REMARK       I    between atoms: N_15  and  C_16 
REMARK    9  A    between atoms: C_16  and  C_17 
REMARK   10  A    between atoms: C_17  and  N_18 
ROOT
HETATM    1  N   UNL     1      -6.746   4.182 -29.799  1.00  0.00    -0.360 N 
HETATM    2  C   UNL     1      -6.863   3.492 -30.987  1.00  0.00     0.235 C 
HETATM    3  O   UNL     1      -6.598   3.989 -32.079  1.00  0.00    -0.272 OA
HETATM    4  H   UNL     1      -7.136   3.768 -28.953  1.00  0.00     0.162 HD
ENDROOT
BRANCH   1   5
HETATM    5  C   UNL     1      -6.201   5.523 -29.750  1.00  0.00     0.123 C 
BRANCH   5   6
HETATM    6  C   UNL     1      -6.422   6.187 -28.391  1.00  0.00     0.029 C 
BRANCH   6   7
HETATM    7  C   UNL     1      -5.464   5.634 -27.338  1.00  0.00     0.104 C 
BRANCH   7   8
HETATM    8  C   UNL     1      -4.428   6.620 -26.822  1.00  0.00     0.217 C 
HETATM    9  N   UNL     1      -3.259   6.091 -26.332  1.00  0.00    -0.361 N 
HETATM   10  H   UNL     1      -3.207   5.095 -26.146  1.00  0.00     0.162 HD
HETATM   11  O   UNL     1      -4.561   7.840 -26.956  1.00  0.00    -0.274 OA
BRANCH   9  12
HETATM   12  C   UNL     1      -2.226   6.924 -25.753  1.00  0.00     0.124 C 
BRANCH  12  13
HETATM   13  C   UNL     1      -1.167   7.365 -26.763  1.00  0.00     0.047 C 
BRANCH  13  14
HETATM   14  C   UNL     1      -0.216   6.285 -27.285  1.00  0.00     0.236 C 
BRANCH  14  15
HETATM   15  N   UNL     1       0.092   6.380 -28.762  1.00  0.00    -0.071 N 
HETATM   16  C   UNL     1       0.525   5.079 -29.382  1.00  0.00     0.235 C 
HETATM   17  C   UNL     1       0.863   5.271 -30.854  1.00  0.00     0.032 C 
HETATM   18  C   UNL     1      -0.269   5.917 -31.656  1.00  0.00    -0.016 C 
HETATM   19  C   UNL     1      -1.440   4.954 -31.870  1.00  0.00     0.010 C 
HETATM   20  C   UNL     1      -0.713   7.212 -30.970  1.00  0.00     0.032 C 
HETATM   21  C   UNL     1      -1.066   7.016 -29.502  1.00  0.00     0.235 C 
HETATM   22  H   UNL     1       0.861   7.081 -28.843  1.00  0.00     0.279 HD
ENDBRANCH  14  15
ENDBRANCH  13  14
ENDBRANCH  12  13
ENDBRANCH   9  12
ENDBRANCH   7   8
ENDBRANCH   6   7
ENDBRANCH   5   6
ENDBRANCH   1   5
BRANCH   2  23
HETATM   23  C   UNL     1      -7.438   2.088 -30.859  1.00  0.00     0.235 C 
BRANCH  23  24
HETATM   24  N   UNL     1      -6.417   1.130 -31.239  1.00  0.00    -0.299 N 
HETATM   25  C   UNL     1      -6.667   0.282 -32.314  1.00  0.00     0.262 C 
HETATM   26  O   UNL     1      -7.663   0.387 -33.030  1.00  0.00    -0.267 OA
HETATM   27  C   UNL     1      -5.623  -0.701 -32.543  1.00  0.00     0.075 A 
HETATM   28  C   UNL     1      -4.471  -0.592 -31.792  1.00  0.00     0.115 A 
HETATM   29  C   UNL     1      -5.594  -1.828 -33.428  1.00  0.00    -0.026 A 
HETATM   30  S   UNL     1      -3.341  -1.809 -32.178  1.00  0.00    -0.073 SA
HETATM   31  N   UNL     1      -4.210   0.337 -30.838  1.00  0.00    -0.235 NA
HETATM   32  C   UNL     1      -4.404  -2.522 -33.299  1.00  0.00    -0.008 A 
HETATM   33  C   UNL     1      -4.040  -3.765 -34.051  1.00  0.00     0.047 C 
HETATM   34  C   UNL     1      -5.302  -4.418 -34.636  1.00  0.00     0.005 C 
HETATM   35  C   UNL     1      -6.208  -3.382 -35.318  1.00  0.00     0.005 C 
HETATM   36  C   UNL     1      -6.692  -2.302 -34.335  1.00  0.00     0.041 C 
HETATM   37  C   UNL     1      -5.196   1.138 -30.590  1.00  0.00     0.214 C 
ENDBRANCH  23  24
ENDBRANCH   2  23
TORSDOF 10
ENDMDL
MODEL 8
REMARK VINA RESULT:      -7.9      2.934      4.502
REMARK  10 active torsions:
REMARK  status: ('A' for Active; 'I' for Inactive)
REMARK    1  A    between atoms: N_5  and  C_7 
REMARK    2  A    between atoms: C_7  and  C_8 
REMARK    3  A    between atoms: C_8  and  C_9 
REMARK    4  A    between atoms: C_9  and  N_10 
REMARK       I    between atoms: N_10  and  C_11 
REMARK    5  A    between atoms: C_11  and  C_12 
REMARK    6  A    between atoms: C_12  and  C_13 
REMARK    7  A    between atoms: C_13  and  C_14 
REMARK    8  A    between atoms: C_14  and  N_15 
REMARK       I    between atoms: N_15  and  C_16 
REMARK    9  A    between atoms: C_16  and  C_17 
REMARK   10  A    between atoms: C_17  and  N_18 
ROOT
HETATM    1  N   UNL     1      -1.711   6.727 -32.000  1.00  0.00    -0.360 N 
HETATM    2  C   UNL     1      -1.560   6.673 -33.369  1.00  0.00     0.235 C 
HETATM    3  O   UNL     1      -1.465   7.677 -34.072  1.00  0.00    -0.272 OA
HETATM    4  H   UNL     1      -1.948   5.869 -31.501  1.00  0.00     0.162 HD
ENDROOT
BRANCH   1   5
HETATM    5  C   UNL     1      -1.668   7.981 -31.279  1.00  0.00     0.123 C 
BRANCH   5   6
HETATM    6  C   UNL     1      -2.956   8.788 -31.446  1.00  0.00     0.029 C 
BRANCH   6   7
HETATM    7  C   UNL     1      -4.192   7.911 -31.257  1.00  0.00     0.104 C 
BRANCH   7   8
HETATM    8  C   UNL     1      -4.202   7.070 -29.991  1.00  0.00     0.217 C 
HETATM    9  N   UNL     1      -4.560   7.706 -28.827  1.00  0.00    -0.361 N 
HETATM   10  H   UNL     1      -4.603   8.720 -28.811  1.00  0.00     0.162 HD
HETATM   11  O   UNL     1      -4.035   5.847 -30.015  1.00  0.00    -0.274 OA
BRANCH   9  12
HETATM   12  C   UNL     1      -4.544   7.027 -27.548  1.00  0.00     0.124 C 
BRANCH  12  13
HETATM   13  C   UNL     1      -3.267   7.276 -26.747  1.00  0.00     0.047 C 
BRANCH  13  14
HETATM   14  C   UNL     1      -2.799   8.729 -26.625  1.00  0.00     0.236 C 
BRANCH  14  15
HETATM   15  N   UNL     1      -1.419   8.993 -27.181  1.00  0.00    -0.071 N 
HETATM   16  C   UNL     1      -0.549   9.837 -26.288  1.00  0.00     0.235 C 
HETATM   17  C   UNL     1       0.800  10.097 -26.943  1.00  0.00     0.032 C 
HETATM   18  C   UNL     1       1.523   8.817 -27.370  1.00  0.00    -0.016 C 
HETATM   19  C   UNL     1       2.059   8.035 -26.169  1.00  0.00     0.010 C 
HETATM   20  C   UNL     1       0.592   7.965 -28.238  1.00  0.00     0.032 C 
HETATM   21  C   UNL     1      -0.752   7.692 -27.576  1.00  0.00     0.235 C 
HETATM   22  H   UNL     1      -1.572   9.486 -28.089  1.00  0.00     0.279 HD
ENDBRANCH  14  15
ENDBRANCH  13  14
ENDBRANCH  12  13
ENDBRANCH   9  12
ENDBRANCH   7   8
ENDBRANCH   6   7
ENDBRANCH   5   6
ENDBRANCH   1   5
BRANCH   2  23
HETATM   23  C   UNL     1      -1.612   5.274 -33.966  1.00  0.00     0.235 C 
BRANCH  23  24
HETATM   24  N   UNL     1      -2.960   4.756 -33.822  1.00  0.00    -0.299 N 
HETATM   25  C   UNL     1      -3.223   3.860 -32.789  1.00  0.00     0.262 C 
HETATM   26  O   UNL     1      -2.395   3.579 -31.923  1.00  0.00    -0.267 OA
HETATM   27  C   UNL     1      -4.574   3.330 -32.800  1.00  0.00     0.075 A 
HETATM   28  C   UNL     1      -5.462   3.867 -33.710  1.00  0.00     0.115 A 
HETATM   29  C   UNL     1      -5.162   2.281 -32.019  1.00  0.00    -0.026 A 
HETATM   30  S   UNL     1      -7.004   3.149 -33.597  1.00  0.00    -0.073 SA
HETATM   31  N   UNL     1      -5.201   4.841 -34.620  1.00  0.00    -0.235 NA
HETATM   32  C   UNL     1      -6.481   2.078 -32.384  1.00  0.00    -0.008 A 
HETATM   33  C   UNL     1      -7.393   1.047 -31.794  1.00  0.00     0.047 C 
HETATM   34  C   UNL     1      -6.574  -0.034 -31.072  1.00  0.00     0.005 C 
HETATM   35  C   UNL     1      -5.486   0.584 -30.181  1.00  0.00     0.005 C 
HETATM   36  C   UNL     1      -4.483   1.422 -30.992  1.00  0.00     0.041 C 
HETATM   37  C   UNL     1      -3.964   5.223 -34.650  1.00  0.00     0.214 C 
ENDBRANCH  23  24
ENDBRANCH   2  23
TORSDOF 10
ENDMDL
MODEL 9
REMARK VINA RESULT:      -7.8      3.628      7.343
REMARK  10 active torsions:
REMARK  status: ('A' for Active; 'I' for Inactive)
REMARK    1  A    between atoms: N_5  and  C_7 
REMARK    2  A    between atoms: C_7  and  C_8 
REMARK    3  A    between atoms: C_8  and  C_9 
REMARK    4  A    between atoms: C_9  and  N_10 
REMARK       I    between atoms: N_10  and  C_11 
REMARK    5  A    between atoms: C_11  and  C_12 
REMARK    6  A    between atoms: C_12  and  C_13 
REMARK    7  A    between atoms: C_13  and  C_14 
REMARK    8  A    between atoms: C_14  and  N_15 
REMARK       I    between atoms: N_15  and  C_16 
REMARK    9  A    between atoms: C_16  and  C_17 
REMARK   10  A    between atoms: C_17  and  N_18 
ROOT
HETATM    1  N   UNL     1      -3.460   4.625 -31.094  1.00  0.00    -0.360 N 
HETATM    2  C   UNL     1      -3.046   3.549 -31.849  1.00  0.00     0.235 C 
HETATM    3  O   UNL     1      -2.686   3.651 -33.020  1.00  0.00    -0.272 OA
HETATM    4  H   UNL     1      -3.898   4.448 -30.190  1.00  0.00     0.162 HD
ENDROOT
BRANCH   1   5
HETATM    5  C   UNL     1      -3.405   5.978 -31.605  1.00  0.00     0.123 C 
BRANCH   5   6
HETATM    6  C   UNL     1      -4.791   6.522 -31.953  1.00  0.00     0.029 C 
BRANCH   6   7
HETATM    7  C   UNL     1      -5.307   5.935 -33.264  1.00  0.00     0.104 C 
BRANCH   7   8
HETATM    8  C   UNL     1      -6.760   5.490 -33.249  1.00  0.00     0.217 C 
HETATM    9  N   UNL     1      -7.505   5.844 -32.150  1.00  0.00    -0.361 N 
HETATM   10  H   UNL     1      -7.032   6.196 -31.325  1.00  0.00     0.162 HD
HETATM   11  O   UNL     1      -7.293   4.957 -34.227  1.00  0.00    -0.274 OA
BRANCH   9  12
HETATM   12  C   UNL     1      -8.881   5.422 -31.991  1.00  0.00     0.124 C 
BRANCH  12  13
HETATM   13  C   UNL     1      -9.021   4.040 -31.356  1.00  0.00     0.047 C 
BRANCH  13  14
HETATM   14  C   UNL     1     -10.410   3.650 -30.844  1.00  0.00     0.236 C 
BRANCH  14  15
HETATM   15  N   UNL     1     -11.252   2.880 -31.835  1.00  0.00    -0.071 N 
HETATM   16  C   UNL     1     -12.372   3.682 -32.442  1.00  0.00     0.235 C 
HETATM   17  C   UNL     1     -13.199   2.821 -33.387  1.00  0.00     0.032 C 
HETATM   18  C   UNL     1     -12.361   2.133 -34.468  1.00  0.00    -0.016 C 
HETATM   19  C   UNL     1     -11.865   3.125 -35.524  1.00  0.00     0.010 C 
HETATM   20  C   UNL     1     -11.207   1.367 -33.816  1.00  0.00     0.032 C 
HETATM   21  C   UNL     1     -10.371   2.232 -32.883  1.00  0.00     0.235 C 
HETATM   22  H   UNL     1     -11.646   2.074 -31.301  1.00  0.00     0.279 HD
ENDBRANCH  14  15
ENDBRANCH  13  14
ENDBRANCH  12  13
ENDBRANCH   9  12
ENDBRANCH   7   8
ENDBRANCH   6   7
ENDBRANCH   5   6
ENDBRANCH   1   5
BRANCH   2  23
HETATM   23  C   UNL     1      -3.153   2.198 -31.155  1.00  0.00     0.235 C 
BRANCH  23  24
HETATM   24  N   UNL     1      -4.241   1.450 -31.757  1.00  0.00    -0.299 N 
HETATM   25  C   UNL     1      -4.011   0.132 -32.141  1.00  0.00     0.262 C 
HETATM   26  O   UNL     1      -2.965  -0.465 -31.885  1.00  0.00    -0.267 OA
HETATM   27  C   UNL     1      -5.134  -0.487 -32.821  1.00  0.00     0.075 A 
HETATM   28  C   UNL     1      -6.315   0.224 -32.877  1.00  0.00     0.115 A 
HETATM   29  C   UNL     1      -5.223  -1.747 -33.500  1.00  0.00    -0.026 A 
HETATM   30  S   UNL     1      -7.537  -0.634 -33.700  1.00  0.00    -0.073 SA
HETATM   31  N   UNL     1      -6.540   1.464 -32.371  1.00  0.00    -0.235 NA
HETATM   32  C   UNL     1      -6.484  -1.925 -34.040  1.00  0.00    -0.008 A 
HETATM   33  C   UNL     1      -6.925  -3.115 -34.836  1.00  0.00     0.047 C 
HETATM   34  C   UNL     1      -5.702  -3.886 -35.355  1.00  0.00     0.005 C 
HETATM   35  C   UNL     1      -4.652  -4.086 -34.253  1.00  0.00     0.005 C 
HETATM   36  C   UNL     1      -4.123  -2.746 -33.711  1.00  0.00     0.041 C 
HETATM   37  C   UNL     1      -5.494   2.026 -31.856  1.00  0.00     0.214 C 
ENDBRANCH  23  24
ENDBRANCH   2  23
TORSDOF 10
ENDMDL
MODEL 10
REMARK VINA RESULT:      -7.8      2.302      3.244
REMARK  10 active torsions:
REMARK  status: ('A' for Active; 'I' for Inactive)
REMARK    1  A    between atoms: N_5  and  C_7 
REMARK    2  A    between atoms: C_7  and  C_8 
REMARK    3  A    between atoms: C_8  and  C_9 
REMARK    4  A    between atoms: C_9  and  N_10 
REMARK       I    between atoms: N_10  and  C_11 
REMARK    5  A    between atoms: C_11  and  C_12 
REMARK    6  A    between atoms: C_12  and  C_13 
REMARK    7  A    between atoms: C_13  and  C_14 
REMARK    8  A    between atoms: C_14  and  N_15 
REMARK       I    between atoms: N_15  and  C_16 
REMARK    9  A    between atoms: C_16  and  C_17 
REMARK   10  A    between atoms: C_17  and  N_18 
ROOT
HETATM    1  N   UNL     1      -5.746   4.715 -30.972  1.00  0.00    -0.360 N 
HETATM    2  C   UNL     1      -6.924   4.828 -30.264  1.00  0.00     0.235 C 
HETATM    3  O   UNL     1      -7.541   5.886 -30.156  1.00  0.00    -0.272 OA
HETATM    4  H   UNL     1      -5.205   3.855 -30.886  1.00  0.00     0.162 HD
ENDROOT
BRANCH   1   5
HETATM    5  C   UNL     1      -5.203   5.825 -31.726  1.00  0.00     0.123 C 
BRANCH   5   6
HETATM    6  C   UNL     1      -5.629   5.791 -33.194  1.00  0.00     0.029 C 
BRANCH   6   7
HETATM    7  C   UNL     1      -4.840   4.747 -33.979  1.00  0.00     0.104 C 
BRANCH   7   8
HETATM    8  C   UNL     1      -3.328   4.862 -33.874  1.00  0.00     0.217 C 
HETATM    9  N   UNL     1      -2.767   6.051 -34.277  1.00  0.00    -0.361 N 
HETATM   10  H   UNL     1      -3.331   6.710 -34.804  1.00  0.00     0.162 HD
HETATM   11  O   UNL     1      -2.641   3.995 -33.328  1.00  0.00    -0.274 OA
BRANCH   9  12
HETATM   12  C   UNL     1      -1.334   6.256 -34.285  1.00  0.00     0.124 C 
BRANCH  12  13
HETATM   13  C   UNL     1      -0.833   7.078 -33.099  1.00  0.00     0.047 C 
BRANCH  13  14
HETATM   14  C   UNL     1      -1.849   7.393 -31.998  1.00  0.00     0.236 C 
BRANCH  14  15
HETATM   15  N   UNL     1      -1.411   6.998 -30.606  1.00  0.00    -0.071 N 
HETATM   16  C   UNL     1      -0.016   6.439 -30.538  1.00  0.00     0.235 C 
HETATM   17  C   UNL     1       0.327   6.020 -29.115  1.00  0.00     0.032 C 
HETATM   18  C   UNL     1       0.129   7.140 -28.091  1.00  0.00    -0.016 C 
HETATM   19  C   UNL     1       1.200   8.226 -28.216  1.00  0.00     0.010 C 
HETATM   20  C   UNL     1      -1.285   7.713 -28.221  1.00  0.00     0.032 C 
HETATM   21  C   UNL     1      -1.622   8.147 -29.641  1.00  0.00     0.235 C 
HETATM   22  H   UNL     1      -2.095   6.274 -30.292  1.00  0.00     0.279 HD
ENDBRANCH  14  15
ENDBRANCH  13  14
ENDBRANCH  12  13
ENDBRANCH   9  12
ENDBRANCH   7   8
ENDBRANCH   6   7
ENDBRANCH   5   6
ENDBRANCH   1   5
BRANCH   2  23
HETATM   23  C   UNL     1      -7.363   3.562 -29.543  1.00  0.00     0.235 C 
BRANCH  23  24
HETATM   24  N   UNL     1      -7.548   2.508 -30.523  1.00  0.00    -0.299 N 
HETATM   25  C   UNL     1      -6.535   1.566 -30.688  1.00  0.00     0.262 C 
HETATM   26  O   UNL     1      -5.545   1.517 -29.959  1.00  0.00    -0.267 OA
HETATM   27  C   UNL     1      -6.781   0.620 -31.761  1.00  0.00     0.075 A 
HETATM   28  C   UNL     1      -8.014   0.664 -32.378  1.00  0.00     0.115 A 
HETATM   29  C   UNL     1      -5.918  -0.370 -32.335  1.00  0.00    -0.026 A 
HETATM   30  S   UNL     1      -8.153  -0.507 -33.610  1.00  0.00    -0.073 SA
HETATM   31  N   UNL     1      -9.032   1.518 -32.098  1.00  0.00    -0.235 NA
HETATM   32  C   UNL     1      -6.553  -1.034 -33.370  1.00  0.00    -0.008 A 
HETATM   33  C   UNL     1      -5.943  -2.114 -34.210  1.00  0.00     0.047 C 
HETATM   34  C   UNL     1      -4.413  -2.081 -34.083  1.00  0.00     0.005 C 
HETATM   35  C   UNL     1      -3.970  -1.948 -32.619  1.00  0.00     0.005 C 
HETATM   36  C   UNL     1      -4.488  -0.650 -31.976  1.00  0.00     0.041 C 
HETATM   37  C   UNL     1      -8.747   2.409 -31.204  1.00  0.00     0.214 C 
ENDBRANCH  23  24
ENDBRANCH   2  23
TORSDOF 10
ENDMDL
