MODEL 1
REMARK VINA RESULT:      -9.0      0.000      0.000
REMARK  2 active torsions:
REMARK  status: ('A' for Active; 'I' for Inactive)
REMARK    1  A    between atoms: C_4  and  C_5 
REMARK       I    between atoms: C_5  and  N_6 
REMARK    2  A    between atoms: N_6  and  N_7 
ROOT
HETATM    1  N   UNL     1      -9.183  -0.297 -33.015  1.00  0.00    -0.282 N 
HETATM    2  C   UNL     1      -7.937  -0.014 -32.651  1.00  0.00     0.127 C 
HETATM    3  C   UNL     1      -6.821  -0.820 -33.215  1.00  0.00     0.015 A 
HETATM    4  C   UNL     1      -5.592  -0.853 -32.524  1.00  0.00    -0.042 A 
HETATM    5  C   UNL     1      -4.527  -1.630 -32.995  1.00  0.00     0.008 A 
HETATM    6  C   UNL     1      -4.661  -2.349 -34.179  1.00  0.00     0.001 A 
HETATM    7  C   UNL     1      -5.854  -2.295 -34.894  1.00  0.00     0.001 A 
HETATM    8  C   UNL     1      -6.927  -1.536 -34.419  1.00  0.00     0.016 A 
HETATM    9  C   UNL     1      -5.458  -0.061 -31.249  1.00  0.00     0.070 C 
HETATM   10  C   UNL     1      -6.255   1.251 -31.342  1.00  0.00     0.035 C 
HETATM   11  C   UNL     1      -6.313   1.975 -29.979  1.00  0.00     0.031 C 
HETATM   12  C   UNL     1      -5.553   3.281 -30.177  1.00  0.00     0.002 C 
HETATM   13  C   UNL     1      -5.797   3.619 -31.635  1.00  0.00     0.002 C 
HETATM   14  C   UNL     1      -5.646   2.271 -32.326  1.00  0.00     0.031 C 
HETATM   15  N   UNL     1      -7.650   0.954 -31.780  1.00  0.00    -0.365 N 
HETATM   16  H   UNL     1      -8.406   1.505 -31.412  1.00  0.00     0.162 HD
HETATM   17  H   UNL     1      -9.316  -1.109 -33.629  1.00  0.00     0.188 HD
ENDROOT
BRANCH   1  18
HETATM   18  N   UNL     1     -10.310   0.308 -32.643  1.00  0.00    -0.264 N 
HETATM   19  C   UNL     1     -10.850   1.172 -33.586  1.00  0.00     0.270 C 
HETATM   20  O   UNL     1     -10.307   1.325 -34.678  1.00  0.00    -0.266 OA
HETATM   21  H   UNL     1     -10.786   0.093 -31.776  1.00  0.00     0.190 HD
BRANCH  19  22
HETATM   22  C   UNL     1     -12.121   1.851 -33.237  1.00  0.00     0.033 A 
HETATM   23  C   UNL     1     -12.155   3.164 -32.746  1.00  0.00     0.017 A 
HETATM   24  C   UNL     1     -13.381   3.753 -32.428  1.00  0.00     0.001 A 
HETATM   25  C   UNL     1     -14.569   3.041 -32.604  1.00  0.00     0.000 A 
HETATM   26  C   UNL     1     -14.538   1.742 -33.109  1.00  0.00     0.001 A 
HETATM   27  C   UNL     1     -13.318   1.148 -33.431  1.00  0.00     0.017 A 
ENDBRANCH  19  22
ENDBRANCH   1  18
TORSDOF 2
ENDMDL
MODEL 2
REMARK VINA RESULT:      -8.8      3.268      7.198
REMARK  2 active torsions:
REMARK  status: ('A' for Active; 'I' for Inactive)
REMARK    1  A    between atoms: C_4  and  C_5 
REMARK       I    between atoms: C_5  and  N_6 
REMARK    2  A    between atoms: N_6  and  N_7 
ROOT
HETATM    1  N   UNL     1      -6.350   3.391 -34.043  1.00  0.00    -0.282 N 
HETATM    2  C   UNL     1      -6.549   2.163 -33.575  1.00  0.00     0.127 C 
HETATM    3  C   UNL     1      -7.938   1.636 -33.499  1.00  0.00     0.015 A 
HETATM    4  C   UNL     1      -8.212   0.573 -32.614  1.00  0.00    -0.042 A 
HETATM    5  C   UNL     1      -9.512   0.072 -32.479  1.00  0.00     0.008 A 
HETATM    6  C   UNL     1     -10.544   0.596 -33.253  1.00  0.00     0.001 A 
HETATM    7  C   UNL     1     -10.282   1.619 -34.159  1.00  0.00     0.001 A 
HETATM    8  C   UNL     1      -8.989   2.136 -34.285  1.00  0.00     0.016 A 
HETATM    9  C   UNL     1      -7.083   0.008 -31.792  1.00  0.00     0.070 C 
HETATM   10  C   UNL     1      -5.770   0.025 -32.592  1.00  0.00     0.035 C 
HETATM   11  C   UNL     1      -4.562  -0.344 -31.704  1.00  0.00     0.031 C 
HETATM   12  C   UNL     1      -4.027  -1.656 -32.264  1.00  0.00     0.002 C 
HETATM   13  C   UNL     1      -4.342  -1.567 -33.745  1.00  0.00     0.002 C 
HETATM   14  C   UNL     1      -5.748  -0.984 -33.759  1.00  0.00     0.031 C 
HETATM   15  N   UNL     1      -5.548   1.391 -33.151  1.00  0.00    -0.365 N 
HETATM   16  H   UNL     1      -4.609   1.745 -33.216  1.00  0.00     0.162 HD
HETATM   17  H   UNL     1      -7.185   3.942 -34.274  1.00  0.00     0.188 HD
ENDROOT
BRANCH   1  18
HETATM   18  N   UNL     1      -5.197   4.036 -34.206  1.00  0.00    -0.264 N 
HETATM   19  C   UNL     1      -4.922   5.000 -33.245  1.00  0.00     0.270 C 
HETATM   20  O   UNL     1      -5.705   5.200 -32.318  1.00  0.00    -0.266 OA
HETATM   21  H   UNL     1      -4.528   3.787 -34.923  1.00  0.00     0.190 HD
BRANCH  19  22
HETATM   22  C   UNL     1      -3.636   5.729 -33.361  1.00  0.00     0.033 A 
HETATM   23  C   UNL     1      -3.328   6.831 -32.551  1.00  0.00     0.017 A 
HETATM   24  C   UNL     1      -2.103   7.485 -32.707  1.00  0.00     0.001 A 
HETATM   25  C   UNL     1      -1.186   7.039 -33.660  1.00  0.00     0.000 A 
HETATM   26  C   UNL     1      -1.484   5.932 -34.453  1.00  0.00     0.001 A 
HETATM   27  C   UNL     1      -2.704   5.273 -34.301  1.00  0.00     0.017 A 
ENDBRANCH  19  22
ENDBRANCH   1  18
TORSDOF 2
ENDMDL
MODEL 3
REMARK VINA RESULT:      -8.7      3.036      6.782
REMARK  2 active torsions:
REMARK  status: ('A' for Active; 'I' for Inactive)
REMARK    1  A    between atoms: C_4  and  C_5 
REMARK       I    between atoms: C_5  and  N_6 
REMARK    2  A    between atoms: N_6  and  N_7 
ROOT
HETATM    1  N   UNL     1      -4.493   1.327 -32.985  1.00  0.00    -0.282 N 
HETATM    2  C   UNL     1      -5.550   0.632 -33.394  1.00  0.00     0.127 C 
HETATM    3  C   UNL     1      -5.380  -0.807 -33.732  1.00  0.00     0.015 A 
HETATM    4  C   UNL     1      -6.329  -1.421 -34.575  1.00  0.00    -0.042 A 
HETATM    5  C   UNL     1      -6.189  -2.762 -34.954  1.00  0.00     0.008 A 
HETATM    6  C   UNL     1      -5.125  -3.515 -34.464  1.00  0.00     0.001 A 
HETATM    7  C   UNL     1      -4.202  -2.934 -33.600  1.00  0.00     0.001 A 
HETATM    8  C   UNL     1      -4.327  -1.591 -33.233  1.00  0.00     0.016 A 
HETATM    9  C   UNL     1      -7.481  -0.597 -35.089  1.00  0.00     0.070 C 
HETATM   10  C   UNL     1      -7.937   0.416 -34.025  1.00  0.00     0.035 C 
HETATM   11  C   UNL     1      -8.966   1.414 -34.599  1.00  0.00     0.031 C 
HETATM   12  C   UNL     1     -10.261   1.148 -33.841  1.00  0.00     0.002 C 
HETATM   13  C   UNL     1      -9.788   0.689 -32.475  1.00  0.00     0.002 C 
HETATM   14  C   UNL     1      -8.629  -0.238 -32.811  1.00  0.00     0.031 C 
HETATM   15  N   UNL     1      -6.756   1.183 -33.532  1.00  0.00    -0.365 N 
HETATM   16  H   UNL     1      -6.870   2.152 -33.290  1.00  0.00     0.162 HD
HETATM   17  H   UNL     1      -3.589   0.840 -32.983  1.00  0.00     0.188 HD
ENDROOT
BRANCH   1  18
HETATM   18  N   UNL     1      -4.437   2.606 -32.622  1.00  0.00    -0.264 N 
HETATM   19  C   UNL     1      -3.493   2.897 -31.645  1.00  0.00     0.270 C 
HETATM   20  O   UNL     1      -2.773   2.011 -31.188  1.00  0.00    -0.266 OA
HETATM   21  H   UNL     1      -4.975   3.330 -33.080  1.00  0.00     0.190 HD
BRANCH  19  22
HETATM   22  C   UNL     1      -3.366   4.312 -31.222  1.00  0.00     0.033 A 
HETATM   23  C   UNL     1      -4.447   5.035 -30.701  1.00  0.00     0.017 A 
HETATM   24  C   UNL     1      -4.272   6.369 -30.323  1.00  0.00     0.001 A 
HETATM   25  C   UNL     1      -3.023   6.978 -30.458  1.00  0.00     0.000 A 
HETATM   26  C   UNL     1      -1.942   6.254 -30.959  1.00  0.00     0.001 A 
HETATM   27  C   UNL     1      -2.109   4.922 -31.335  1.00  0.00     0.017 A 
ENDBRANCH  19  22
ENDBRANCH   1  18
TORSDOF 2
ENDMDL
MODEL 4
REMARK VINA RESULT:      -8.6      3.951      7.728
REMARK  2 active torsions:
REMARK  status: ('A' for Active; 'I' for Inactive)
REMARK    1  A    between atoms: C_4  and  C_5 
REMARK       I    between atoms: C_5  and  N_6 
REMARK    2  A    between atoms: N_6  and  N_7 
ROOT
HETATM    1  N   UNL     1      -3.570   2.172 -32.007  1.00  0.00    -0.282 N 
HETATM    2  C   UNL     1      -4.856   2.043 -32.316  1.00  0.00     0.127 C 
HETATM    3  C   UNL     1      -5.301   0.836 -33.064  1.00  0.00     0.015 A 
HETATM    4  C   UNL     1      -6.513   0.893 -33.782  1.00  0.00    -0.042 A 
HETATM    5  C   UNL     1      -6.953  -0.203 -34.533  1.00  0.00     0.008 A 
HETATM    6  C   UNL     1      -6.210  -1.380 -34.544  1.00  0.00     0.001 A 
HETATM    7  C   UNL     1      -5.031  -1.466 -33.810  1.00  0.00     0.001 A 
HETATM    8  C   UNL     1      -4.579  -0.368 -33.072  1.00  0.00     0.016 A 
HETATM    9  C   UNL     1      -7.312   2.171 -33.752  1.00  0.00     0.070 C 
HETATM   10  C   UNL     1      -7.201   2.845 -32.374  1.00  0.00     0.035 C 
HETATM   11  C   UNL     1      -7.827   4.257 -32.384  1.00  0.00     0.031 C 
HETATM   12  C   UNL     1      -9.016   4.183 -31.432  1.00  0.00     0.002 C 
HETATM   13  C   UNL     1      -8.586   3.156 -30.402  1.00  0.00     0.002 C 
HETATM   14  C   UNL     1      -7.929   2.077 -31.253  1.00  0.00     0.031 C 
HETATM   15  N   UNL     1      -5.762   2.968 -31.998  1.00  0.00    -0.365 N 
HETATM   16  H   UNL     1      -5.460   3.776 -31.481  1.00  0.00     0.162 HD
HETATM   17  H   UNL     1      -2.932   1.448 -32.360  1.00  0.00     0.188 HD
ENDROOT
BRANCH   1  18
HETATM   18  N   UNL     1      -2.976   3.155 -31.335  1.00  0.00    -0.264 N 
HETATM   19  C   UNL     1      -2.311   4.086 -32.123  1.00  0.00     0.270 C 
HETATM   20  O   UNL     1      -2.309   3.980 -33.347  1.00  0.00    -0.266 OA
HETATM   21  H   UNL     1      -3.073   3.270 -30.334  1.00  0.00     0.190 HD
BRANCH  19  22
HETATM   22  C   UNL     1      -1.656   5.220 -31.428  1.00  0.00     0.033 A 
HETATM   23  C   UNL     1      -2.378   6.135 -30.649  1.00  0.00     0.017 A 
HETATM   24  C   UNL     1      -1.711   7.189 -30.021  1.00  0.00     0.001 A 
HETATM   25  C   UNL     1      -0.328   7.329 -30.162  1.00  0.00     0.000 A 
HETATM   26  C   UNL     1       0.393   6.409 -30.922  1.00  0.00     0.001 A 
HETATM   27  C   UNL     1      -0.266   5.353 -31.550  1.00  0.00     0.017 A 
ENDBRANCH  19  22
ENDBRANCH   1  18
TORSDOF 2
ENDMDL
MODEL 5
REMARK VINA RESULT:      -8.6      2.452      7.400
REMARK  2 active torsions:
REMARK  status: ('A' for Active; 'I' for Inactive)
REMARK    1  A    between atoms: C_4  and  C_5 
REMARK       I    between atoms: C_5  and  N_6 
REMARK    2  A    between atoms: N_6  and  N_7 
ROOT
HETATM    1  N   UNL     1      -7.488   1.209 -33.835  1.00  0.00    -0.282 N 
HETATM    2  C   UNL     1      -8.618   1.902 -33.745  1.00  0.00     0.127 C 
HETATM    3  C   UNL     1      -8.551   3.354 -33.427  1.00  0.00     0.015 A 
HETATM    4  C   UNL     1      -9.692   3.983 -32.886  1.00  0.00    -0.042 A 
HETATM    5  C   UNL     1      -9.663   5.337 -32.533  1.00  0.00     0.008 A 
HETATM    6  C   UNL     1      -8.511   6.088 -32.753  1.00  0.00     0.001 A 
HETATM    7  C   UNL     1      -7.390   5.492 -33.321  1.00  0.00     0.001 A 
HETATM    8  C   UNL     1      -7.407   4.136 -33.659  1.00  0.00     0.016 A 
HETATM    9  C   UNL     1     -10.934   3.160 -32.665  1.00  0.00     0.070 C 
HETATM   10  C   UNL     1     -11.089   2.105 -33.773  1.00  0.00     0.035 C 
HETATM   11  C   UNL     1     -12.227   1.112 -33.454  1.00  0.00     0.031 C 
HETATM   12  C   UNL     1     -13.278   1.334 -34.536  1.00  0.00     0.002 C 
HETATM   13  C   UNL     1     -12.464   1.752 -35.745  1.00  0.00     0.002 C 
HETATM   14  C   UNL     1     -11.439   2.707 -35.150  1.00  0.00     0.031 C 
HETATM   15  N   UNL     1      -9.816   1.339 -33.909  1.00  0.00    -0.365 N 
HETATM   16  H   UNL     1      -9.857   0.360 -34.137  1.00  0.00     0.162 HD
HETATM   17  H   UNL     1      -6.617   1.709 -33.617  1.00  0.00     0.188 HD
ENDROOT
BRANCH   1  18
HETATM   18  N   UNL     1      -7.331  -0.081 -34.123  1.00  0.00    -0.264 N 
HETATM   19  C   UNL     1      -6.048  -0.574 -33.924  1.00  0.00     0.270 C 
HETATM   20  O   UNL     1      -5.157   0.156 -33.496  1.00  0.00    -0.266 OA
HETATM   21  H   UNL     1      -8.103  -0.681 -34.384  1.00  0.00     0.190 HD
BRANCH  19  22
HETATM   22  C   UNL     1      -5.822  -2.013 -34.202  1.00  0.00     0.033 A 
HETATM   23  C   UNL     1      -4.571  -2.620 -34.025  1.00  0.00     0.017 A 
HETATM   24  C   UNL     1      -4.413  -3.979 -34.306  1.00  0.00     0.001 A 
HETATM   25  C   UNL     1      -5.499  -4.733 -34.756  1.00  0.00     0.000 A 
HETATM   26  C   UNL     1      -6.748  -4.135 -34.915  1.00  0.00     0.001 A 
HETATM   27  C   UNL     1      -6.913  -2.779 -34.633  1.00  0.00     0.017 A 
ENDBRANCH  19  22
ENDBRANCH   1  18
TORSDOF 2
ENDMDL
MODEL 6
REMARK VINA RESULT:      -8.6      3.345      7.558
REMARK  2 active torsions:
REMARK  status: ('A' for Active; 'I' for Inactive)
REMARK    1  A    between atoms: C_4  and  C_5 
REMARK       I    between atoms: C_5  and  N_6 
REMARK    2  A    between atoms: N_6  and  N_7 
ROOT
HETATM    1  N   UNL     1      -6.632   3.628 -34.054  1.00  0.00    -0.282 N 
HETATM    2  C   UNL     1      -7.129   2.409 -33.877  1.00  0.00     0.127 C 
HETATM    3  C   UNL     1      -8.605   2.233 -33.813  1.00  0.00     0.015 A 
HETATM    4  C   UNL     1      -9.123   1.081 -33.185  1.00  0.00    -0.042 A 
HETATM    5  C   UNL     1     -10.505   0.893 -33.066  1.00  0.00     0.008 A 
HETATM    6  C   UNL     1     -11.384   1.828 -33.605  1.00  0.00     0.001 A 
HETATM    7  C   UNL     1     -10.888   2.950 -34.261  1.00  0.00     0.001 A 
HETATM    8  C   UNL     1      -9.509   3.153 -34.368  1.00  0.00     0.016 A 
HETATM    9  C   UNL     1      -8.160   0.072 -32.616  1.00  0.00     0.070 C 
HETATM   10  C   UNL     1      -6.903  -0.030 -33.496  1.00  0.00     0.035 C 
HETATM   11  C   UNL     1      -5.811  -0.891 -32.824  1.00  0.00     0.031 C 
HETATM   12  C   UNL     1      -5.641  -2.111 -33.722  1.00  0.00     0.002 C 
HETATM   13  C   UNL     1      -5.953  -1.580 -35.108  1.00  0.00     0.002 C 
HETATM   14  C   UNL     1      -7.163  -0.689 -34.866  1.00  0.00     0.031 C 
HETATM   15  N   UNL     1      -6.350   1.335 -33.731  1.00  0.00    -0.365 N 
HETATM   16  H   UNL     1      -5.353   1.456 -33.789  1.00  0.00     0.162 HD
HETATM   17  H   UNL     1      -7.304   4.405 -34.078  1.00  0.00     0.188 HD
ENDROOT
BRANCH   1  18
HETATM   18  N   UNL     1      -5.356   3.994 -34.155  1.00  0.00    -0.264 N 
HETATM   19  C   UNL     1      -5.076   5.278 -33.705  1.00  0.00     0.270 C 
HETATM   20  O   UNL     1      -5.967   5.985 -33.239  1.00  0.00    -0.266 OA
HETATM   21  H   UNL     1      -4.627   3.359 -34.455  1.00  0.00     0.190 HD
BRANCH  19  22
HETATM   22  C   UNL     1      -3.665   5.727 -33.766  1.00  0.00     0.033 A 
HETATM   23  C   UNL     1      -2.751   5.194 -34.686  1.00  0.00     0.017 A 
HETATM   24  C   UNL     1      -1.432   5.651 -34.697  1.00  0.00     0.001 A 
HETATM   25  C   UNL     1      -1.024   6.640 -33.800  1.00  0.00     0.000 A 
HETATM   26  C   UNL     1      -1.936   7.184 -32.896  1.00  0.00     0.001 A 
HETATM   27  C   UNL     1      -3.256   6.735 -32.882  1.00  0.00     0.017 A 
ENDBRANCH  19  22
ENDBRANCH   1  18
TORSDOF 2
ENDMDL
MODEL 7
REMARK VINA RESULT:      -8.3      3.160      6.923
REMARK  2 active torsions:
REMARK  status: ('A' for Active; 'I' for Inactive)
REMARK    1  A    between atoms: C_4  and  C_5 
REMARK       I    between atoms: C_5  and  N_6 
REMARK    2  A    between atoms: N_6  and  N_7 
ROOT
HETATM    1  N   UNL     1      -4.789   1.081 -33.016  1.00  0.00    -0.282 N 
HETATM    2  C   UNL     1      -5.410   2.108 -32.447  1.00  0.00     0.127 C 
HETATM    3  C   UNL     1      -4.613   3.296 -32.037  1.00  0.00     0.015 A 
HETATM    4  C   UNL     1      -5.140   4.158 -31.053  1.00  0.00    -0.042 A 
HETATM    5  C   UNL     1      -4.409   5.266 -30.607  1.00  0.00     0.008 A 
HETATM    6  C   UNL     1      -3.164   5.547 -31.163  1.00  0.00     0.001 A 
HETATM    7  C   UNL     1      -2.648   4.728 -32.163  1.00  0.00     0.001 A 
HETATM    8  C   UNL     1      -3.366   3.611 -32.599  1.00  0.00     0.016 A 
HETATM    9  C   UNL     1      -6.493   3.847 -30.468  1.00  0.00     0.070 C 
HETATM   10  C   UNL     1      -7.418   3.242 -31.537  1.00  0.00     0.035 C 
HETATM   11  C   UNL     1      -8.730   2.715 -30.916  1.00  0.00     0.031 C 
HETATM   12  C   UNL     1      -9.838   3.582 -31.504  1.00  0.00     0.002 C 
HETATM   13  C   UNL     1      -9.317   3.942 -32.882  1.00  0.00     0.002 C 
HETATM   14  C   UNL     1      -7.850   4.252 -32.620  1.00  0.00     0.031 C 
HETATM   15  N   UNL     1      -6.722   2.106 -32.208  1.00  0.00    -0.365 N 
HETATM   16  H   UNL     1      -7.260   1.307 -32.499  1.00  0.00     0.162 HD
HETATM   17  H   UNL     1      -3.766   1.138 -33.089  1.00  0.00     0.188 HD
ENDROOT
BRANCH   1  18
HETATM   18  N   UNL     1      -5.315  -0.056 -33.466  1.00  0.00    -0.264 N 
HETATM   19  C   UNL     1      -4.430  -1.124 -33.540  1.00  0.00     0.270 C 
HETATM   20  O   UNL     1      -3.259  -0.990 -33.191  1.00  0.00    -0.266 OA
HETATM   21  H   UNL     1      -6.303  -0.164 -33.658  1.00  0.00     0.190 HD
BRANCH  19  22
HETATM   22  C   UNL     1      -4.969  -2.423 -34.007  1.00  0.00     0.033 A 
HETATM   23  C   UNL     1      -4.214  -3.604 -33.964  1.00  0.00     0.017 A 
HETATM   24  C   UNL     1      -4.770  -4.800 -34.422  1.00  0.00     0.001 A 
HETATM   25  C   UNL     1      -6.076  -4.824 -34.915  1.00  0.00     0.000 A 
HETATM   26  C   UNL     1      -6.834  -3.654 -34.943  1.00  0.00     0.001 A 
HETATM   27  C   UNL     1      -6.286  -2.456 -34.484  1.00  0.00     0.017 A 
ENDBRANCH  19  22
ENDBRANCH   1  18
TORSDOF 2
ENDMDL
MODEL 8
REMARK VINA RESULT:      -8.1      3.901      7.451
REMARK  2 active torsions:
REMARK  status: ('A' for Active; 'I' for Inactive)
REMARK    1  A    between atoms: C_4  and  C_5 
REMARK       I    between atoms: C_5  and  N_6 
REMARK    2  A    between atoms: N_6  and  N_7 
ROOT
HETATM    1  N   UNL     1      -3.547   2.718 -31.489  1.00  0.00    -0.282 N 
HETATM    2  C   UNL     1      -4.509   1.944 -31.982  1.00  0.00     0.127 C 
HETATM    3  C   UNL     1      -4.224   0.504 -32.223  1.00  0.00     0.015 A 
HETATM    4  C   UNL     1      -5.031  -0.202 -33.138  1.00  0.00    -0.042 A 
HETATM    5  C   UNL     1      -4.775  -1.548 -33.428  1.00  0.00     0.008 A 
HETATM    6  C   UNL     1      -3.739  -2.214 -32.779  1.00  0.00     0.001 A 
HETATM    7  C   UNL     1      -2.958  -1.541 -31.844  1.00  0.00     0.001 A 
HETATM    8  C   UNL     1      -3.197  -0.193 -31.565  1.00  0.00     0.016 A 
HETATM    9  C   UNL     1      -6.156   0.529 -33.824  1.00  0.00     0.070 C 
HETATM   10  C   UNL     1      -6.789   1.559 -32.875  1.00  0.00     0.035 C 
HETATM   11  C   UNL     1      -7.793   2.468 -33.616  1.00  0.00     0.031 C 
HETATM   12  C   UNL     1      -9.154   2.161 -33.001  1.00  0.00     0.002 C 
HETATM   13  C   UNL     1      -8.824   1.793 -31.568  1.00  0.00     0.002 C 
HETATM   14  C   UNL     1      -7.585   0.921 -31.718  1.00  0.00     0.031 C 
HETATM   15  N   UNL     1      -5.718   2.417 -32.288  1.00  0.00    -0.365 N 
HETATM   16  H   UNL     1      -5.911   3.388 -32.111  1.00  0.00     0.162 HD
HETATM   17  H   UNL     1      -2.625   2.286 -31.356  1.00  0.00     0.188 HD
ENDROOT
BRANCH   1  18
HETATM   18  N   UNL     1      -3.602   4.014 -31.188  1.00  0.00    -0.264 N 
HETATM   19  C   UNL     1      -2.449   4.733 -31.477  1.00  0.00     0.270 C 
HETATM   20  O   UNL     1      -1.478   4.178 -31.987  1.00  0.00    -0.266 OA
HETATM   21  H   UNL     1      -4.446   4.463 -30.857  1.00  0.00     0.190 HD
BRANCH  19  22
HETATM   22  C   UNL     1      -2.465   6.187 -31.189  1.00  0.00     0.033 A 
HETATM   23  C   UNL     1      -1.993   7.134 -32.108  1.00  0.00     0.017 A 
HETATM   24  C   UNL     1      -2.027   8.492 -31.783  1.00  0.00     0.001 A 
HETATM   25  C   UNL     1      -2.534   8.907 -30.550  1.00  0.00     0.000 A 
HETATM   26  C   UNL     1      -3.020   7.967 -29.642  1.00  0.00     0.001 A 
HETATM   27  C   UNL     1      -2.992   6.609 -29.961  1.00  0.00     0.017 A 
ENDBRANCH  19  22
ENDBRANCH   1  18
TORSDOF 2
ENDMDL
MODEL 9
REMARK VINA RESULT:      -8.1      2.378      7.214
REMARK  2 active torsions:
REMARK  status: ('A' for Active; 'I' for Inactive)
REMARK    1  A    between atoms: C_4  and  C_5 
REMARK       I    between atoms: C_5  and  N_6 
REMARK    2  A    between atoms: N_6  and  N_7 
ROOT
HETATM    1  N   UNL     1      -7.579   1.270 -31.712  1.00  0.00    -0.282 N 
HETATM    2  C   UNL     1      -8.498   2.217 -31.864  1.00  0.00     0.127 C 
HETATM    3  C   UNL     1      -8.424   3.438 -31.017  1.00  0.00     0.015 A 
HETATM    4  C   UNL     1      -9.591   4.207 -30.833  1.00  0.00    -0.042 A 
HETATM    5  C   UNL     1      -9.579   5.341 -30.012  1.00  0.00     0.008 A 
HETATM    6  C   UNL     1      -8.395   5.743 -29.399  1.00  0.00     0.001 A 
HETATM    7  C   UNL     1      -7.226   5.017 -29.603  1.00  0.00     0.001 A 
HETATM    8  C   UNL     1      -7.236   3.874 -30.407  1.00  0.00     0.016 A 
HETATM    9  C   UNL     1     -10.862   3.766 -31.511  1.00  0.00     0.070 C 
HETATM   10  C   UNL     1     -10.555   3.150 -32.886  1.00  0.00     0.035 C 
HETATM   11  C   UNL     1     -11.810   2.495 -33.505  1.00  0.00     0.031 C 
HETATM   12  C   UNL     1     -12.118   3.307 -34.758  1.00  0.00     0.002 C 
HETATM   13  C   UNL     1     -10.754   3.776 -35.225  1.00  0.00     0.002 C 
HETATM   14  C   UNL     1     -10.071   4.180 -33.927  1.00  0.00     0.031 C 
HETATM   15  N   UNL     1      -9.501   2.105 -32.736  1.00  0.00    -0.365 N 
HETATM   16  H   UNL     1      -9.540   1.284 -33.317  1.00  0.00     0.162 HD
HETATM   17  H   UNL     1      -6.889   1.407 -30.963  1.00  0.00     0.188 HD
ENDROOT
BRANCH   1  18
HETATM   18  N   UNL     1      -7.458   0.122 -32.375  1.00  0.00    -0.264 N 
HETATM   19  C   UNL     1      -6.205  -0.107 -32.928  1.00  0.00     0.270 C 
HETATM   20  O   UNL     1      -5.297   0.709 -32.779  1.00  0.00    -0.266 OA
HETATM   21  H   UNL     1      -8.192  -0.574 -32.403  1.00  0.00     0.190 HD
BRANCH  19  22
HETATM   22  C   UNL     1      -6.004  -1.384 -33.653  1.00  0.00     0.033 A 
HETATM   23  C   UNL     1      -7.078  -2.146 -34.133  1.00  0.00     0.017 A 
HETATM   24  C   UNL     1      -6.832  -3.345 -34.806  1.00  0.00     0.001 A 
HETATM   25  C   UNL     1      -5.521  -3.782 -35.005  1.00  0.00     0.000 A 
HETATM   26  C   UNL     1      -4.451  -3.016 -34.543  1.00  0.00     0.001 A 
HETATM   27  C   UNL     1      -4.690  -1.817 -33.873  1.00  0.00     0.017 A 
ENDBRANCH  19  22
ENDBRANCH   1  18
TORSDOF 2
ENDMDL
MODEL 10
REMARK VINA RESULT:      -8.0     14.557     15.733
REMARK  2 active torsions:
REMARK  status: ('A' for Active; 'I' for Inactive)
REMARK    1  A    between atoms: C_4  and  C_5 
REMARK       I    between atoms: C_5  and  N_6 
REMARK    2  A    between atoms: N_6  and  N_7 
ROOT
HETATM    1  N   UNL     1      -5.613 -12.692 -38.781  1.00  0.00    -0.282 N 
HETATM    2  C   UNL     1      -5.081 -13.173 -37.661  1.00  0.00     0.127 C 
HETATM    3  C   UNL     1      -3.603 -13.314 -37.567  1.00  0.00     0.015 A 
HETATM    4  C   UNL     1      -3.067 -14.214 -36.624  1.00  0.00    -0.042 A 
HETATM    5  C   UNL     1      -1.684 -14.410 -36.527  1.00  0.00     0.008 A 
HETATM    6  C   UNL     1      -0.820 -13.681 -37.339  1.00  0.00     0.001 A 
HETATM    7  C   UNL     1      -1.332 -12.760 -38.248  1.00  0.00     0.001 A 
HETATM    8  C   UNL     1      -2.712 -12.574 -38.362  1.00  0.00     0.016 A 
HETATM    9  C   UNL     1      -4.014 -14.988 -35.744  1.00  0.00     0.070 C 
HETATM   10  C   UNL     1      -5.237 -14.130 -35.380  1.00  0.00     0.035 C 
HETATM   11  C   UNL     1      -6.321 -14.965 -34.664  1.00  0.00     0.031 C 
HETATM   12  C   UNL     1      -6.419 -14.386 -33.257  1.00  0.00     0.002 C 
HETATM   13  C   UNL     1      -6.080 -12.921 -33.448  1.00  0.00     0.002 C 
HETATM   14  C   UNL     1      -4.909 -12.968 -34.420  1.00  0.00     0.031 C 
HETATM   15  N   UNL     1      -5.827 -13.556 -36.624  1.00  0.00    -0.365 N 
HETATM   16  H   UNL     1      -6.825 -13.447 -36.687  1.00  0.00     0.162 HD
HETATM   17  H   UNL     1      -4.968 -12.496 -39.555  1.00  0.00     0.188 HD
ENDROOT
BRANCH   1  18
HETATM   18  N   UNL     1      -6.896 -12.474 -39.058  1.00  0.00    -0.264 N 
HETATM   19  C   UNL     1      -7.513 -13.471 -39.803  1.00  0.00     0.270 C 
HETATM   20  O   UNL     1      -6.887 -14.472 -40.146  1.00  0.00    -0.266 OA
HETATM   21  H   UNL     1      -7.411 -11.687 -38.684  1.00  0.00     0.190 HD
BRANCH  19  22
HETATM   22  C   UNL     1      -8.951 -13.295 -40.117  1.00  0.00     0.033 A 
HETATM   23  C   UNL     1      -9.777 -14.374 -40.462  1.00  0.00     0.017 A 
HETATM   24  C   UNL     1     -11.125 -14.149 -40.753  1.00  0.00     0.001 A 
HETATM   25  C   UNL     1     -11.650 -12.857 -40.694  1.00  0.00     0.000 A 
HETATM   26  C   UNL     1     -10.834 -11.786 -40.333  1.00  0.00     0.001 A 
HETATM   27  C   UNL     1      -9.488 -12.003 -40.038  1.00  0.00     0.017 A 
ENDBRANCH  19  22
ENDBRANCH   1  18
TORSDOF 2
ENDMDL
