MODEL 1
REMARK VINA RESULT:      -8.4      0.000      0.000
REMARK  3 active torsions:
REMARK  status: ('A' for Active; 'I' for Inactive)
REMARK    1  A    between atoms: C_4  and  N_5 
REMARK       I    between atoms: N_5  and  C_6 
REMARK    2  A    between atoms: C_6  and  C_7 
REMARK    3  A    between atoms: C_7  and  C_8 
ROOT
HETATM    1  C   UNL     1      -4.058 -14.030 -40.062  1.00  0.00     0.286 C 
HETATM    2  N   UNL     1      -3.037 -14.263 -38.953  1.00  0.00    -0.056 N 
HETATM    3  H   UNL     1      -2.447 -13.404 -38.921  1.00  0.00     0.278 HD
HETATM    4  H   UNL     1      -3.504 -14.311 -38.040  1.00  0.00     0.278 HD
HETATM    5  C   UNL     1      -2.175 -15.477 -39.191  1.00  0.00     0.209 C 
HETATM    6  C   UNL     1      -1.457 -15.334 -40.557  1.00  0.00     0.115 C 
HETATM    7  N   UNL     1      -2.390 -15.012 -41.633  1.00  0.00    -0.353 N 
HETATM    8  C   UNL     1      -3.472 -14.182 -41.485  1.00  0.00     0.249 C 
HETATM    9  O   UNL     1      -3.993 -13.675 -42.472  1.00  0.00    -0.271 OA
HETATM   10  C   UNL     1      -1.195 -15.636 -38.028  1.00  0.00     0.035 C 
HETATM   11  C   UNL     1      -0.087 -14.584 -38.024  1.00  0.00     0.002 C 
HETATM   12  C   UNL     1       0.638 -14.530 -39.364  1.00  0.00     0.002 C 
HETATM   13  C   UNL     1      -0.325 -14.294 -40.521  1.00  0.00     0.027 C 
HETATM   14  H   UNL     1      -2.057 -15.074 -42.594  1.00  0.00     0.163 HD
ENDROOT
BRANCH   1  15
HETATM   15  C   UNL     1      -4.757 -12.672 -39.907  1.00  0.00     0.146 C 
BRANCH  15  16
HETATM   16  C   UNL     1      -5.072 -12.427 -38.449  1.00  0.00     0.224 C 
HETATM   17  N   UNL     1      -6.310 -12.612 -37.928  1.00  0.00    -0.327 N 
HETATM   18  H   UNL     1      -6.414 -12.199 -37.006  1.00  0.00     0.169 HD
HETATM   19  O   UNL     1      -4.163 -12.003 -37.721  1.00  0.00    -0.273 OA
BRANCH  17  20
HETATM   20  C   UNL     1      -7.479 -13.181 -38.464  1.00  0.00     0.035 A 
HETATM   21  C   UNL     1      -7.802 -14.536 -38.382  1.00  0.00     0.036 A 
HETATM   22  C   UNL     1      -8.992 -15.022 -38.946  1.00  0.00    -0.059 A 
HETATM   23  C   UNL     1      -9.366 -16.470 -38.822  1.00  0.00     0.048 C 
HETATM   24  C   UNL     1      -9.870 -14.130 -39.574  1.00  0.00     0.013 A 
HETATM   25  C   UNL     1      -9.568 -12.767 -39.649  1.00  0.00    -0.059 A 
HETATM   26  C   UNL     1      -8.386 -12.299 -39.065  1.00  0.00     0.036 A 
HETATM   27  C   UNL     1     -10.528 -11.813 -40.301  1.00  0.00     0.048 C 
ENDBRANCH  17  20
ENDBRANCH  15  16
ENDBRANCH   1  15
TORSDOF 3
ENDMDL
MODEL 2
REMARK VINA RESULT:      -8.3     16.116     18.279
REMARK  3 active torsions:
REMARK  status: ('A' for Active; 'I' for Inactive)
REMARK    1  A    between atoms: C_4  and  N_5 
REMARK       I    between atoms: N_5  and  C_6 
REMARK    2  A    between atoms: C_6  and  C_7 
REMARK    3  A    between atoms: C_7  and  C_8 
ROOT
HETATM    1  C   UNL     1      -5.250   3.756 -32.053  1.00  0.00     0.286 C 
HETATM    2  N   UNL     1      -4.409   3.863 -33.321  1.00  0.00    -0.056 N 
HETATM    3  H   UNL     1      -3.464   3.501 -33.069  1.00  0.00     0.278 HD
HETATM    4  H   UNL     1      -4.766   3.225 -34.042  1.00  0.00     0.278 HD
HETATM    5  C   UNL     1      -4.303   5.274 -33.842  1.00  0.00     0.209 C 
HETATM    6  C   UNL     1      -3.717   6.185 -32.733  1.00  0.00     0.115 C 
HETATM    7  N   UNL     1      -4.436   6.039 -31.470  1.00  0.00    -0.353 N 
HETATM    8  C   UNL     1      -4.931   4.847 -31.005  1.00  0.00     0.249 C 
HETATM    9  O   UNL     1      -5.195   4.718 -29.815  1.00  0.00    -0.271 OA
HETATM   10  C   UNL     1      -3.455   5.280 -35.113  1.00  0.00     0.035 C 
HETATM   11  C   UNL     1      -1.970   5.037 -34.851  1.00  0.00     0.002 C 
HETATM   12  C   UNL     1      -1.421   6.003 -33.807  1.00  0.00     0.002 C 
HETATM   13  C   UNL     1      -2.215   5.946 -32.508  1.00  0.00     0.027 C 
HETATM   14  H   UNL     1      -4.253   6.717 -30.732  1.00  0.00     0.163 HD
ENDROOT
BRANCH   1  15
HETATM   15  C   UNL     1      -5.149   2.358 -31.427  1.00  0.00     0.146 C 
BRANCH  15  16
HETATM   16  C   UNL     1      -3.790   1.767 -31.720  1.00  0.00     0.224 C 
HETATM   17  N   UNL     1      -3.628   0.634 -32.448  1.00  0.00    -0.327 N 
HETATM   18  H   UNL     1      -2.692   0.248 -32.370  1.00  0.00     0.169 HD
HETATM   19  O   UNL     1      -2.795   2.328 -31.239  1.00  0.00    -0.273 OA
BRANCH  17  20
HETATM   20  C   UNL     1      -4.532  -0.135 -33.201  1.00  0.00     0.035 A 
HETATM   21  C   UNL     1      -5.708   0.361 -33.764  1.00  0.00     0.036 A 
HETATM   22  C   UNL     1      -6.557  -0.478 -34.503  1.00  0.00    -0.059 A 
HETATM   23  C   UNL     1      -7.800   0.061 -35.148  1.00  0.00     0.048 C 
HETATM   24  C   UNL     1      -6.201  -1.819 -34.694  1.00  0.00     0.013 A 
HETATM   25  C   UNL     1      -5.017  -2.327 -34.152  1.00  0.00    -0.059 A 
HETATM   26  C   UNL     1      -4.176  -1.470 -33.433  1.00  0.00     0.036 A 
HETATM   27  C   UNL     1      -4.630  -3.759 -34.384  1.00  0.00     0.048 C 
ENDBRANCH  17  20
ENDBRANCH  15  16
ENDBRANCH   1  15
TORSDOF 3
ENDMDL
MODEL 3
REMARK VINA RESULT:      -8.3     14.481     16.871
REMARK  3 active torsions:
REMARK  status: ('A' for Active; 'I' for Inactive)
REMARK    1  A    between atoms: C_4  and  N_5 
REMARK       I    between atoms: N_5  and  C_6 
REMARK    2  A    between atoms: C_6  and  C_7 
REMARK    3  A    between atoms: C_7  and  C_8 
ROOT
HETATM    1  C   UNL     1      -7.440   1.590 -31.495  1.00  0.00     0.286 C 
HETATM    2  N   UNL     1      -6.793   2.748 -32.249  1.00  0.00    -0.056 N 
HETATM    3  H   UNL     1      -6.263   2.315 -33.037  1.00  0.00     0.278 HD
HETATM    4  H   UNL     1      -7.510   3.336 -32.688  1.00  0.00     0.278 HD
HETATM    5  C   UNL     1      -5.865   3.567 -31.388  1.00  0.00     0.209 C 
HETATM    6  C   UNL     1      -4.775   2.643 -30.788  1.00  0.00     0.115 C 
HETATM    7  N   UNL     1      -5.352   1.468 -30.140  1.00  0.00    -0.353 N 
HETATM    8  C   UNL     1      -6.451   0.796 -30.611  1.00  0.00     0.249 C 
HETATM    9  O   UNL     1      -6.666  -0.355 -30.248  1.00  0.00    -0.271 OA
HETATM   10  C   UNL     1      -5.274   4.704 -32.222  1.00  0.00     0.035 C 
HETATM   11  C   UNL     1      -4.249   4.229 -33.250  1.00  0.00     0.002 C 
HETATM   12  C   UNL     1      -3.157   3.384 -32.602  1.00  0.00     0.002 C 
HETATM   13  C   UNL     1      -3.736   2.204 -31.832  1.00  0.00     0.027 C 
HETATM   14  H   UNL     1      -4.744   0.892 -29.560  1.00  0.00     0.163 HD
ENDROOT
BRANCH   1  15
HETATM   15  C   UNL     1      -8.192   0.649 -32.447  1.00  0.00     0.146 C 
BRANCH  15  16
HETATM   16  C   UNL     1      -7.866   1.008 -33.878  1.00  0.00     0.224 C 
HETATM   17  N   UNL     1      -6.894   0.380 -34.585  1.00  0.00    -0.327 N 
HETATM   18  H   UNL     1      -6.647   0.875 -35.438  1.00  0.00     0.169 HD
HETATM   19  O   UNL     1      -8.493   1.941 -34.401  1.00  0.00    -0.273 OA
BRANCH  17  20
HETATM   20  C   UNL     1      -6.119  -0.759 -34.309  1.00  0.00     0.035 A 
HETATM   21  C   UNL     1      -5.027  -0.775 -33.440  1.00  0.00     0.036 A 
HETATM   22  C   UNL     1      -4.306  -1.959 -33.220  1.00  0.00    -0.059 A 
HETATM   23  C   UNL     1      -3.160  -1.993 -32.252  1.00  0.00     0.048 C 
HETATM   24  C   UNL     1      -4.704  -3.136 -33.864  1.00  0.00     0.013 A 
HETATM   25  C   UNL     1      -5.806  -3.141 -34.725  1.00  0.00    -0.059 A 
HETATM   26  C   UNL     1      -6.523  -1.954 -34.916  1.00  0.00     0.036 A 
HETATM   27  C   UNL     1      -6.243  -4.413 -35.391  1.00  0.00     0.048 C 
ENDBRANCH  17  20
ENDBRANCH  15  16
ENDBRANCH   1  15
TORSDOF 3
ENDMDL
MODEL 4
REMARK VINA RESULT:      -8.3     14.636     17.108
REMARK  3 active torsions:
REMARK  status: ('A' for Active; 'I' for Inactive)
REMARK    1  A    between atoms: C_4  and  N_5 
REMARK       I    between atoms: N_5  and  C_6 
REMARK    2  A    between atoms: C_6  and  C_7 
REMARK    3  A    between atoms: C_7  and  C_8 
ROOT
HETATM    1  C   UNL     1      -8.186   1.483 -31.516  1.00  0.00     0.286 C 
HETATM    2  N   UNL     1      -8.010   2.741 -32.362  1.00  0.00    -0.056 N 
HETATM    3  H   UNL     1      -7.578   2.425 -33.258  1.00  0.00     0.278 HD
HETATM    4  H   UNL     1      -8.923   3.131 -32.619  1.00  0.00     0.278 HD
HETATM    5  C   UNL     1      -7.136   3.778 -31.703  1.00  0.00     0.209 C 
HETATM    6  C   UNL     1      -5.755   3.152 -31.379  1.00  0.00     0.115 C 
HETATM    7  N   UNL     1      -5.884   1.892 -30.653  1.00  0.00    -0.353 N 
HETATM    8  C   UNL     1      -6.869   0.968 -30.891  1.00  0.00     0.249 C 
HETATM    9  O   UNL     1      -6.722  -0.191 -30.520  1.00  0.00    -0.271 OA
HETATM   10  C   UNL     1      -7.026   4.999 -32.615  1.00  0.00     0.035 C 
HETATM   11  C   UNL     1      -6.167   4.753 -33.854  1.00  0.00     0.002 C 
HETATM   12  C   UNL     1      -4.793   4.207 -33.482  1.00  0.00     0.002 C 
HETATM   13  C   UNL     1      -4.895   2.943 -32.636  1.00  0.00     0.027 C 
HETATM   14  H   UNL     1      -5.046   1.490 -30.234  1.00  0.00     0.163 HD
ENDROOT
BRANCH   1  15
HETATM   15  C   UNL     1      -8.883   0.367 -32.306  1.00  0.00     0.146 C 
BRANCH  15  16
HETATM   16  C   UNL     1      -8.863   0.699 -33.781  1.00  0.00     0.224 C 
HETATM   17  N   UNL     1      -7.915   0.220 -34.624  1.00  0.00    -0.327 N 
HETATM   18  H   UNL     1      -7.904   0.703 -35.517  1.00  0.00     0.169 HD
HETATM   19  O   UNL     1      -9.729   1.471 -34.216  1.00  0.00    -0.273 OA
BRANCH  17  20
HETATM   20  C   UNL     1      -6.904  -0.742 -34.451  1.00  0.00     0.035 A 
HETATM   21  C   UNL     1      -7.023  -2.082 -34.823  1.00  0.00     0.036 A 
HETATM   22  C   UNL     1      -5.962  -2.978 -34.614  1.00  0.00    -0.059 A 
HETATM   23  C   UNL     1      -6.067  -4.409 -35.054  1.00  0.00     0.048 C 
HETATM   24  C   UNL     1      -4.769  -2.511 -34.049  1.00  0.00     0.013 A 
HETATM   25  C   UNL     1      -4.629  -1.168 -33.687  1.00  0.00    -0.059 A 
HETATM   26  C   UNL     1      -5.691  -0.287 -33.920  1.00  0.00     0.036 A 
HETATM   27  C   UNL     1      -3.337  -0.671 -33.106  1.00  0.00     0.048 C 
ENDBRANCH  17  20
ENDBRANCH  15  16
ENDBRANCH   1  15
TORSDOF 3
ENDMDL
MODEL 5
REMARK VINA RESULT:      -8.1     15.384     17.585
REMARK  3 active torsions:
REMARK  status: ('A' for Active; 'I' for Inactive)
REMARK    1  A    between atoms: C_4  and  N_5 
REMARK       I    between atoms: N_5  and  C_6 
REMARK    2  A    between atoms: C_6  and  C_7 
REMARK    3  A    between atoms: C_7  and  C_8 
ROOT
HETATM    1  C   UNL     1      -5.541   3.230 -32.256  1.00  0.00     0.286 C 
HETATM    2  N   UNL     1      -4.724   3.796 -33.413  1.00  0.00    -0.056 N 
HETATM    3  H   UNL     1      -3.906   3.157 -33.526  1.00  0.00     0.278 HD
HETATM    4  H   UNL     1      -5.250   3.728 -34.292  1.00  0.00     0.278 HD
HETATM    5  C   UNL     1      -4.250   5.206 -33.166  1.00  0.00     0.209 C 
HETATM    6  C   UNL     1      -3.422   5.245 -31.856  1.00  0.00     0.115 C 
HETATM    7  N   UNL     1      -4.133   4.622 -30.743  1.00  0.00    -0.353 N 
HETATM    8  C   UNL     1      -4.923   3.508 -30.867  1.00  0.00     0.249 C 
HETATM    9  O   UNL     1      -5.193   2.836 -29.877  1.00  0.00    -0.271 OA
HETATM   10  C   UNL     1      -3.452   5.690 -34.377  1.00  0.00     0.035 C 
HETATM   11  C   UNL     1      -2.084   5.024 -34.504  1.00  0.00     0.002 C 
HETATM   12  C   UNL     1      -1.278   5.150 -33.217  1.00  0.00     0.002 C 
HETATM   13  C   UNL     1      -2.037   4.598 -32.016  1.00  0.00     0.027 C 
HETATM   14  H   UNL     1      -3.763   4.752 -29.803  1.00  0.00     0.163 HD
ENDROOT
BRANCH   1  15
HETATM   15  C   UNL     1      -5.811   1.729 -32.439  1.00  0.00     0.146 C 
BRANCH  15  16
HETATM   16  C   UNL     1      -6.575   1.504 -33.723  1.00  0.00     0.224 C 
HETATM   17  N   UNL     1      -6.455   0.367 -34.454  1.00  0.00    -0.327 N 
HETATM   18  H   UNL     1      -6.851   0.456 -35.385  1.00  0.00     0.169 HD
HETATM   19  O   UNL     1      -7.306   2.416 -34.134  1.00  0.00    -0.273 OA
BRANCH  17  20
HETATM   20  C   UNL     1      -5.814  -0.855 -34.190  1.00  0.00     0.035 A 
HETATM   21  C   UNL     1      -4.769  -1.014 -33.280  1.00  0.00     0.036 A 
HETATM   22  C   UNL     1      -4.183  -2.274 -33.077  1.00  0.00    -0.059 A 
HETATM   23  C   UNL     1      -3.089  -2.460 -32.066  1.00  0.00     0.048 C 
HETATM   24  C   UNL     1      -4.673  -3.381 -33.780  1.00  0.00     0.013 A 
HETATM   25  C   UNL     1      -5.731  -3.241 -34.683  1.00  0.00    -0.059 A 
HETATM   26  C   UNL     1      -6.314  -1.981 -34.858  1.00  0.00     0.036 A 
HETATM   27  C   UNL     1      -6.268  -4.439 -35.413  1.00  0.00     0.048 C 
ENDBRANCH  17  20
ENDBRANCH  15  16
ENDBRANCH   1  15
TORSDOF 3
ENDMDL
MODEL 6
REMARK VINA RESULT:      -8.0     17.161     18.996
REMARK  3 active torsions:
REMARK  status: ('A' for Active; 'I' for Inactive)
REMARK    1  A    between atoms: C_4  and  N_5 
REMARK       I    between atoms: N_5  and  C_6 
REMARK    2  A    between atoms: C_6  and  C_7 
REMARK    3  A    between atoms: C_7  and  C_8 
ROOT
HETATM    1  C   UNL     1      -3.697   4.306 -33.349  1.00  0.00     0.286 C 
HETATM    2  N   UNL     1      -2.892   4.665 -32.103  1.00  0.00    -0.056 N 
HETATM    3  H   UNL     1      -3.315   5.543 -31.732  1.00  0.00     0.278 HD
HETATM    4  H   UNL     1      -3.031   3.959 -31.371  1.00  0.00     0.278 HD
HETATM    5  C   UNL     1      -1.427   4.876 -32.389  1.00  0.00     0.209 C 
HETATM    6  C   UNL     1      -1.269   5.981 -33.465  1.00  0.00     0.115 C 
HETATM    7  N   UNL     1      -2.103   5.724 -34.637  1.00  0.00    -0.353 N 
HETATM    8  C   UNL     1      -3.361   5.183 -34.577  1.00  0.00     0.249 C 
HETATM    9  O   UNL     1      -4.132   5.322 -35.521  1.00  0.00    -0.271 OA
HETATM   10  C   UNL     1      -0.703   5.219 -31.087  1.00  0.00     0.035 C 
HETATM   11  C   UNL     1      -1.024   6.620 -30.569  1.00  0.00     0.002 C 
HETATM   12  C   UNL     1      -0.785   7.680 -31.638  1.00  0.00     0.002 C 
HETATM   13  C   UNL     1      -1.565   7.385 -32.914  1.00  0.00     0.027 C 
HETATM   14  H   UNL     1      -1.942   6.284 -35.472  1.00  0.00     0.163 HD
ENDROOT
BRANCH   1  15
HETATM   15  C   UNL     1      -5.207   4.324 -33.067  1.00  0.00     0.146 C 
BRANCH  15  16
HETATM   16  C   UNL     1      -5.472   3.772 -31.686  1.00  0.00     0.224 C 
HETATM   17  N   UNL     1      -5.814   2.477 -31.470  1.00  0.00    -0.327 N 
HETATM   18  H   UNL     1      -6.171   2.317 -30.533  1.00  0.00     0.169 HD
HETATM   19  O   UNL     1      -5.409   4.552 -30.725  1.00  0.00    -0.273 OA
BRANCH  17  20
HETATM   20  C   UNL     1      -5.847   1.360 -32.323  1.00  0.00     0.035 A 
HETATM   21  C   UNL     1      -6.760   1.194 -33.365  1.00  0.00     0.036 A 
HETATM   22  C   UNL     1      -6.724   0.045 -34.171  1.00  0.00    -0.059 A 
HETATM   23  C   UNL     1      -7.674  -0.118 -35.321  1.00  0.00     0.048 C 
HETATM   24  C   UNL     1      -5.745  -0.928 -33.936  1.00  0.00     0.013 A 
HETATM   25  C   UNL     1      -4.812  -0.768 -32.907  1.00  0.00    -0.059 A 
HETATM   26  C   UNL     1      -4.854   0.393 -32.127  1.00  0.00     0.036 A 
HETATM   27  C   UNL     1      -3.749  -1.804 -32.679  1.00  0.00     0.048 C 
ENDBRANCH  17  20
ENDBRANCH  15  16
ENDBRANCH   1  15
TORSDOF 3
ENDMDL
MODEL 7
REMARK VINA RESULT:      -8.0     17.162     18.946
REMARK  3 active torsions:
REMARK  status: ('A' for Active; 'I' for Inactive)
REMARK    1  A    between atoms: C_4  and  N_5 
REMARK       I    between atoms: N_5  and  C_6 
REMARK    2  A    between atoms: C_6  and  C_7 
REMARK    3  A    between atoms: C_7  and  C_8 
ROOT
HETATM    1  C   UNL     1      -3.722   4.335 -33.502  1.00  0.00     0.286 C 
HETATM    2  N   UNL     1      -2.953   4.712 -32.240  1.00  0.00    -0.056 N 
HETATM    3  H   UNL     1      -3.408   5.578 -31.876  1.00  0.00     0.278 HD
HETATM    4  H   UNL     1      -3.089   4.002 -31.512  1.00  0.00     0.278 HD
HETATM    5  C   UNL     1      -1.489   4.963 -32.494  1.00  0.00     0.209 C 
HETATM    6  C   UNL     1      -1.338   6.074 -33.565  1.00  0.00     0.115 C 
HETATM    7  N   UNL     1      -2.140   5.798 -34.754  1.00  0.00    -0.353 N 
HETATM    8  C   UNL     1      -3.384   5.223 -34.722  1.00  0.00     0.249 C 
HETATM    9  O   UNL     1      -4.138   5.343 -35.681  1.00  0.00    -0.271 OA
HETATM   10  C   UNL     1      -0.801   5.322 -31.177  1.00  0.00     0.035 C 
HETATM   11  C   UNL     1      -1.170   6.713 -30.663  1.00  0.00     0.002 C 
HETATM   12  C   UNL     1      -0.938   7.781 -31.725  1.00  0.00     0.002 C 
HETATM   13  C   UNL     1      -1.683   7.468 -33.018  1.00  0.00     0.027 C 
HETATM   14  H   UNL     1      -1.977   6.364 -35.585  1.00  0.00     0.163 HD
ENDROOT
BRANCH   1  15
HETATM   15  C   UNL     1      -5.237   4.312 -33.252  1.00  0.00     0.146 C 
BRANCH  15  16
HETATM   16  C   UNL     1      -5.513   3.812 -31.853  1.00  0.00     0.224 C 
HETATM   17  N   UNL     1      -5.779   2.511 -31.582  1.00  0.00    -0.327 N 
HETATM   18  H   UNL     1      -6.158   2.374 -30.649  1.00  0.00     0.169 HD
HETATM   19  O   UNL     1      -5.533   4.642 -30.932  1.00  0.00    -0.273 OA
BRANCH  17  20
HETATM   20  C   UNL     1      -5.713   1.353 -32.376  1.00  0.00     0.035 A 
HETATM   21  C   UNL     1      -4.788   0.325 -32.193  1.00  0.00     0.036 A 
HETATM   22  C   UNL     1      -4.791  -0.798 -33.035  1.00  0.00    -0.059 A 
HETATM   23  C   UNL     1      -3.827  -1.927 -32.813  1.00  0.00     0.048 C 
HETATM   24  C   UNL     1      -5.750  -0.893 -34.051  1.00  0.00     0.013 A 
HETATM   25  C   UNL     1      -6.695   0.120 -34.236  1.00  0.00    -0.059 A 
HETATM   26  C   UNL     1      -6.686   1.223 -33.376  1.00  0.00     0.036 A 
HETATM   27  C   UNL     1      -7.736  -0.002 -35.312  1.00  0.00     0.048 C 
ENDBRANCH  17  20
ENDBRANCH  15  16
ENDBRANCH   1  15
TORSDOF 3
ENDMDL
MODEL 8
REMARK VINA RESULT:      -8.0     15.198     17.591
REMARK  3 active torsions:
REMARK  status: ('A' for Active; 'I' for Inactive)
REMARK    1  A    between atoms: C_4  and  N_5 
REMARK       I    between atoms: N_5  and  C_6 
REMARK    2  A    between atoms: C_6  and  C_7 
REMARK    3  A    between atoms: C_7  and  C_8 
ROOT
HETATM    1  C   UNL     1      -3.832   2.105 -31.235  1.00  0.00     0.286 C 
HETATM    2  N   UNL     1      -5.340   2.100 -31.007  1.00  0.00    -0.056 N 
HETATM    3  H   UNL     1      -5.771   2.291 -31.938  1.00  0.00     0.278 HD
HETATM    4  H   UNL     1      -5.660   1.161 -30.742  1.00  0.00     0.278 HD
HETATM    5  C   UNL     1      -5.789   3.134 -30.007  1.00  0.00     0.209 C 
HETATM    6  C   UNL     1      -5.323   4.536 -30.477  1.00  0.00     0.115 C 
HETATM    7  N   UNL     1      -3.899   4.558 -30.800  1.00  0.00    -0.353 N 
HETATM    8  C   UNL     1      -3.235   3.521 -31.405  1.00  0.00     0.249 C 
HETATM    9  O   UNL     1      -2.163   3.725 -31.964  1.00  0.00    -0.271 OA
HETATM   10  C   UNL     1      -7.305   3.048 -29.837  1.00  0.00     0.035 C 
HETATM   11  C   UNL     1      -8.079   3.570 -31.046  1.00  0.00     0.002 C 
HETATM   12  C   UNL     1      -7.638   4.979 -31.426  1.00  0.00     0.002 C 
HETATM   13  C   UNL     1      -6.136   5.056 -31.673  1.00  0.00     0.027 C 
HETATM   14  H   UNL     1      -3.452   5.462 -30.944  1.00  0.00     0.163 HD
ENDROOT
BRANCH   1  15
HETATM   15  C   UNL     1      -3.438   1.206 -32.417  1.00  0.00     0.146 C 
BRANCH  15  16
HETATM   16  C   UNL     1      -3.107  -0.179 -31.913  1.00  0.00     0.224 C 
HETATM   17  N   UNL     1      -3.816  -1.277 -32.274  1.00  0.00    -0.327 N 
HETATM   18  H   UNL     1      -3.616  -2.083 -31.689  1.00  0.00     0.169 HD
HETATM   19  O   UNL     1      -2.172  -0.297 -31.108  1.00  0.00    -0.273 OA
BRANCH  17  20
HETATM   20  C   UNL     1      -4.824  -1.469 -33.235  1.00  0.00     0.035 A 
HETATM   21  C   UNL     1      -5.662  -0.459 -33.707  1.00  0.00     0.036 A 
HETATM   22  C   UNL     1      -6.646  -0.738 -34.669  1.00  0.00    -0.059 A 
HETATM   23  C   UNL     1      -7.519   0.354 -35.215  1.00  0.00     0.048 C 
HETATM   24  C   UNL     1      -6.767  -2.039 -35.172  1.00  0.00     0.013 A 
HETATM   25  C   UNL     1      -5.923  -3.059 -34.721  1.00  0.00    -0.059 A 
HETATM   26  C   UNL     1      -4.937  -2.756 -33.775  1.00  0.00     0.036 A 
HETATM   27  C   UNL     1      -6.042  -4.445 -35.284  1.00  0.00     0.048 C 
ENDBRANCH  17  20
ENDBRANCH  15  16
ENDBRANCH   1  15
TORSDOF 3
ENDMDL
MODEL 9
REMARK VINA RESULT:      -7.9     14.424     17.705
REMARK  3 active torsions:
REMARK  status: ('A' for Active; 'I' for Inactive)
REMARK    1  A    between atoms: C_4  and  N_5 
REMARK       I    between atoms: N_5  and  C_6 
REMARK    2  A    between atoms: C_6  and  C_7 
REMARK    3  A    between atoms: C_7  and  C_8 
ROOT
HETATM    1  C   UNL     1      -9.456   1.383 -32.102  1.00  0.00     0.286 C 
HETATM    2  N   UNL     1     -10.252   1.091 -33.370  1.00  0.00    -0.056 N 
HETATM    3  H   UNL     1      -9.810   1.662 -34.124  1.00  0.00     0.278 HD
HETATM    4  H   UNL     1     -10.127   0.113 -33.655  1.00  0.00     0.278 HD
HETATM    5  C   UNL     1     -11.713   1.443 -33.243  1.00  0.00     0.209 C 
HETATM    6  C   UNL     1     -11.847   2.939 -32.859  1.00  0.00     0.115 C 
HETATM    7  N   UNL     1     -11.020   3.282 -31.705  1.00  0.00    -0.353 N 
HETATM    8  C   UNL     1      -9.773   2.760 -31.474  1.00  0.00     0.249 C 
HETATM    9  O   UNL     1      -9.001   3.334 -30.715  1.00  0.00    -0.271 OA
HETATM   10  C   UNL     1     -12.428   1.108 -34.552  1.00  0.00     0.035 C 
HETATM   11  C   UNL     1     -12.077   2.061 -35.693  1.00  0.00     0.002 C 
HETATM   12  C   UNL     1     -12.294   3.516 -35.293  1.00  0.00     0.002 C 
HETATM   13  C   UNL     1     -11.521   3.879 -34.030  1.00  0.00     0.027 C 
HETATM   14  H   UNL     1     -11.169   4.186 -31.259  1.00  0.00     0.163 HD
ENDROOT
BRANCH   1  15
HETATM   15  C   UNL     1      -7.946   1.231 -32.338  1.00  0.00     0.146 C 
BRANCH  15  16
HETATM   16  C   UNL     1      -7.619   1.577 -33.773  1.00  0.00     0.224 C 
HETATM   17  N   UNL     1      -6.791   0.822 -34.536  1.00  0.00    -0.327 N 
HETATM   18  H   UNL     1      -6.499   1.296 -35.385  1.00  0.00     0.169 HD
HETATM   19  O   UNL     1      -8.103   2.616 -34.246  1.00  0.00    -0.273 OA
BRANCH  17  20
HETATM   20  C   UNL     1      -6.204  -0.437 -34.321  1.00  0.00     0.035 A 
HETATM   21  C   UNL     1      -6.661  -1.625 -34.891  1.00  0.00     0.036 A 
HETATM   22  C   UNL     1      -6.015  -2.842 -34.623  1.00  0.00    -0.059 A 
HETATM   23  C   UNL     1      -6.474  -4.116 -35.270  1.00  0.00     0.048 C 
HETATM   24  C   UNL     1      -4.888  -2.853 -33.792  1.00  0.00     0.013 A 
HETATM   25  C   UNL     1      -4.407  -1.669 -33.227  1.00  0.00    -0.059 A 
HETATM   26  C   UNL     1      -5.055  -0.463 -33.521  1.00  0.00     0.036 A 
HETATM   27  C   UNL     1      -3.182  -1.686 -32.358  1.00  0.00     0.048 C 
ENDBRANCH  17  20
ENDBRANCH  15  16
ENDBRANCH   1  15
TORSDOF 3
ENDMDL
MODEL 10
REMARK VINA RESULT:      -7.8     17.234     19.139
REMARK  3 active torsions:
REMARK  status: ('A' for Active; 'I' for Inactive)
REMARK    1  A    between atoms: C_4  and  N_5 
REMARK       I    between atoms: N_5  and  C_6 
REMARK    2  A    between atoms: C_6  and  C_7 
REMARK    3  A    between atoms: C_7  and  C_8 
ROOT
HETATM    1  C   UNL     1      -4.491   4.517 -32.627  1.00  0.00     0.286 C 
HETATM    2  N   UNL     1      -3.982   5.955 -32.604  1.00  0.00    -0.056 N 
HETATM    3  H   UNL     1      -3.361   6.052 -33.437  1.00  0.00     0.278 HD
HETATM    4  H   UNL     1      -4.755   6.612 -32.757  1.00  0.00     0.278 HD
HETATM    5  C   UNL     1      -3.219   6.291 -31.347  1.00  0.00     0.209 C 
HETATM    6  C   UNL     1      -2.036   5.301 -31.187  1.00  0.00     0.115 C 
HETATM    7  N   UNL     1      -2.469   3.911 -31.302  1.00  0.00    -0.353 N 
HETATM    8  C   UNL     1      -3.439   3.480 -32.170  1.00  0.00     0.249 C 
HETATM    9  O   UNL     1      -3.505   2.294 -32.474  1.00  0.00    -0.271 OA
HETATM   10  C   UNL     1      -2.758   7.747 -31.409  1.00  0.00     0.035 C 
HETATM   11  C   UNL     1      -1.631   7.982 -32.413  1.00  0.00     0.002 C 
HETATM   12  C   UNL     1      -0.461   7.035 -32.172  1.00  0.00     0.002 C 
HETATM   13  C   UNL     1      -0.900   5.576 -32.185  1.00  0.00     0.027 C 
HETATM   14  H   UNL     1      -1.812   3.179 -31.034  1.00  0.00     0.163 HD
ENDROOT
BRANCH   1  15
HETATM   15  C   UNL     1      -5.058   4.143 -34.004  1.00  0.00     0.146 C 
BRANCH  15  16
HETATM   16  C   UNL     1      -6.569   4.151 -33.950  1.00  0.00     0.224 C 
HETATM   17  N   UNL     1      -7.297   3.032 -33.712  1.00  0.00    -0.327 N 
HETATM   18  H   UNL     1      -8.282   3.153 -33.926  1.00  0.00     0.169 HD
HETATM   19  O   UNL     1      -7.153   5.221 -34.171  1.00  0.00    -0.273 OA
BRANCH  17  20
HETATM   20  C   UNL     1      -6.924   1.735 -33.320  1.00  0.00     0.035 A 
HETATM   21  C   UNL     1      -6.694   0.681 -34.205  1.00  0.00     0.036 A 
HETATM   22  C   UNL     1      -6.324  -0.586 -33.727  1.00  0.00    -0.059 A 
HETATM   23  C   UNL     1      -6.032  -1.710 -34.677  1.00  0.00     0.048 C 
HETATM   24  C   UNL     1      -6.163  -0.781 -32.350  1.00  0.00     0.013 A 
HETATM   25  C   UNL     1      -6.372   0.269 -31.451  1.00  0.00    -0.059 A 
HETATM   26  C   UNL     1      -6.723   1.529 -31.949  1.00  0.00     0.036 A 
HETATM   27  C   UNL     1      -6.172   0.058 -29.978  1.00  0.00     0.048 C 
ENDBRANCH  17  20
ENDBRANCH  15  16
ENDBRANCH   1  15
TORSDOF 3
ENDMDL
