MODEL 1
REMARK VINA RESULT:      -9.2      0.000      0.000
REMARK  2 active torsions:
REMARK  status: ('A' for Active; 'I' for Inactive)
REMARK    1  A    between atoms: C_3  and  C_4 
REMARK    2  A    between atoms: N_10  and  C_11 
ROOT
HETATM    1  C   UNL     1      -3.178   3.835 -31.672  1.00  0.00     0.049 A 
HETATM    2  N   UNL     1      -2.994   2.685 -32.416  1.00  0.00    -0.344 N 
HETATM    3  C   UNL     1      -3.903   1.665 -32.411  1.00  0.00     0.119 A 
HETATM    4  C   UNL     1      -5.013   1.732 -31.656  1.00  0.00     0.123 A 
HETATM    5  C   UNL     1      -5.807   0.530 -31.952  1.00  0.00     0.280 A 
HETATM    6  O   UNL     1      -6.889   0.266 -31.458  1.00  0.00    -0.265 OA
HETATM    7  N   UNL     1      -5.060  -0.182 -32.905  1.00  0.00    -0.236 N 
HETATM    8  N   UNL     1      -3.855   0.508 -33.167  1.00  0.00    -0.179 NA
HETATM    9  C   UNL     1      -5.273   2.904 -30.818  1.00  0.00     0.193 A 
HETATM   10  O   UNL     1      -6.256   3.025 -30.097  1.00  0.00    -0.287 OA
HETATM   11  C   UNL     1      -4.258   3.998 -30.883  1.00  0.00     0.086 A 
HETATM   12  H   UNL     1      -2.161   2.595 -32.984  1.00  0.00     0.167 HD
HETATM   13  H   UNL     1      -3.748   0.737 -34.155  1.00  0.00     0.155 HD
ENDROOT
BRANCH   1  14
HETATM   14  C   UNL     1      -2.153   4.897 -31.761  1.00  0.00     0.012 A 
HETATM   15  C   UNL     1      -1.136   4.934 -30.790  1.00  0.00     0.015 A 
HETATM   16  C   UNL     1      -0.142   5.916 -30.826  1.00  0.00     0.001 A 
HETATM   17  C   UNL     1      -0.143   6.873 -31.835  1.00  0.00     0.002 A 
HETATM   18  C   UNL     1      -1.139   6.851 -32.811  1.00  0.00     0.025 A 
HETATM   19  C   UNL     1      -2.139   5.872 -32.777  1.00  0.00     0.046 A 
HETATM   20 CL   UNL     1      -3.344   5.930 -34.019  1.00  0.00    -0.083 Cl
ENDBRANCH   1  14
BRANCH   7  21
HETATM   21  C   UNL     1      -5.338  -1.413 -33.536  1.00  0.00     0.055 A 
HETATM   22  C   UNL     1      -6.622  -1.710 -34.016  1.00  0.00     0.034 A 
HETATM   23  C   UNL     1      -6.888  -2.927 -34.656  1.00  0.00     0.044 A 
HETATM   24  C   UNL     1      -5.870  -3.855 -34.816  1.00  0.00     0.116 A 
HETATM   25  F   UNL     1      -6.123  -5.017 -35.430  1.00  0.00    -0.206 F 
HETATM   26  C   UNL     1      -4.591  -3.592 -34.345  1.00  0.00     0.044 A 
HETATM   27  C   UNL     1      -4.327  -2.376 -33.706  1.00  0.00     0.034 A 
ENDBRANCH   7  21
TORSDOF 2
ENDMDL
MODEL 2
REMARK VINA RESULT:      -8.9      5.903      8.200
REMARK  2 active torsions:
REMARK  status: ('A' for Active; 'I' for Inactive)
REMARK    1  A    between atoms: C_3  and  C_4 
REMARK    2  A    between atoms: N_10  and  C_11 
ROOT
HETATM    1  C   UNL     1      -7.113   0.084 -33.707  1.00  0.00     0.049 A 
HETATM    2  N   UNL     1      -8.423  -0.272 -33.449  1.00  0.00    -0.344 N 
HETATM    3  C   UNL     1      -9.431   0.650 -33.412  1.00  0.00     0.119 A 
HETATM    4  C   UNL     1      -9.179   1.956 -33.603  1.00  0.00     0.123 A 
HETATM    5  C   UNL     1     -10.476   2.650 -33.591  1.00  0.00     0.280 A 
HETATM    6  O   UNL     1     -10.632   3.847 -33.752  1.00  0.00    -0.265 OA
HETATM    7  N   UNL     1     -11.432   1.643 -33.381  1.00  0.00    -0.236 N 
HETATM    8  N   UNL     1     -10.778   0.399 -33.235  1.00  0.00    -0.179 NA
HETATM    9  C   UNL     1      -7.814   2.423 -33.857  1.00  0.00     0.193 A 
HETATM   10  O   UNL     1      -7.513   3.597 -34.027  1.00  0.00    -0.287 OA
HETATM   11  C   UNL     1      -6.759   1.367 -33.912  1.00  0.00     0.086 A 
HETATM   12  H   UNL     1      -8.645  -1.246 -33.285  1.00  0.00     0.167 HD
HETATM   13  H   UNL     1     -11.101  -0.290 -33.915  1.00  0.00     0.155 HD
ENDROOT
BRANCH   1  14
HETATM   14  C   UNL     1      -6.095  -0.988 -33.754  1.00  0.00     0.012 A 
HETATM   15  C   UNL     1      -6.137  -1.910 -34.816  1.00  0.00     0.015 A 
HETATM   16  C   UNL     1      -5.200  -2.943 -34.909  1.00  0.00     0.001 A 
HETATM   17  C   UNL     1      -4.202  -3.069 -33.949  1.00  0.00     0.002 A 
HETATM   18  C   UNL     1      -4.139  -2.162 -32.891  1.00  0.00     0.025 A 
HETATM   19  C   UNL     1      -5.077  -1.128 -32.791  1.00  0.00     0.046 A 
HETATM   20 CL   UNL     1      -4.932  -0.059 -31.437  1.00  0.00    -0.083 Cl
ENDBRANCH   1  14
BRANCH   7  21
HETATM   21  C   UNL     1     -12.836   1.737 -33.271  1.00  0.00     0.055 A 
HETATM   22  C   UNL     1     -13.681   0.894 -34.008  1.00  0.00     0.034 A 
HETATM   23  C   UNL     1     -15.073   0.982 -33.883  1.00  0.00     0.044 A 
HETATM   24  C   UNL     1     -15.627   1.915 -33.020  1.00  0.00     0.116 A 
HETATM   25  F   UNL     1     -16.958   1.997 -32.898  1.00  0.00    -0.206 F 
HETATM   26  C   UNL     1     -14.817   2.767 -32.283  1.00  0.00     0.044 A 
HETATM   27  C   UNL     1     -13.426   2.679 -32.410  1.00  0.00     0.034 A 
ENDBRANCH   7  21
TORSDOF 2
ENDMDL
MODEL 3
REMARK VINA RESULT:      -8.9      3.409      4.987
REMARK  2 active torsions:
REMARK  status: ('A' for Active; 'I' for Inactive)
REMARK    1  A    between atoms: C_3  and  C_4 
REMARK    2  A    between atoms: N_10  and  C_11 
ROOT
HETATM    1  C   UNL     1      -0.956   7.161 -30.397  1.00  0.00     0.049 A 
HETATM    2  N   UNL     1      -1.783   6.087 -30.131  1.00  0.00    -0.344 N 
HETATM    3  C   UNL     1      -2.290   5.298 -31.125  1.00  0.00     0.119 A 
HETATM    4  C   UNL     1      -2.019   5.554 -32.416  1.00  0.00     0.123 A 
HETATM    5  C   UNL     1      -2.633   4.477 -33.207  1.00  0.00     0.280 A 
HETATM    6  O   UNL     1      -2.575   4.377 -34.419  1.00  0.00    -0.265 OA
HETATM    7  N   UNL     1      -3.249   3.634 -32.267  1.00  0.00    -0.236 N 
HETATM    8  N   UNL     1      -3.065   4.164 -30.970  1.00  0.00    -0.179 NA
HETATM    9  C   UNL     1      -1.171   6.689 -32.788  1.00  0.00     0.193 A 
HETATM   10  O   UNL     1      -0.894   6.987 -33.943  1.00  0.00    -0.287 OA
HETATM   11  C   UNL     1      -0.625   7.500 -31.658  1.00  0.00     0.086 A 
HETATM   12  H   UNL     1      -2.021   5.875 -29.169  1.00  0.00     0.167 HD
HETATM   13  H   UNL     1      -2.602   3.503 -30.345  1.00  0.00     0.155 HD
ENDROOT
BRANCH   1  14
HETATM   14  C   UNL     1      -0.434   7.941 -29.254  1.00  0.00     0.012 A 
HETATM   15  C   UNL     1       0.880   7.695 -28.815  1.00  0.00     0.015 A 
HETATM   16  C   UNL     1       1.424   8.402 -27.739  1.00  0.00     0.001 A 
HETATM   17  C   UNL     1       0.667   9.370 -27.087  1.00  0.00     0.002 A 
HETATM   18  C   UNL     1      -0.636   9.633 -27.509  1.00  0.00     0.025 A 
HETATM   19  C   UNL     1      -1.186   8.925 -28.584  1.00  0.00     0.046 A 
HETATM   20 CL   UNL     1      -2.815   9.306 -29.029  1.00  0.00    -0.083 Cl
ENDBRANCH   1  14
BRANCH   7  21
HETATM   21  C   UNL     1      -3.993   2.451 -32.464  1.00  0.00     0.055 A 
HETATM   22  C   UNL     1      -5.298   2.491 -32.978  1.00  0.00     0.034 A 
HETATM   23  C   UNL     1      -6.027   1.314 -33.186  1.00  0.00     0.044 A 
HETATM   24  C   UNL     1      -5.454   0.089 -32.877  1.00  0.00     0.116 A 
HETATM   25  F   UNL     1      -6.149  -1.037 -33.078  1.00  0.00    -0.206 F 
HETATM   26  C   UNL     1      -4.168   0.019 -32.360  1.00  0.00     0.044 A 
HETATM   27  C   UNL     1      -3.442   1.196 -32.153  1.00  0.00     0.034 A 
ENDBRANCH   7  21
TORSDOF 2
ENDMDL
MODEL 4
REMARK VINA RESULT:      -8.7      5.085      6.511
REMARK  2 active torsions:
REMARK  status: ('A' for Active; 'I' for Inactive)
REMARK    1  A    between atoms: C_3  and  C_4 
REMARK    2  A    between atoms: N_10  and  C_11 
ROOT
HETATM    1  C   UNL     1      -9.629   2.883 -33.903  1.00  0.00     0.049 A 
HETATM    2  N   UNL     1      -9.135   1.829 -34.646  1.00  0.00    -0.344 N 
HETATM    3  C   UNL     1      -8.265   0.915 -34.121  1.00  0.00     0.119 A 
HETATM    4  C   UNL     1      -7.834   1.022 -32.853  1.00  0.00     0.123 A 
HETATM    5  C   UNL     1      -6.996  -0.156 -32.582  1.00  0.00     0.280 A 
HETATM    6  O   UNL     1      -6.449  -0.398 -31.521  1.00  0.00    -0.265 OA
HETATM    7  N   UNL     1      -7.003  -0.895 -33.775  1.00  0.00    -0.236 N 
HETATM    8  N   UNL     1      -7.766  -0.211 -34.747  1.00  0.00    -0.179 NA
HETATM    9  C   UNL     1      -8.288   2.125 -32.002  1.00  0.00     0.193 A 
HETATM   10  O   UNL     1      -7.927   2.290 -30.844  1.00  0.00    -0.287 OA
HETATM   11  C   UNL     1      -9.258   3.077 -32.623  1.00  0.00     0.086 A 
HETATM   12  H   UNL     1      -9.427   1.727 -35.611  1.00  0.00     0.167 HD
HETATM   13  H   UNL     1      -8.531  -0.781 -35.110  1.00  0.00     0.155 HD
ENDROOT
BRANCH   1  14
HETATM   14  C   UNL     1     -10.587   3.806 -34.551  1.00  0.00     0.012 A 
HETATM   15  C   UNL     1     -10.248   5.168 -34.648  1.00  0.00     0.015 A 
HETATM   16  C   UNL     1     -11.116   6.084 -35.249  1.00  0.00     0.001 A 
HETATM   17  C   UNL     1     -12.333   5.655 -35.768  1.00  0.00     0.002 A 
HETATM   18  C   UNL     1     -12.686   4.308 -35.687  1.00  0.00     0.025 A 
HETATM   19  C   UNL     1     -11.821   3.387 -35.082  1.00  0.00     0.046 A 
HETATM   20 CL   UNL     1     -12.347   1.739 -35.012  1.00  0.00    -0.083 Cl
ENDBRANCH   1  14
BRANCH   7  21
HETATM   21  C   UNL     1      -6.358  -2.111 -34.090  1.00  0.00     0.055 A 
HETATM   22  C   UNL     1      -4.967  -2.249 -33.964  1.00  0.00     0.034 A 
HETATM   23  C   UNL     1      -4.334  -3.462 -34.262  1.00  0.00     0.044 A 
HETATM   24  C   UNL     1      -5.090  -4.543 -34.691  1.00  0.00     0.116 A 
HETATM   25  F   UNL     1      -4.485  -5.704 -34.974  1.00  0.00    -0.206 F 
HETATM   26  C   UNL     1      -6.466  -4.434 -34.832  1.00  0.00     0.044 A 
HETATM   27  C   UNL     1      -7.097  -3.222 -34.534  1.00  0.00     0.034 A 
ENDBRANCH   7  21
TORSDOF 2
ENDMDL
MODEL 5
REMARK VINA RESULT:      -8.7      5.559      8.384
REMARK  2 active torsions:
REMARK  status: ('A' for Active; 'I' for Inactive)
REMARK    1  A    between atoms: C_3  and  C_4 
REMARK    2  A    between atoms: N_10  and  C_11 
ROOT
HETATM    1  C   UNL     1      -6.961  -0.851 -33.532  1.00  0.00     0.049 A 
HETATM    2  N   UNL     1      -7.878  -0.234 -34.360  1.00  0.00    -0.344 N 
HETATM    3  C   UNL     1      -8.501   0.931 -34.013  1.00  0.00     0.119 A 
HETATM    4  C   UNL     1      -8.260   1.516 -32.828  1.00  0.00     0.123 A 
HETATM    5  C   UNL     1      -9.010   2.781 -32.812  1.00  0.00     0.280 A 
HETATM    6  O   UNL     1      -9.013   3.583 -31.895  1.00  0.00    -0.265 OA
HETATM    7  N   UNL     1      -9.665   2.837 -34.052  1.00  0.00    -0.236 N 
HETATM    8  N   UNL     1      -9.376   1.667 -34.789  1.00  0.00    -0.179 NA
HETATM    9  C   UNL     1      -7.321   0.915 -31.878  1.00  0.00     0.193 A 
HETATM   10  O   UNL     1      -7.064   1.387 -30.778  1.00  0.00    -0.287 OA
HETATM   11  C   UNL     1      -6.651  -0.344 -32.323  1.00  0.00     0.086 A 
HETATM   12  H   UNL     1      -8.095  -0.657 -35.255  1.00  0.00     0.167 HD
HETATM   13  H   UNL     1      -8.955   1.875 -35.695  1.00  0.00     0.155 HD
ENDROOT
BRANCH   1  14
HETATM   14  C   UNL     1      -6.318  -2.096 -34.005  1.00  0.00     0.012 A 
HETATM   15  C   UNL     1      -7.138  -3.155 -34.438  1.00  0.00     0.015 A 
HETATM   16  C   UNL     1      -6.583  -4.354 -34.895  1.00  0.00     0.001 A 
HETATM   17  C   UNL     1      -5.202  -4.513 -34.933  1.00  0.00     0.002 A 
HETATM   18  C   UNL     1      -4.371  -3.474 -34.514  1.00  0.00     0.025 A 
HETATM   19  C   UNL     1      -4.922  -2.273 -34.052  1.00  0.00     0.046 A 
HETATM   20 CL   UNL     1      -3.817  -1.044 -33.537  1.00  0.00    -0.083 Cl
ENDBRANCH   1  14
BRANCH   7  21
HETATM   21  C   UNL     1     -10.531   3.823 -34.575  1.00  0.00     0.055 A 
HETATM   22  C   UNL     1     -11.882   3.544 -34.827  1.00  0.00     0.034 A 
HETATM   23  C   UNL     1     -12.739   4.529 -35.330  1.00  0.00     0.044 A 
HETATM   24  C   UNL     1     -12.248   5.801 -35.587  1.00  0.00     0.116 A 
HETATM   25  F   UNL     1     -13.068   6.744 -36.065  1.00  0.00    -0.206 F 
HETATM   26  C   UNL     1     -10.914   6.104 -35.354  1.00  0.00     0.044 A 
HETATM   27  C   UNL     1     -10.059   5.118 -34.852  1.00  0.00     0.034 A 
ENDBRANCH   7  21
TORSDOF 2
ENDMDL
MODEL 6
REMARK VINA RESULT:      -8.7      3.726      8.006
REMARK  2 active torsions:
REMARK  status: ('A' for Active; 'I' for Inactive)
REMARK    1  A    between atoms: C_3  and  C_4 
REMARK    2  A    between atoms: N_10  and  C_11 
ROOT
HETATM    1  C   UNL     1      -4.678  -0.517 -32.393  1.00  0.00     0.049 A 
HETATM    2  N   UNL     1      -3.806   0.514 -32.682  1.00  0.00    -0.344 N 
HETATM    3  C   UNL     1      -4.083   1.812 -32.356  1.00  0.00     0.119 A 
HETATM    4  C   UNL     1      -5.238   2.141 -31.754  1.00  0.00     0.123 A 
HETATM    5  C   UNL     1      -5.177   3.582 -31.464  1.00  0.00     0.280 A 
HETATM    6  O   UNL     1      -6.050   4.222 -30.906  1.00  0.00    -0.265 OA
HETATM    7  N   UNL     1      -3.927   4.002 -31.945  1.00  0.00    -0.236 N 
HETATM    8  N   UNL     1      -3.257   2.906 -32.533  1.00  0.00    -0.179 NA
HETATM    9  C   UNL     1      -6.231   1.113 -31.434  1.00  0.00     0.193 A 
HETATM   10  O   UNL     1      -7.308   1.344 -30.899  1.00  0.00    -0.287 OA
HETATM   11  C   UNL     1      -5.862  -0.290 -31.791  1.00  0.00     0.086 A 
HETATM   12  H   UNL     1      -2.932   0.303 -33.149  1.00  0.00     0.167 HD
HETATM   13  H   UNL     1      -2.347   2.734 -32.104  1.00  0.00     0.155 HD
ENDROOT
BRANCH   1  14
HETATM   14  C   UNL     1      -4.280  -1.893 -32.760  1.00  0.00     0.012 A 
HETATM   15  C   UNL     1      -3.357  -2.569 -31.939  1.00  0.00     0.015 A 
HETATM   16  C   UNL     1      -2.945  -3.870 -32.240  1.00  0.00     0.001 A 
HETATM   17  C   UNL     1      -3.451  -4.521 -33.361  1.00  0.00     0.002 A 
HETATM   18  C   UNL     1      -4.371  -3.871 -34.184  1.00  0.00     0.025 A 
HETATM   19  C   UNL     1      -4.783  -2.566 -33.889  1.00  0.00     0.046 A 
HETATM   20 CL   UNL     1      -5.915  -1.832 -34.975  1.00  0.00    -0.083 Cl
ENDBRANCH   1  14
BRANCH   7  21
HETATM   21  C   UNL     1      -3.341   5.287 -31.941  1.00  0.00     0.055 A 
HETATM   22  C   UNL     1      -2.908   5.891 -33.131  1.00  0.00     0.034 A 
HETATM   23  C   UNL     1      -2.342   7.172 -33.124  1.00  0.00     0.044 A 
HETATM   24  C   UNL     1      -2.205   7.855 -31.924  1.00  0.00     0.116 A 
HETATM   25  F   UNL     1      -1.667   9.080 -31.917  1.00  0.00    -0.206 F 
HETATM   26  C   UNL     1      -2.618   7.280 -30.731  1.00  0.00     0.044 A 
HETATM   27  C   UNL     1      -3.183   6.000 -30.740  1.00  0.00     0.034 A 
ENDBRANCH   7  21
TORSDOF 2
ENDMDL
MODEL 7
REMARK VINA RESULT:      -8.6      5.903      7.555
REMARK  2 active torsions:
REMARK  status: ('A' for Active; 'I' for Inactive)
REMARK    1  A    between atoms: C_3  and  C_4 
REMARK    2  A    between atoms: N_10  and  C_11 
ROOT
HETATM    1  C   UNL     1      -6.684   1.184 -32.919  1.00  0.00     0.049 A 
HETATM    2  N   UNL     1      -7.954   0.719 -32.638  1.00  0.00    -0.344 N 
HETATM    3  C   UNL     1      -9.072   1.465 -32.887  1.00  0.00     0.119 A 
HETATM    4  C   UNL     1      -8.975   2.703 -33.401  1.00  0.00     0.123 A 
HETATM    5  C   UNL     1     -10.347   3.182 -33.628  1.00  0.00     0.280 A 
HETATM    6  O   UNL     1     -10.642   4.265 -34.102  1.00  0.00    -0.265 OA
HETATM    7  N   UNL     1     -11.180   2.133 -33.206  1.00  0.00    -0.236 N 
HETATM    8  N   UNL     1     -10.386   1.074 -32.711  1.00  0.00    -0.179 NA
HETATM    9  C   UNL     1      -7.665   3.283 -33.706  1.00  0.00     0.193 A 
HETATM   10  O   UNL     1      -7.504   4.407 -34.162  1.00  0.00    -0.287 OA
HETATM   11  C   UNL     1      -6.482   2.411 -33.436  1.00  0.00     0.086 A 
HETATM   12  H   UNL     1      -8.062  -0.204 -32.235  1.00  0.00     0.167 HD
HETATM   13  H   UNL     1     -10.562   0.197 -33.202  1.00  0.00     0.155 HD
ENDROOT
BRANCH   1  14
HETATM   14  C   UNL     1      -5.537   0.294 -32.640  1.00  0.00     0.012 A 
HETATM   15  C   UNL     1      -4.710   0.588 -31.540  1.00  0.00     0.015 A 
HETATM   16  C   UNL     1      -3.611  -0.219 -31.230  1.00  0.00     0.001 A 
HETATM   17  C   UNL     1      -3.323  -1.335 -32.010  1.00  0.00     0.002 A 
HETATM   18  C   UNL     1      -4.133  -1.647 -33.101  1.00  0.00     0.025 A 
HETATM   19  C   UNL     1      -5.232  -0.839 -33.418  1.00  0.00     0.046 A 
HETATM   20 CL   UNL     1      -6.173  -1.293 -34.799  1.00  0.00    -0.083 Cl
ENDBRANCH   1  14
BRANCH   7  21
HETATM   21  C   UNL     1     -12.588   2.048 -33.187  1.00  0.00     0.055 A 
HETATM   22  C   UNL     1     -13.360   2.934 -32.420  1.00  0.00     0.034 A 
HETATM   23  C   UNL     1     -14.757   2.855 -32.417  1.00  0.00     0.044 A 
HETATM   24  C   UNL     1     -15.392   1.886 -33.181  1.00  0.00     0.116 A 
HETATM   25  F   UNL     1     -16.728   1.811 -33.180  1.00  0.00    -0.206 F 
HETATM   26  C   UNL     1     -14.655   0.991 -33.944  1.00  0.00     0.044 A 
HETATM   27  C   UNL     1     -13.258   1.071 -33.945  1.00  0.00     0.034 A 
ENDBRANCH   7  21
TORSDOF 2
ENDMDL
MODEL 8
REMARK VINA RESULT:      -8.5      3.492      5.228
REMARK  2 active torsions:
REMARK  status: ('A' for Active; 'I' for Inactive)
REMARK    1  A    between atoms: C_3  and  C_4 
REMARK    2  A    between atoms: N_10  and  C_11 
ROOT
HETATM    1  C   UNL     1      -1.128   6.951 -30.348  1.00  0.00     0.049 A 
HETATM    2  N   UNL     1      -2.030   5.916 -30.203  1.00  0.00    -0.344 N 
HETATM    3  C   UNL     1      -2.737   5.415 -31.259  1.00  0.00     0.119 A 
HETATM    4  C   UNL     1      -2.595   5.933 -32.491  1.00  0.00     0.123 A 
HETATM    5  C   UNL     1      -3.416   5.115 -33.399  1.00  0.00     0.280 A 
HETATM    6  O   UNL     1      -3.514   5.287 -34.600  1.00  0.00    -0.265 OA
HETATM    7  N   UNL     1      -4.003   4.135 -32.582  1.00  0.00    -0.236 N 
HETATM    8  N   UNL     1      -3.607   4.342 -31.242  1.00  0.00    -0.179 NA
HETATM    9  C   UNL     1      -1.678   7.050 -32.729  1.00  0.00     0.193 A 
HETATM   10  O   UNL     1      -1.510   7.577 -33.822  1.00  0.00    -0.287 OA
HETATM   11  C   UNL     1      -0.915   7.538 -31.542  1.00  0.00     0.086 A 
HETATM   12  H   UNL     1      -2.173   5.513 -29.284  1.00  0.00     0.167 HD
HETATM   13  H   UNL     1      -3.149   3.522 -30.843  1.00  0.00     0.155 HD
ENDROOT
BRANCH   1  14
HETATM   14  C   UNL     1      -0.390   7.408 -29.150  1.00  0.00     0.012 A 
HETATM   15  C   UNL     1      -0.675   8.684 -28.630  1.00  0.00     0.015 A 
HETATM   16  C   UNL     1      -0.007   9.167 -27.501  1.00  0.00     0.001 A 
HETATM   17  C   UNL     1       0.952   8.381 -26.869  1.00  0.00     0.002 A 
HETATM   18  C   UNL     1       1.246   7.111 -27.365  1.00  0.00     0.025 A 
HETATM   19  C   UNL     1       0.582   6.625 -28.498  1.00  0.00     0.046 A 
HETATM   20 CL   UNL     1       1.021   5.045 -29.053  1.00  0.00    -0.083 Cl
ENDBRANCH   1  14
BRANCH   7  21
HETATM   21  C   UNL     1      -4.892   3.092 -32.919  1.00  0.00     0.055 A 
HETATM   22  C   UNL     1      -4.607   1.759 -32.586  1.00  0.00     0.034 A 
HETATM   23  C   UNL     1      -5.500   0.730 -32.909  1.00  0.00     0.044 A 
HETATM   24  C   UNL     1      -6.682   1.029 -33.569  1.00  0.00     0.116 A 
HETATM   25  F   UNL     1      -7.537   0.045 -33.876  1.00  0.00    -0.206 F 
HETATM   26  C   UNL     1      -6.987   2.337 -33.918  1.00  0.00     0.044 A 
HETATM   27  C   UNL     1      -6.094   3.364 -33.595  1.00  0.00     0.034 A 
ENDBRANCH   7  21
TORSDOF 2
ENDMDL
MODEL 9
REMARK VINA RESULT:      -8.4      1.841      2.151
REMARK  2 active torsions:
REMARK  status: ('A' for Active; 'I' for Inactive)
REMARK    1  A    between atoms: C_3  and  C_4 
REMARK    2  A    between atoms: N_10  and  C_11 
ROOT
HETATM    1  C   UNL     1      -3.940   4.471 -32.258  1.00  0.00     0.049 A 
HETATM    2  N   UNL     1      -3.246   3.282 -32.373  1.00  0.00    -0.344 N 
HETATM    3  C   UNL     1      -3.880   2.072 -32.400  1.00  0.00     0.119 A 
HETATM    4  C   UNL     1      -5.216   1.990 -32.291  1.00  0.00     0.123 A 
HETATM    5  C   UNL     1      -5.575   0.572 -32.449  1.00  0.00     0.280 A 
HETATM    6  O   UNL     1      -6.709   0.129 -32.423  1.00  0.00    -0.265 OA
HETATM    7  N   UNL     1      -4.356  -0.097 -32.646  1.00  0.00    -0.236 N 
HETATM    8  N   UNL     1      -3.295   0.833 -32.582  1.00  0.00    -0.179 NA
HETATM    9  C   UNL     1      -6.027   3.200 -32.140  1.00  0.00     0.193 A 
HETATM   10  O   UNL     1      -7.246   3.198 -32.023  1.00  0.00    -0.287 OA
HETATM   11  C   UNL     1      -5.282   4.495 -32.144  1.00  0.00     0.086 A 
HETATM   12  H   UNL     1      -2.235   3.307 -32.442  1.00  0.00     0.167 HD
HETATM   13  H   UNL     1      -2.727   0.831 -33.430  1.00  0.00     0.155 HD
ENDROOT
BRANCH   1  14
HETATM   14  C   UNL     1      -3.169   5.733 -32.266  1.00  0.00     0.012 A 
HETATM   15  C   UNL     1      -2.412   6.053 -33.408  1.00  0.00     0.015 A 
HETATM   16  C   UNL     1      -1.664   7.232 -33.469  1.00  0.00     0.001 A 
HETATM   17  C   UNL     1      -1.665   8.114 -32.393  1.00  0.00     0.002 A 
HETATM   18  C   UNL     1      -2.413   7.819 -31.254  1.00  0.00     0.025 A 
HETATM   19  C   UNL     1      -3.160   6.637 -31.187  1.00  0.00     0.046 A 
HETATM   20 CL   UNL     1      -4.045   6.345 -29.728  1.00  0.00    -0.083 Cl
ENDBRANCH   1  14
BRANCH   7  21
HETATM   21  C   UNL     1      -4.100  -1.471 -32.842  1.00  0.00     0.055 A 
HETATM   22  C   UNL     1      -4.563  -2.141 -33.985  1.00  0.00     0.034 A 
HETATM   23  C   UNL     1      -4.293  -3.501 -34.181  1.00  0.00     0.044 A 
HETATM   24  C   UNL     1      -3.559  -4.199 -33.233  1.00  0.00     0.116 A 
HETATM   25  F   UNL     1      -3.298  -5.498 -33.422  1.00  0.00    -0.206 F 
HETATM   26  C   UNL     1      -3.094  -3.565 -32.090  1.00  0.00     0.044 A 
HETATM   27  C   UNL     1      -3.366  -2.207 -31.895  1.00  0.00     0.034 A 
ENDBRANCH   7  21
TORSDOF 2
ENDMDL
MODEL 10
REMARK VINA RESULT:      -8.4      2.141      2.475
REMARK  2 active torsions:
REMARK  status: ('A' for Active; 'I' for Inactive)
REMARK    1  A    between atoms: C_3  and  C_4 
REMARK    2  A    between atoms: N_10  and  C_11 
ROOT
HETATM    1  C   UNL     1      -2.959   5.267 -31.534  1.00  0.00     0.049 A 
HETATM    2  N   UNL     1      -2.985   3.886 -31.564  1.00  0.00    -0.344 N 
HETATM    3  C   UNL     1      -3.994   3.192 -32.170  1.00  0.00     0.119 A 
HETATM    4  C   UNL     1      -5.023   3.834 -32.748  1.00  0.00     0.123 A 
HETATM    5  C   UNL     1      -5.870   2.810 -33.378  1.00  0.00     0.280 A 
HETATM    6  O   UNL     1      -6.887   3.033 -34.010  1.00  0.00    -0.265 OA
HETATM    7  N   UNL     1      -5.237   1.587 -33.103  1.00  0.00    -0.236 N 
HETATM    8  N   UNL     1      -4.085   1.821 -32.320  1.00  0.00    -0.179 NA
HETATM    9  C   UNL     1      -5.087   5.298 -32.741  1.00  0.00     0.193 A 
HETATM   10  O   UNL     1      -6.000   5.945 -33.237  1.00  0.00    -0.287 OA
HETATM   11  C   UNL     1      -3.944   6.002 -32.086  1.00  0.00     0.086 A 
HETATM   12  H   UNL     1      -2.233   3.370 -31.123  1.00  0.00     0.167 HD
HETATM   13  H   UNL     1      -3.239   1.457 -32.758  1.00  0.00     0.155 HD
ENDROOT
BRANCH   1  14
HETATM   14  C   UNL     1      -1.811   5.930 -30.878  1.00  0.00     0.012 A 
HETATM   15  C   UNL     1      -0.529   5.760 -31.431  1.00  0.00     0.015 A 
HETATM   16  C   UNL     1       0.591   6.363 -30.851  1.00  0.00     0.001 A 
HETATM   17  C   UNL     1       0.448   7.150 -29.714  1.00  0.00     0.002 A 
HETATM   18  C   UNL     1      -0.815   7.337 -29.152  1.00  0.00     0.025 A 
HETATM   19  C   UNL     1      -1.939   6.732 -29.727  1.00  0.00     0.046 A 
HETATM   20 CL   UNL     1      -3.464   7.005 -28.955  1.00  0.00    -0.083 Cl
ENDBRANCH   1  14
BRANCH   7  21
HETATM   21  C   UNL     1      -5.615   0.274 -33.455  1.00  0.00     0.055 A 
HETATM   22  C   UNL     1      -6.955  -0.053 -33.715  1.00  0.00     0.034 A 
HETATM   23  C   UNL     1      -7.321  -1.353 -34.079  1.00  0.00     0.044 A 
HETATM   24  C   UNL     1      -6.349  -2.337 -34.184  1.00  0.00     0.116 A 
HETATM   25  F   UNL     1      -6.698  -3.580 -34.535  1.00  0.00    -0.206 F 
HETATM   26  C   UNL     1      -5.016  -2.046 -33.927  1.00  0.00     0.044 A 
HETATM   27  C   UNL     1      -4.652  -0.745 -33.562  1.00  0.00     0.034 A 
ENDBRANCH   7  21
TORSDOF 2
ENDMDL
