MODEL 1
REMARK VINA RESULT:      -9.8      0.000      0.000
REMARK  8 active torsions:
REMARK  status: ('A' for Active; 'I' for Inactive)
REMARK    1  A    between atoms: C_2  and  N_3 
REMARK    2  A    between atoms: C_2  and  C_26 
REMARK       I    between atoms: N_3  and  C_4 
REMARK    3  A    between atoms: C_4  and  C_5 
REMARK    4  A    between atoms: C_5  and  S_6 
REMARK    5  A    between atoms: S_6  and  C_7 
REMARK    6  A    between atoms: C_10  and  C_11 
REMARK    7  A    between atoms: C_11  and  O_12 
REMARK    8  A    between atoms: O_12  and  C_13 
ROOT
HETATM    1  C   UNL     1      -2.714   4.910 -32.981  1.00  0.00     0.191 A 
HETATM    2  N   UNL     1      -3.776   4.053 -33.058  1.00  0.00    -0.314 N 
HETATM    3  C   UNL     1      -4.929   4.141 -33.919  1.00  0.00     0.160 C 
HETATM    4  C   UNL     1      -3.495   3.038 -32.170  1.00  0.00     0.154 A 
HETATM    5  N   UNL     1      -2.351   3.305 -31.567  1.00  0.00    -0.132 NA
HETATM    6  N   UNL     1      -1.859   4.476 -32.085  1.00  0.00    -0.123 NA
ENDROOT
BRANCH   1   7
HETATM    7  S   UNL     1      -2.531   6.313 -33.972  1.00  0.00    -0.081 SA
BRANCH   7   8
HETATM    8  C   UNL     1      -1.104   7.119 -33.192  1.00  0.00     0.185 C 
BRANCH   8   9
HETATM    9  C   UNL     1      -1.542   7.926 -31.984  1.00  0.00     0.227 C 
HETATM   10  N   UNL     1      -1.364   7.283 -30.780  1.00  0.00    -0.352 N 
HETATM   11  H   UNL     1      -1.262   6.270 -30.808  1.00  0.00     0.163 HD
HETATM   12  O   UNL     1      -2.007   9.059 -32.084  1.00  0.00    -0.273 OA
BRANCH  10  13
HETATM   13  C   UNL     1      -1.825   7.858 -29.529  1.00  0.00     0.113 C 
HETATM   14  C   UNL     1      -3.164   7.252 -29.103  1.00  0.00     0.037 C 
BRANCH  13  15
HETATM   15  C   UNL     1      -0.760   7.696 -28.460  1.00  0.00    -0.036 A 
HETATM   16  C   UNL     1       0.488   8.321 -28.619  1.00  0.00     0.009 A 
HETATM   17  C   UNL     1       1.485   8.180 -27.652  1.00  0.00     0.001 A 
HETATM   18  C   UNL     1       1.251   7.409 -26.516  1.00  0.00     0.000 A 
HETATM   19  C   UNL     1       0.021   6.777 -26.346  1.00  0.00     0.001 A 
HETATM   20  C   UNL     1      -0.978   6.916 -27.312  1.00  0.00     0.009 A 
ENDBRANCH  13  15
ENDBRANCH  10  13
ENDBRANCH   8   9
ENDBRANCH   7   8
ENDBRANCH   1   7
BRANCH   4  21
HETATM   21  C   UNL     1      -4.325   1.812 -31.992  1.00  0.00     0.256 C 
BRANCH  21  22
HETATM   22  O   UNL     1      -3.575   0.718 -32.513  1.00  0.00    -0.344 OA
BRANCH  22  23
HETATM   23  C   UNL     1      -4.284  -0.319 -33.054  1.00  0.00     0.069 A 
HETATM   24  C   UNL     1      -3.808  -1.610 -33.292  1.00  0.00     0.044 A 
HETATM   25  C   UNL     1      -4.638  -2.589 -33.869  1.00  0.00    -0.049 A 
HETATM   26  C   UNL     1      -5.958  -2.260 -34.225  1.00  0.00    -0.052 A 
HETATM   27  C   UNL     1      -4.067  -3.958 -34.153  1.00  0.00     0.039 C 
HETATM   28  C   UNL     1      -6.897  -3.284 -34.814  1.00  0.00     0.039 C 
HETATM   29  C   UNL     1      -6.433  -0.967 -33.970  1.00  0.00     0.010 A 
HETATM   30  C   UNL     1      -6.176  -4.498 -35.395  1.00  0.00     0.005 C 
HETATM   31  C   UNL     1      -5.135  -5.018 -34.413  1.00  0.00     0.005 C 
HETATM   32  C   UNL     1      -5.599  -0.007 -33.395  1.00  0.00     0.037 A 
ENDBRANCH  22  23
ENDBRANCH  21  22
ENDBRANCH   4  21
TORSDOF 8
ENDMDL
MODEL 2
REMARK VINA RESULT:      -9.7      1.839     10.466
REMARK  8 active torsions:
REMARK  status: ('A' for Active; 'I' for Inactive)
REMARK    1  A    between atoms: C_2  and  N_3 
REMARK    2  A    between atoms: C_2  and  C_26 
REMARK       I    between atoms: N_3  and  C_4 
REMARK    3  A    between atoms: C_4  and  C_5 
REMARK    4  A    between atoms: C_5  and  S_6 
REMARK    5  A    between atoms: S_6  and  C_7 
REMARK    6  A    between atoms: C_10  and  C_11 
REMARK    7  A    between atoms: C_11  and  O_12 
REMARK    8  A    between atoms: O_12  and  C_13 
ROOT
HETATM    1  C   UNL     1      -4.653   4.549 -33.452  1.00  0.00     0.191 A 
HETATM    2  N   UNL     1      -3.326   4.695 -33.158  1.00  0.00    -0.314 N 
HETATM    3  C   UNL     1      -2.618   4.232 -31.991  1.00  0.00     0.160 C 
HETATM    4  C   UNL     1      -2.776   5.339 -34.244  1.00  0.00     0.154 A 
HETATM    5  N   UNL     1      -3.736   5.601 -35.114  1.00  0.00    -0.132 NA
HETATM    6  N   UNL     1      -4.911   5.096 -34.618  1.00  0.00    -0.123 NA
ENDROOT
BRANCH   1   7
HETATM    7  S   UNL     1      -5.780   3.714 -32.445  1.00  0.00    -0.081 SA
BRANCH   7   8
HETATM    8  C   UNL     1      -5.058   2.050 -32.400  1.00  0.00     0.185 C 
BRANCH   8   9
HETATM    9  C   UNL     1      -6.134   0.998 -32.592  1.00  0.00     0.227 C 
HETATM   10  N   UNL     1      -5.895   0.129 -33.633  1.00  0.00    -0.352 N 
HETATM   11  H   UNL     1      -5.230   0.430 -34.343  1.00  0.00     0.163 HD
HETATM   12  O   UNL     1      -7.125   0.931 -31.869  1.00  0.00    -0.273 OA
BRANCH  10  13
HETATM   13  C   UNL     1      -6.867  -0.874 -34.032  1.00  0.00     0.113 C 
HETATM   14  C   UNL     1      -7.638  -0.431 -35.277  1.00  0.00     0.037 C 
BRANCH  13  15
HETATM   15  C   UNL     1      -6.177  -2.211 -34.234  1.00  0.00    -0.036 A 
HETATM   16  C   UNL     1      -6.906  -3.303 -34.736  1.00  0.00     0.009 A 
HETATM   17  C   UNL     1      -6.293  -4.544 -34.923  1.00  0.00     0.001 A 
HETATM   18  C   UNL     1      -4.947  -4.712 -34.609  1.00  0.00     0.000 A 
HETATM   19  C   UNL     1      -4.212  -3.641 -34.105  1.00  0.00     0.001 A 
HETATM   20  C   UNL     1      -4.822  -2.399 -33.916  1.00  0.00     0.009 A 
ENDBRANCH  13  15
ENDBRANCH  10  13
ENDBRANCH   8   9
ENDBRANCH   7   8
ENDBRANCH   1   7
BRANCH   4  21
HETATM   21  C   UNL     1      -1.322   5.616 -34.421  1.00  0.00     0.256 C 
BRANCH  21  22
HETATM   22  O   UNL     1      -1.115   6.991 -34.109  1.00  0.00    -0.344 OA
BRANCH  22  23
HETATM   23  C   UNL     1      -1.087   7.330 -32.784  1.00  0.00     0.069 A 
HETATM   24  C   UNL     1      -0.196   6.842 -31.825  1.00  0.00     0.044 A 
HETATM   25  C   UNL     1      -0.281   7.262 -30.485  1.00  0.00    -0.049 A 
HETATM   26  C   UNL     1      -1.283   8.170 -30.102  1.00  0.00    -0.052 A 
HETATM   27  C   UNL     1       0.672   6.673 -29.472  1.00  0.00     0.039 C 
HETATM   28  C   UNL     1      -1.393   8.676 -28.684  1.00  0.00     0.039 C 
HETATM   29  C   UNL     1      -2.165   8.665 -31.072  1.00  0.00     0.010 A 
HETATM   30  C   UNL     1      -0.663   7.796 -27.672  1.00  0.00     0.005 C 
HETATM   31  C   UNL     1       0.739   7.466 -28.169  1.00  0.00     0.005 C 
HETATM   32  C   UNL     1      -2.068   8.243 -32.398  1.00  0.00     0.037 A 
ENDBRANCH  22  23
ENDBRANCH  21  22
ENDBRANCH   4  21
TORSDOF 8
ENDMDL
MODEL 3
REMARK VINA RESULT:      -9.4      2.413     10.190
REMARK  8 active torsions:
REMARK  status: ('A' for Active; 'I' for Inactive)
REMARK    1  A    between atoms: C_2  and  N_3 
REMARK    2  A    between atoms: C_2  and  C_26 
REMARK       I    between atoms: N_3  and  C_4 
REMARK    3  A    between atoms: C_4  and  C_5 
REMARK    4  A    between atoms: C_5  and  S_6 
REMARK    5  A    between atoms: S_6  and  C_7 
REMARK    6  A    between atoms: C_10  and  C_11 
REMARK    7  A    between atoms: C_11  and  O_12 
REMARK    8  A    between atoms: O_12  and  C_13 
ROOT
HETATM    1  C   UNL     1      -6.513   3.548 -32.619  1.00  0.00     0.191 A 
HETATM    2  N   UNL     1      -5.197   3.671 -32.969  1.00  0.00    -0.314 N 
HETATM    3  C   UNL     1      -4.064   2.961 -32.433  1.00  0.00     0.160 C 
HETATM    4  C   UNL     1      -5.175   4.588 -33.998  1.00  0.00     0.154 A 
HETATM    5  N   UNL     1      -6.405   5.018 -34.211  1.00  0.00    -0.132 NA
HETATM    6  N   UNL     1      -7.244   4.357 -33.350  1.00  0.00    -0.123 NA
ENDROOT
BRANCH   1   7
HETATM    7  S   UNL     1      -7.096   2.442 -31.427  1.00  0.00    -0.081 SA
BRANCH   7   8
HETATM    8  C   UNL     1      -7.855   1.162 -32.466  1.00  0.00     0.185 C 
BRANCH   8   9
HETATM    9  C   UNL     1      -6.857   0.640 -33.482  1.00  0.00     0.227 C 
HETATM   10  N   UNL     1      -5.977  -0.294 -32.984  1.00  0.00    -0.352 N 
HETATM   11  H   UNL     1      -5.860  -0.324 -31.972  1.00  0.00     0.163 HD
HETATM   12  O   UNL     1      -6.850   1.019 -34.651  1.00  0.00    -0.273 OA
BRANCH  10  13
HETATM   13  C   UNL     1      -4.886  -0.822 -33.783  1.00  0.00     0.113 C 
HETATM   14  C   UNL     1      -3.543  -0.645 -33.070  1.00  0.00     0.037 C 
BRANCH  13  15
HETATM   15  C   UNL     1      -5.158  -2.273 -34.135  1.00  0.00    -0.036 A 
HETATM   16  C   UNL     1      -6.403  -2.639 -34.674  1.00  0.00     0.009 A 
HETATM   17  C   UNL     1      -6.677  -3.969 -34.999  1.00  0.00     0.001 A 
HETATM   18  C   UNL     1      -5.713  -4.951 -34.787  1.00  0.00     0.000 A 
HETATM   19  C   UNL     1      -4.476  -4.607 -34.248  1.00  0.00     0.001 A 
HETATM   20  C   UNL     1      -4.199  -3.278 -33.921  1.00  0.00     0.009 A 
ENDBRANCH  13  15
ENDBRANCH  10  13
ENDBRANCH   8   9
ENDBRANCH   7   8
ENDBRANCH   1   7
BRANCH   4  21
HETATM   21  C   UNL     1      -3.959   4.960 -34.776  1.00  0.00     0.256 C 
BRANCH  21  22
HETATM   22  O   UNL     1      -3.577   6.268 -34.358  1.00  0.00    -0.344 OA
BRANCH  22  23
HETATM   23  C   UNL     1      -2.688   6.353 -33.321  1.00  0.00     0.069 A 
HETATM   24  C   UNL     1      -2.727   7.278 -32.275  1.00  0.00     0.044 A 
HETATM   25  C   UNL     1      -1.741   7.269 -31.271  1.00  0.00    -0.049 A 
HETATM   26  C   UNL     1      -0.697   6.330 -31.329  1.00  0.00    -0.052 A 
HETATM   27  C   UNL     1      -1.793   8.317 -30.185  1.00  0.00     0.039 C 
HETATM   28  C   UNL     1       0.364   6.258 -30.257  1.00  0.00     0.039 C 
HETATM   29  C   UNL     1      -0.673   5.397 -32.374  1.00  0.00     0.010 A 
HETATM   30  C   UNL     1       0.460   7.532 -29.420  1.00  0.00     0.005 C 
HETATM   31  C   UNL     1      -0.925   7.981 -28.974  1.00  0.00     0.005 C 
HETATM   32  C   UNL     1      -1.658   5.415 -33.362  1.00  0.00     0.037 A 
ENDBRANCH  22  23
ENDBRANCH  21  22
ENDBRANCH   4  21
TORSDOF 8
ENDMDL
MODEL 4
REMARK VINA RESULT:      -9.3      2.247     10.749
REMARK  8 active torsions:
REMARK  status: ('A' for Active; 'I' for Inactive)
REMARK    1  A    between atoms: C_2  and  N_3 
REMARK    2  A    between atoms: C_2  and  C_26 
REMARK       I    between atoms: N_3  and  C_4 
REMARK    3  A    between atoms: C_4  and  C_5 
REMARK    4  A    between atoms: C_5  and  S_6 
REMARK    5  A    between atoms: S_6  and  C_7 
REMARK    6  A    between atoms: C_10  and  C_11 
REMARK    7  A    between atoms: C_11  and  O_12 
REMARK    8  A    between atoms: O_12  and  C_13 
ROOT
HETATM    1  C   UNL     1      -4.670   3.311 -32.009  1.00  0.00     0.191 A 
HETATM    2  N   UNL     1      -3.890   4.296 -32.546  1.00  0.00    -0.314 N 
HETATM    3  C   UNL     1      -4.300   5.406 -33.367  1.00  0.00     0.160 C 
HETATM    4  C   UNL     1      -2.613   4.042 -32.094  1.00  0.00     0.154 A 
HETATM    5  N   UNL     1      -2.632   2.939 -31.366  1.00  0.00    -0.132 NA
HETATM    6  N   UNL     1      -3.926   2.488 -31.307  1.00  0.00    -0.123 NA
ENDROOT
BRANCH   1   7
HETATM    7  S   UNL     1      -6.385   3.226 -32.198  1.00  0.00    -0.081 SA
BRANCH   7   8
HETATM    8  C   UNL     1      -6.788   1.780 -31.179  1.00  0.00     0.185 C 
BRANCH   8   9
HETATM    9  C   UNL     1      -7.534   0.743 -31.999  1.00  0.00     0.227 C 
HETATM   10  N   UNL     1      -6.793   0.185 -33.016  1.00  0.00    -0.352 N 
HETATM   11  H   UNL     1      -5.970   0.701 -33.324  1.00  0.00     0.163 HD
HETATM   12  O   UNL     1      -8.698   0.430 -31.759  1.00  0.00    -0.273 OA
BRANCH  10  13
HETATM   13  C   UNL     1      -7.376  -0.743 -33.968  1.00  0.00     0.113 C 
HETATM   14  C   UNL     1      -7.694  -0.049 -35.294  1.00  0.00     0.037 C 
BRANCH  13  15
HETATM   15  C   UNL     1      -6.458  -1.938 -34.155  1.00  0.00    -0.036 A 
HETATM   16  C   UNL     1      -6.969  -3.134 -34.687  1.00  0.00     0.009 A 
HETATM   17  C   UNL     1      -6.143  -4.246 -34.861  1.00  0.00     0.001 A 
HETATM   18  C   UNL     1      -4.799  -4.181 -34.503  1.00  0.00     0.000 A 
HETATM   19  C   UNL     1      -4.278  -3.004 -33.969  1.00  0.00     0.001 A 
HETATM   20  C   UNL     1      -5.102  -1.890 -33.793  1.00  0.00     0.009 A 
ENDBRANCH  13  15
ENDBRANCH  10  13
ENDBRANCH   8   9
ENDBRANCH   7   8
ENDBRANCH   1   7
BRANCH   4  21
HETATM   21  C   UNL     1      -1.436   4.922 -32.336  1.00  0.00     0.256 C 
BRANCH  21  22
HETATM   22  O   UNL     1      -0.558   4.767 -31.225  1.00  0.00    -0.344 OA
BRANCH  22  23
HETATM   23  C   UNL     1      -0.452   5.825 -30.364  1.00  0.00     0.069 A 
HETATM   24  C   UNL     1       0.401   5.910 -29.261  1.00  0.00     0.044 A 
HETATM   25  C   UNL     1       0.406   7.055 -28.443  1.00  0.00    -0.049 A 
HETATM   26  C   UNL     1      -0.467   8.118 -28.728  1.00  0.00    -0.052 A 
HETATM   27  C   UNL     1       1.309   7.085 -27.232  1.00  0.00     0.039 C 
HETATM   28  C   UNL     1      -0.474   9.381 -27.900  1.00  0.00     0.039 C 
HETATM   29  C   UNL     1      -1.310   8.031 -29.845  1.00  0.00     0.010 A 
HETATM   30  C   UNL     1       0.172   9.204 -26.528  1.00  0.00     0.005 C 
HETATM   31  C   UNL     1       1.508   8.486 -26.659  1.00  0.00     0.005 C 
HETATM   32  C   UNL     1      -1.303   6.892 -30.649  1.00  0.00     0.037 A 
ENDBRANCH  22  23
ENDBRANCH  21  22
ENDBRANCH   4  21
TORSDOF 8
ENDMDL
MODEL 5
REMARK VINA RESULT:      -9.1      4.608      8.464
REMARK  8 active torsions:
REMARK  status: ('A' for Active; 'I' for Inactive)
REMARK    1  A    between atoms: C_2  and  N_3 
REMARK    2  A    between atoms: C_2  and  C_26 
REMARK       I    between atoms: N_3  and  C_4 
REMARK    3  A    between atoms: C_4  and  C_5 
REMARK    4  A    between atoms: C_5  and  S_6 
REMARK    5  A    between atoms: S_6  and  C_7 
REMARK    6  A    between atoms: C_10  and  C_11 
REMARK    7  A    between atoms: C_11  and  O_12 
REMARK    8  A    between atoms: O_12  and  C_13 
ROOT
HETATM    1  C   UNL     1      -6.666   2.989 -30.256  1.00  0.00     0.191 A 
HETATM    2  N   UNL     1      -5.538   2.916 -31.023  1.00  0.00    -0.314 N 
HETATM    3  C   UNL     1      -4.843   3.990 -31.687  1.00  0.00     0.160 C 
HETATM    4  C   UNL     1      -5.156   1.593 -30.991  1.00  0.00     0.154 A 
HETATM    5  N   UNL     1      -6.038   0.912 -30.281  1.00  0.00    -0.132 NA
HETATM    6  N   UNL     1      -6.980   1.793 -29.814  1.00  0.00    -0.123 NA
ENDROOT
BRANCH   1   7
HETATM    7  S   UNL     1      -7.496   4.460 -29.896  1.00  0.00    -0.081 SA
BRANCH   7   8
HETATM    8  C   UNL     1      -9.203   4.026 -30.332  1.00  0.00     0.185 C 
BRANCH   8   9
HETATM    9  C   UNL     1      -9.253   3.381 -31.704  1.00  0.00     0.227 C 
HETATM   10  N   UNL     1      -9.860   2.145 -31.726  1.00  0.00    -0.352 N 
HETATM   11  H   UNL     1      -9.935   1.651 -30.838  1.00  0.00     0.163 HD
HETATM   12  O   UNL     1      -8.797   3.927 -32.705  1.00  0.00    -0.273 OA
BRANCH  10  13
HETATM   13  C   UNL     1      -9.903   1.333 -32.929  1.00  0.00     0.113 C 
HETATM   14  C   UNL     1      -9.398  -0.085 -32.657  1.00  0.00     0.037 C 
BRANCH  13  15
HETATM   15  C   UNL     1     -11.307   1.338 -33.507  1.00  0.00    -0.036 A 
HETATM   16  C   UNL     1     -11.816   2.510 -34.093  1.00  0.00     0.009 A 
HETATM   17  C   UNL     1     -13.106   2.539 -34.625  1.00  0.00     0.001 A 
HETATM   18  C   UNL     1     -13.907   1.400 -34.575  1.00  0.00     0.000 A 
HETATM   19  C   UNL     1     -13.420   0.233 -33.992  1.00  0.00     0.001 A 
HETATM   20  C   UNL     1     -12.130   0.201 -33.459  1.00  0.00     0.009 A 
ENDBRANCH  13  15
ENDBRANCH  10  13
ENDBRANCH   8   9
ENDBRANCH   7   8
ENDBRANCH   1   7
BRANCH   4  21
HETATM   21  C   UNL     1      -3.907   1.054 -31.602  1.00  0.00     0.256 C 
BRANCH  21  22
HETATM   22  O   UNL     1      -4.134   0.955 -33.005  1.00  0.00    -0.344 OA
BRANCH  22  23
HETATM   23  C   UNL     1      -4.659  -0.221 -33.468  1.00  0.00     0.069 A 
HETATM   24  C   UNL     1      -4.035  -1.470 -33.442  1.00  0.00     0.044 A 
HETATM   25  C   UNL     1      -4.679  -2.607 -33.964  1.00  0.00    -0.049 A 
HETATM   26  C   UNL     1      -5.958  -2.482 -34.533  1.00  0.00    -0.052 A 
HETATM   27  C   UNL     1      -3.949  -3.929 -33.959  1.00  0.00     0.039 C 
HETATM   28  C   UNL     1      -6.704  -3.678 -35.074  1.00  0.00     0.039 C 
HETATM   29  C   UNL     1      -6.583  -1.228 -34.543  1.00  0.00     0.010 A 
HETATM   30  C   UNL     1      -5.797  -4.872 -35.364  1.00  0.00     0.005 C 
HETATM   31  C   UNL     1      -4.864  -5.129 -34.188  1.00  0.00     0.005 C 
HETATM   32  C   UNL     1      -5.934  -0.109 -34.019  1.00  0.00     0.037 A 
ENDBRANCH  22  23
ENDBRANCH  21  22
ENDBRANCH   4  21
TORSDOF 8
ENDMDL
MODEL 6
REMARK VINA RESULT:      -8.9      1.634      2.029
REMARK  8 active torsions:
REMARK  status: ('A' for Active; 'I' for Inactive)
REMARK    1  A    between atoms: C_2  and  N_3 
REMARK    2  A    between atoms: C_2  and  C_26 
REMARK       I    between atoms: N_3  and  C_4 
REMARK    3  A    between atoms: C_4  and  C_5 
REMARK    4  A    between atoms: C_5  and  S_6 
REMARK    5  A    between atoms: S_6  and  C_7 
REMARK    6  A    between atoms: C_10  and  C_11 
REMARK    7  A    between atoms: C_11  and  O_12 
REMARK    8  A    between atoms: O_12  and  C_13 
ROOT
HETATM    1  C   UNL     1      -5.536   5.367 -32.776  1.00  0.00     0.191 A 
HETATM    2  N   UNL     1      -5.454   4.134 -32.191  1.00  0.00    -0.314 N 
HETATM    3  C   UNL     1      -4.841   3.786 -30.934  1.00  0.00     0.160 C 
HETATM    4  C   UNL     1      -6.134   3.281 -33.032  1.00  0.00     0.154 A 
HETATM    5  N   UNL     1      -6.555   3.965 -34.081  1.00  0.00    -0.132 NA
HETATM    6  N   UNL     1      -6.186   5.275 -33.913  1.00  0.00    -0.123 NA
ENDROOT
BRANCH   1   7
HETATM    7  S   UNL     1      -4.916   6.816 -32.068  1.00  0.00    -0.081 SA
BRANCH   7   8
HETATM    8  C   UNL     1      -3.187   6.772 -32.616  1.00  0.00     0.185 C 
BRANCH   8   9
HETATM    9  C   UNL     1      -2.386   7.866 -31.935  1.00  0.00     0.227 C 
HETATM   10  N   UNL     1      -2.435   7.832 -30.560  1.00  0.00    -0.352 N 
HETATM   11  H   UNL     1      -3.204   7.314 -30.138  1.00  0.00     0.163 HD
HETATM   12  O   UNL     1      -1.744   8.701 -32.568  1.00  0.00    -0.273 OA
BRANCH  10  13
HETATM   13  C   UNL     1      -1.817   8.863 -29.745  1.00  0.00     0.113 C 
HETATM   14  C   UNL     1      -2.864   9.615 -28.920  1.00  0.00     0.037 C 
BRANCH  13  15
HETATM   15  C   UNL     1      -0.734   8.254 -28.874  1.00  0.00    -0.036 A 
HETATM   16  C   UNL     1      -0.082   9.047 -27.914  1.00  0.00     0.009 A 
HETATM   17  C   UNL     1       0.922   8.510 -27.107  1.00  0.00     0.001 A 
HETATM   18  C   UNL     1       1.291   7.175 -27.249  1.00  0.00     0.000 A 
HETATM   19  C   UNL     1       0.660   6.376 -28.200  1.00  0.00     0.001 A 
HETATM   20  C   UNL     1      -0.344   6.911 -29.009  1.00  0.00     0.009 A 
ENDBRANCH  13  15
ENDBRANCH  10  13
ENDBRANCH   8   9
ENDBRANCH   7   8
ENDBRANCH   1   7
BRANCH   4  21
HETATM   21  C   UNL     1      -6.402   1.843 -32.747  1.00  0.00     0.256 C 
BRANCH  21  22
HETATM   22  O   UNL     1      -5.297   1.101 -33.254  1.00  0.00    -0.344 OA
BRANCH  22  23
HETATM   23  C   UNL     1      -5.542  -0.187 -33.646  1.00  0.00     0.069 A 
HETATM   24  C   UNL     1      -4.642  -1.253 -33.588  1.00  0.00     0.044 A 
HETATM   25  C   UNL     1      -5.013  -2.535 -34.036  1.00  0.00    -0.049 A 
HETATM   26  C   UNL     1      -6.300  -2.741 -34.564  1.00  0.00    -0.052 A 
HETATM   27  C   UNL     1      -3.993  -3.647 -34.000  1.00  0.00     0.039 C 
HETATM   28  C   UNL     1      -6.756  -4.104 -35.025  1.00  0.00     0.039 C 
HETATM   29  C   UNL     1      -7.202  -1.670 -34.606  1.00  0.00     0.010 A 
HETATM   30  C   UNL     1      -5.602  -5.066 -35.295  1.00  0.00     0.005 C 
HETATM   31  C   UNL     1      -4.606  -5.038 -34.143  1.00  0.00     0.005 C 
HETATM   32  C   UNL     1      -6.821  -0.405 -34.155  1.00  0.00     0.037 A 
ENDBRANCH  22  23
ENDBRANCH  21  22
ENDBRANCH   4  21
TORSDOF 8
ENDMDL
MODEL 7
REMARK VINA RESULT:      -8.9      3.126      4.724
REMARK  8 active torsions:
REMARK  status: ('A' for Active; 'I' for Inactive)
REMARK    1  A    between atoms: C_2  and  N_3 
REMARK    2  A    between atoms: C_2  and  C_26 
REMARK       I    between atoms: N_3  and  C_4 
REMARK    3  A    between atoms: C_4  and  C_5 
REMARK    4  A    between atoms: C_5  and  S_6 
REMARK    5  A    between atoms: S_6  and  C_7 
REMARK    6  A    between atoms: C_10  and  C_11 
REMARK    7  A    between atoms: C_11  and  O_12 
REMARK    8  A    between atoms: O_12  and  C_13 
ROOT
HETATM    1  C   UNL     1      -7.251   3.944 -30.282  1.00  0.00     0.191 A 
HETATM    2  N   UNL     1      -6.987   2.644 -30.613  1.00  0.00    -0.314 N 
HETATM    3  C   UNL     1      -6.002   1.764 -30.040  1.00  0.00     0.160 C 
HETATM    4  C   UNL     1      -7.905   2.319 -31.588  1.00  0.00     0.154 A 
HETATM    5  N   UNL     1      -8.642   3.384 -31.850  1.00  0.00    -0.132 NA
HETATM    6  N   UNL     1      -8.235   4.399 -31.023  1.00  0.00    -0.123 NA
ENDROOT
BRANCH   1   7
HETATM    7  S   UNL     1      -6.433   4.808 -29.030  1.00  0.00    -0.081 SA
BRANCH   7   8
HETATM    8  C   UNL     1      -5.434   5.976 -29.994  1.00  0.00     0.185 C 
BRANCH   8   9
HETATM    9  C   UNL     1      -4.666   5.248 -31.082  1.00  0.00     0.227 C 
HETATM   10  N   UNL     1      -3.615   4.487 -30.621  1.00  0.00    -0.352 N 
HETATM   11  H   UNL     1      -3.258   4.707 -29.693  1.00  0.00     0.163 HD
HETATM   12  O   UNL     1      -4.971   5.331 -32.269  1.00  0.00    -0.273 OA
BRANCH  10  13
HETATM   13  C   UNL     1      -2.705   3.809 -31.527  1.00  0.00     0.113 C 
HETATM   14  C   UNL     1      -3.418   2.690 -32.289  1.00  0.00     0.037 C 
BRANCH  13  15
HETATM   15  C   UNL     1      -2.059   4.815 -32.461  1.00  0.00    -0.036 A 
HETATM   16  C   UNL     1      -1.461   5.972 -31.935  1.00  0.00     0.009 A 
HETATM   17  C   UNL     1      -0.867   6.914 -32.777  1.00  0.00     0.001 A 
HETATM   18  C   UNL     1      -0.865   6.715 -34.155  1.00  0.00     0.000 A 
HETATM   19  C   UNL     1      -1.459   5.576 -34.694  1.00  0.00     0.001 A 
HETATM   20  C   UNL     1      -2.055   4.632 -33.854  1.00  0.00     0.009 A 
ENDBRANCH  13  15
ENDBRANCH  10  13
ENDBRANCH   8   9
ENDBRANCH   7   8
ENDBRANCH   1   7
BRANCH   4  21
HETATM   21  C   UNL     1      -8.070   0.960 -32.179  1.00  0.00     0.256 C 
BRANCH  21  22
HETATM   22  O   UNL     1      -7.283   0.920 -33.365  1.00  0.00    -0.344 OA
BRANCH  22  23
HETATM   23  C   UNL     1      -6.605  -0.241 -33.621  1.00  0.00     0.069 A 
HETATM   24  C   UNL     1      -7.155  -1.428 -34.110  1.00  0.00     0.044 A 
HETATM   25  C   UNL     1      -6.348  -2.562 -34.320  1.00  0.00    -0.049 A 
HETATM   26  C   UNL     1      -4.976  -2.505 -34.020  1.00  0.00    -0.052 A 
HETATM   27  C   UNL     1      -6.993  -3.839 -34.802  1.00  0.00     0.039 C 
HETATM   28  C   UNL     1      -4.064  -3.683 -34.261  1.00  0.00     0.039 C 
HETATM   29  C   UNL     1      -4.429  -1.306 -33.544  1.00  0.00     0.010 A 
HETATM   30  C   UNL     1      -4.813  -5.007 -34.395  1.00  0.00     0.005 C 
HETATM   31  C   UNL     1      -5.992  -4.856 -35.347  1.00  0.00     0.005 C 
HETATM   32  C   UNL     1      -5.240  -0.188 -33.342  1.00  0.00     0.037 A 
ENDBRANCH  22  23
ENDBRANCH  21  22
ENDBRANCH   4  21
TORSDOF 8
ENDMDL
MODEL 8
REMARK VINA RESULT:      -8.8      2.263      4.045
REMARK  8 active torsions:
REMARK  status: ('A' for Active; 'I' for Inactive)
REMARK    1  A    between atoms: C_2  and  N_3 
REMARK    2  A    between atoms: C_2  and  C_26 
REMARK       I    between atoms: N_3  and  C_4 
REMARK    3  A    between atoms: C_4  and  C_5 
REMARK    4  A    between atoms: C_5  and  S_6 
REMARK    5  A    between atoms: S_6  and  C_7 
REMARK    6  A    between atoms: C_10  and  C_11 
REMARK    7  A    between atoms: C_11  and  O_12 
REMARK    8  A    between atoms: O_12  and  C_13 
ROOT
HETATM    1  C   UNL     1      -6.693   4.633 -30.379  1.00  0.00     0.191 A 
HETATM    2  N   UNL     1      -5.942   4.370 -31.490  1.00  0.00    -0.314 N 
HETATM    3  C   UNL     1      -5.167   5.293 -32.279  1.00  0.00     0.160 C 
HETATM    4  C   UNL     1      -6.031   3.008 -31.680  1.00  0.00     0.154 A 
HETATM    5  N   UNL     1      -6.829   2.501 -30.757  1.00  0.00    -0.132 NA
HETATM    6  N   UNL     1      -7.236   3.523 -29.937  1.00  0.00    -0.123 NA
ENDROOT
BRANCH   1   7
HETATM    7  S   UNL     1      -6.836   6.196 -29.658  1.00  0.00    -0.081 SA
BRANCH   7   8
HETATM    8  C   UNL     1      -5.391   6.220 -28.561  1.00  0.00     0.185 C 
BRANCH   8   9
HETATM    9  C   UNL     1      -4.274   7.048 -29.169  1.00  0.00     0.227 C 
HETATM   10  N   UNL     1      -3.136   6.332 -29.465  1.00  0.00    -0.352 N 
HETATM   11  H   UNL     1      -3.017   5.437 -28.993  1.00  0.00     0.163 HD
HETATM   12  O   UNL     1      -4.391   8.252 -29.384  1.00  0.00    -0.273 OA
BRANCH  10  13
HETATM   13  C   UNL     1      -1.930   6.978 -29.952  1.00  0.00     0.113 C 
HETATM   14  C   UNL     1      -0.703   6.530 -29.154  1.00  0.00     0.037 C 
BRANCH  13  15
HETATM   15  C   UNL     1      -1.768   6.718 -31.439  1.00  0.00    -0.036 A 
HETATM   16  C   UNL     1      -1.334   5.459 -31.885  1.00  0.00     0.009 A 
HETATM   17  C   UNL     1      -1.173   5.201 -33.248  1.00  0.00     0.001 A 
HETATM   18  C   UNL     1      -1.439   6.198 -34.183  1.00  0.00     0.000 A 
HETATM   19  C   UNL     1      -1.865   7.454 -33.757  1.00  0.00     0.001 A 
HETATM   20  C   UNL     1      -2.026   7.715 -32.395  1.00  0.00     0.009 A 
ENDBRANCH  13  15
ENDBRANCH  10  13
ENDBRANCH   8   9
ENDBRANCH   7   8
ENDBRANCH   1   7
BRANCH   4  21
HETATM   21  C   UNL     1      -5.281   2.244 -32.717  1.00  0.00     0.256 C 
BRANCH  21  22
HETATM   22  O   UNL     1      -6.199   1.334 -33.315  1.00  0.00    -0.344 OA
BRANCH  22  23
HETATM   23  C   UNL     1      -5.755   0.058 -33.533  1.00  0.00     0.069 A 
HETATM   24  C   UNL     1      -6.480  -0.978 -34.127  1.00  0.00     0.044 A 
HETATM   25  C   UNL     1      -5.911  -2.256 -34.284  1.00  0.00    -0.049 A 
HETATM   26  C   UNL     1      -4.605  -2.497 -33.823  1.00  0.00    -0.052 A 
HETATM   27  C   UNL     1      -6.747  -3.360 -34.886  1.00  0.00     0.039 C 
HETATM   28  C   UNL     1      -3.939  -3.841 -34.000  1.00  0.00     0.039 C 
HETATM   29  C   UNL     1      -3.879  -1.449 -33.242  1.00  0.00     0.010 A 
HETATM   30  C   UNL     1      -4.929  -4.972 -34.271  1.00  0.00     0.005 C 
HETATM   31  C   UNL     1      -5.924  -4.561 -35.348  1.00  0.00     0.005 C 
HETATM   32  C   UNL     1      -4.454  -0.186 -33.095  1.00  0.00     0.037 A 
ENDBRANCH  22  23
ENDBRANCH  21  22
ENDBRANCH   4  21
TORSDOF 8
ENDMDL
MODEL 9
REMARK VINA RESULT:      -8.8      5.368      8.931
REMARK  8 active torsions:
REMARK  status: ('A' for Active; 'I' for Inactive)
REMARK    1  A    between atoms: C_2  and  N_3 
REMARK    2  A    between atoms: C_2  and  C_26 
REMARK       I    between atoms: N_3  and  C_4 
REMARK    3  A    between atoms: C_4  and  C_5 
REMARK    4  A    between atoms: C_5  and  S_6 
REMARK    5  A    between atoms: S_6  and  C_7 
REMARK    6  A    between atoms: C_10  and  C_11 
REMARK    7  A    between atoms: C_11  and  O_12 
REMARK    8  A    between atoms: O_12  and  C_13 
ROOT
HETATM    1  C   UNL     1      -7.700   4.296 -32.028  1.00  0.00     0.191 A 
HETATM    2  N   UNL     1      -7.437   2.991 -31.722  1.00  0.00    -0.314 N 
HETATM    3  C   UNL     1      -8.376   1.952 -31.381  1.00  0.00     0.160 C 
HETATM    4  C   UNL     1      -6.074   2.847 -31.859  1.00  0.00     0.154 A 
HETATM    5  N   UNL     1      -5.553   4.017 -32.184  1.00  0.00    -0.132 NA
HETATM    6  N   UNL     1      -6.577   4.922 -32.298  1.00  0.00    -0.123 NA
ENDROOT
BRANCH   1   7
HETATM    7  S   UNL     1      -9.287   4.973 -32.097  1.00  0.00    -0.081 SA
BRANCH   7   8
HETATM    8  C   UNL     1      -9.482   5.251 -33.879  1.00  0.00     0.185 C 
BRANCH   8   9
HETATM    9  C   UNL     1     -10.401   4.206 -34.484  1.00  0.00     0.227 C 
HETATM   10  N   UNL     1     -10.891   3.291 -33.578  1.00  0.00    -0.352 N 
HETATM   11  H   UNL     1     -10.386   3.196 -32.698  1.00  0.00     0.163 HD
HETATM   12  O   UNL     1     -10.684   4.191 -35.679  1.00  0.00    -0.273 OA
BRANCH  10  13
HETATM   13  C   UNL     1     -11.698   2.158 -33.994  1.00  0.00     0.113 C 
HETATM   14  C   UNL     1     -11.005   0.835 -33.658  1.00  0.00     0.037 C 
BRANCH  13  15
HETATM   15  C   UNL     1     -13.080   2.251 -33.375  1.00  0.00    -0.036 A 
HETATM   16  C   UNL     1     -13.345   3.231 -32.402  1.00  0.00     0.009 A 
HETATM   17  C   UNL     1     -14.608   3.331 -31.816  1.00  0.00     0.001 A 
HETATM   18  C   UNL     1     -15.622   2.452 -32.189  1.00  0.00     0.000 A 
HETATM   19  C   UNL     1     -15.375   1.472 -33.147  1.00  0.00     0.001 A 
HETATM   20  C   UNL     1     -14.112   1.369 -33.735  1.00  0.00     0.009 A 
ENDBRANCH  13  15
ENDBRANCH  10  13
ENDBRANCH   8   9
ENDBRANCH   7   8
ENDBRANCH   1   7
BRANCH   4  21
HETATM   21  C   UNL     1      -5.339   1.556 -31.731  1.00  0.00     0.256 C 
BRANCH  21  22
HETATM   22  O   UNL     1      -4.928   1.174 -33.041  1.00  0.00    -0.344 OA
BRANCH  22  23
HETATM   23  C   UNL     1      -5.301  -0.070 -33.470  1.00  0.00     0.069 A 
HETATM   24  C   UNL     1      -4.490  -1.206 -33.515  1.00  0.00     0.044 A 
HETATM   25  C   UNL     1      -4.992  -2.431 -33.993  1.00  0.00    -0.049 A 
HETATM   26  C   UNL     1      -6.321  -2.509 -34.445  1.00  0.00    -0.052 A 
HETATM   27  C   UNL     1      -4.066  -3.621 -34.071  1.00  0.00     0.039 C 
HETATM   28  C   UNL     1      -6.915  -3.808 -34.933  1.00  0.00     0.039 C 
HETATM   29  C   UNL     1      -7.133  -1.369 -34.383  1.00  0.00     0.010 A 
HETATM   30  C   UNL     1      -5.863  -4.845 -35.319  1.00  0.00     0.005 C 
HETATM   31  C   UNL     1      -4.800  -4.951 -34.233  1.00  0.00     0.005 C 
HETATM   32  C   UNL     1      -6.623  -0.161 -33.905  1.00  0.00     0.037 A 
ENDBRANCH  22  23
ENDBRANCH  21  22
ENDBRANCH   4  21
TORSDOF 8
ENDMDL
MODEL 10
REMARK VINA RESULT:      -8.6      2.302     10.166
REMARK  8 active torsions:
REMARK  status: ('A' for Active; 'I' for Inactive)
REMARK    1  A    between atoms: C_2  and  N_3 
REMARK    2  A    between atoms: C_2  and  C_26 
REMARK       I    between atoms: N_3  and  C_4 
REMARK    3  A    between atoms: C_4  and  C_5 
REMARK    4  A    between atoms: C_5  and  S_6 
REMARK    5  A    between atoms: S_6  and  C_7 
REMARK    6  A    between atoms: C_10  and  C_11 
REMARK    7  A    between atoms: C_11  and  O_12 
REMARK    8  A    between atoms: O_12  and  C_13 
ROOT
HETATM    1  C   UNL     1      -5.332   4.682 -32.189  1.00  0.00     0.191 A 
HETATM    2  N   UNL     1      -4.716   5.899 -32.273  1.00  0.00    -0.314 N 
HETATM    3  C   UNL     1      -5.076   7.125 -31.607  1.00  0.00     0.160 C 
HETATM    4  C   UNL     1      -3.627   5.706 -33.094  1.00  0.00     0.154 A 
HETATM    5  N   UNL     1      -3.626   4.452 -33.511  1.00  0.00    -0.132 NA
HETATM    6  N   UNL     1      -4.692   3.810 -32.934  1.00  0.00    -0.123 NA
ENDROOT
BRANCH   1   7
HETATM    7  S   UNL     1      -6.709   4.361 -31.197  1.00  0.00    -0.081 SA
BRANCH   7   8
HETATM    8  C   UNL     1      -6.408   2.639 -30.711  1.00  0.00     0.185 C 
BRANCH   8   9
HETATM    9  C   UNL     1      -7.236   1.694 -31.561  1.00  0.00     0.227 C 
HETATM   10  N   UNL     1      -6.521   1.039 -32.538  1.00  0.00    -0.352 N 
HETATM   11  H   UNL     1      -5.627   1.446 -32.808  1.00  0.00     0.163 HD
HETATM   12  O   UNL     1      -8.439   1.528 -31.377  1.00  0.00    -0.273 OA
BRANCH  10  13
HETATM   13  C   UNL     1      -7.167   0.178 -33.513  1.00  0.00     0.113 C 
HETATM   14  C   UNL     1      -7.509   0.950 -34.790  1.00  0.00     0.037 C 
BRANCH  13  15
HETATM   15  C   UNL     1      -6.295  -1.032 -33.794  1.00  0.00    -0.036 A 
HETATM   16  C   UNL     1      -6.779  -2.065 -34.615  1.00  0.00     0.009 A 
HETATM   17  C   UNL     1      -5.996  -3.190 -34.881  1.00  0.00     0.001 A 
HETATM   18  C   UNL     1      -4.723  -3.301 -34.328  1.00  0.00     0.000 A 
HETATM   19  C   UNL     1      -4.231  -2.288 -33.507  1.00  0.00     0.001 A 
HETATM   20  C   UNL     1      -5.011  -1.162 -33.239  1.00  0.00     0.009 A 
ENDBRANCH  13  15
ENDBRANCH  10  13
ENDBRANCH   8   9
ENDBRANCH   7   8
ENDBRANCH   1   7
BRANCH   4  21
HETATM   21  C   UNL     1      -2.592   6.737 -33.389  1.00  0.00     0.256 C 
BRANCH  21  22
HETATM   22  O   UNL     1      -1.326   6.163 -33.076  1.00  0.00    -0.344 OA
BRANCH  22  23
HETATM   23  C   UNL     1      -0.858   6.346 -31.803  1.00  0.00     0.069 A 
HETATM   24  C   UNL     1      -1.167   7.412 -30.956  1.00  0.00     0.044 A 
HETATM   25  C   UNL     1      -0.607   7.492 -29.667  1.00  0.00    -0.049 A 
HETATM   26  C   UNL     1       0.285   6.497 -29.233  1.00  0.00    -0.052 A 
HETATM   27  C   UNL     1      -0.930   8.687 -28.802  1.00  0.00     0.039 C 
HETATM   28  C   UNL     1       0.884   6.520 -27.848  1.00  0.00     0.039 C 
HETATM   29  C   UNL     1       0.579   5.423 -30.084  1.00  0.00     0.010 A 
HETATM   30  C   UNL     1       0.811   7.894 -27.183  1.00  0.00     0.005 C 
HETATM   31  C   UNL     1      -0.587   8.480 -27.328  1.00  0.00     0.005 C 
HETATM   32  C   UNL     1       0.015   5.355 -31.358  1.00  0.00     0.037 A 
ENDBRANCH  22  23
ENDBRANCH  21  22
ENDBRANCH   4  21
TORSDOF 8
ENDMDL
