MODEL 1
REMARK VINA RESULT:      -9.3      0.000      0.000
REMARK  8 active torsions:
REMARK  status: ('A' for Active; 'I' for Inactive)
REMARK    1  A    between atoms: C_2  and  O_3 
REMARK    2  A    between atoms: O_3  and  C_4 
REMARK    3  A    between atoms: C_4  and  C_5 
REMARK    4  A    between atoms: C_10  and  N_11 
REMARK       I    between atoms: N_11  and  C_12 
REMARK    5  A    between atoms: C_12  and  C_13 
REMARK    6  A    between atoms: C_13  and  N_14 
REMARK    7  A    between atoms: N_18  and  C_19 
REMARK    8  A    between atoms: C_21  and  C_22 
ROOT
HETATM    1  N   UNL     1      -3.114   6.146 -29.751  1.00  0.00    -0.323 N 
HETATM    2  C   UNL     1      -4.051   6.809 -30.516  1.00  0.00     0.248 C 
HETATM    3  O   UNL     1      -3.803   7.714 -31.309  1.00  0.00    -0.271 OA
HETATM    4  H   UNL     1      -3.275   5.171 -29.500  1.00  0.00     0.169 HD
ENDROOT
BRANCH   1   5
HETATM    5  C   UNL     1      -1.789   6.563 -29.625  1.00  0.00     0.080 A 
HETATM    6  C   UNL     1      -0.825   6.229 -30.563  1.00  0.00     0.137 A 
HETATM    7  N   UNL     1       0.354   6.810 -30.159  1.00  0.00    -0.349 N 
HETATM    8  H   UNL     1       1.224   6.749 -30.673  1.00  0.00     0.166 HD
HETATM    9  C   UNL     1       0.190   7.485 -28.973  1.00  0.00     0.048 A 
HETATM   10  C   UNL     1      -1.152   7.333 -28.594  1.00  0.00     0.023 A 
HETATM   11  C   UNL     1       1.134   8.205 -28.221  1.00  0.00     0.070 A 
HETATM   12  C   UNL     1      -1.567   7.894 -27.361  1.00  0.00     0.055 A 
HETATM   13  C   UNL     1      -0.634   8.605 -26.630  1.00  0.00     0.106 A 
HETATM   14  C   UNL     1       0.662   8.758 -27.047  1.00  0.00     0.107 A 
HETATM   15  O   UNL     1      -0.877   9.221 -25.441  1.00  0.00    -0.323 OA
HETATM   16  O   UNL     1       1.401   9.497 -26.174  1.00  0.00    -0.323 OA
HETATM   17  C   UNL     1       0.411   9.814 -25.175  1.00  0.00     0.352 A 
BRANCH   6  18
HETATM   18  C   UNL     1      -0.988   5.474 -31.781  1.00  0.00     0.312 C 
HETATM   19  O   UNL     1      -1.379   4.313 -31.817  1.00  0.00    -0.258 OA
BRANCH  18  20
HETATM   20  O   UNL     1      -0.678   6.253 -32.851  1.00  0.00    -0.317 OA
BRANCH  20  21
HETATM   21  C   UNL     1      -1.696   6.387 -33.854  1.00  0.00     0.175 C 
HETATM   22  C   UNL     1      -1.491   5.355 -34.944  1.00  0.00     0.034 C 
ENDBRANCH  20  21
ENDBRANCH  18  20
ENDBRANCH   6  18
ENDBRANCH   1   5
BRANCH   2  23
HETATM   23  C   UNL     1      -5.488   6.301 -30.328  1.00  0.00     0.337 C 
BRANCH  23  24
HETATM   24  N   UNL     1      -5.788   4.914 -30.924  1.00  0.00    -0.060 N 
HETATM   25  H   UNL     1      -6.775   4.908 -31.201  1.00  0.00     0.280 HD
HETATM   26  C   UNL     1      -4.978   4.628 -32.199  1.00  0.00     0.255 C 
HETATM   27  C   UNL     1      -5.302   3.228 -32.764  1.00  0.00     0.150 C 
HETATM   28  N   UNL     1      -5.123   2.211 -31.713  1.00  0.00    -0.378 N 
HETATM   29  C   UNL     1      -5.939   2.414 -30.507  1.00  0.00     0.150 C 
HETATM   30  C   UNL     1      -5.617   3.793 -29.892  1.00  0.00     0.255 C 
BRANCH  28  31
HETATM   31  C   UNL     1      -4.805   0.919 -32.125  1.00  0.00     0.030 A 
HETATM   32  C   UNL     1      -5.651   0.249 -33.025  1.00  0.00     0.045 A 
HETATM   33  C   UNL     1      -5.359  -1.037 -33.517  1.00  0.00     0.050 A 
HETATM   34  C   UNL     1      -4.178  -1.664 -33.107  1.00  0.00     0.016 A 
HETATM   35  C   UNL     1      -3.322  -1.020 -32.220  1.00  0.00     0.003 A 
HETATM   36  C   UNL     1      -3.633   0.256 -31.739  1.00  0.00     0.029 A 
BRANCH  33  37
HETATM   37  C   UNL     1      -6.274  -1.706 -34.513  1.00  0.00     0.417 C 
HETATM   38  F   UNL     1      -6.892  -0.821 -35.346  1.00  0.00    -0.166 F 
HETATM   39  F   UNL     1      -5.614  -2.581 -35.317  1.00  0.00    -0.166 F 
HETATM   40  F   UNL     1      -7.272  -2.415 -33.919  1.00  0.00    -0.166 F 
ENDBRANCH  33  37
ENDBRANCH  28  31
ENDBRANCH  23  24
ENDBRANCH   2  23
TORSDOF 8
ENDMDL
MODEL 2
REMARK VINA RESULT:      -9.2      2.560      3.314
REMARK  8 active torsions:
REMARK  status: ('A' for Active; 'I' for Inactive)
REMARK    1  A    between atoms: C_2  and  O_3 
REMARK    2  A    between atoms: O_3  and  C_4 
REMARK    3  A    between atoms: C_4  and  C_5 
REMARK    4  A    between atoms: C_10  and  N_11 
REMARK       I    between atoms: N_11  and  C_12 
REMARK    5  A    between atoms: C_12  and  C_13 
REMARK    6  A    between atoms: C_13  and  N_14 
REMARK    7  A    between atoms: N_18  and  C_19 
REMARK    8  A    between atoms: C_21  and  C_22 
ROOT
HETATM    1  N   UNL     1      -3.558   5.313 -30.521  1.00  0.00    -0.323 N 
HETATM    2  C   UNL     1      -4.661   5.104 -31.323  1.00  0.00     0.248 C 
HETATM    3  O   UNL     1      -5.058   5.874 -32.193  1.00  0.00    -0.271 OA
HETATM    4  H   UNL     1      -3.024   4.511 -30.187  1.00  0.00     0.169 HD
ENDROOT
BRANCH   1   5
HETATM    5  C   UNL     1      -2.876   6.528 -30.454  1.00  0.00     0.080 A 
HETATM    6  C   UNL     1      -1.723   6.762 -31.187  1.00  0.00     0.137 A 
HETATM    7  N   UNL     1      -1.321   8.048 -30.915  1.00  0.00    -0.349 N 
HETATM    8  H   UNL     1      -0.515   8.493 -31.335  1.00  0.00     0.166 HD
HETATM    9  C   UNL     1      -2.160   8.645 -30.004  1.00  0.00     0.048 A 
HETATM   10  C   UNL     1      -3.147   7.703 -29.674  1.00  0.00     0.023 A 
HETATM   11  C   UNL     1      -2.105   9.937 -29.457  1.00  0.00     0.070 A 
HETATM   12  C   UNL     1      -4.110   8.058 -28.698  1.00  0.00     0.055 A 
HETATM   13  C   UNL     1      -4.052   9.333 -28.169  1.00  0.00     0.106 A 
HETATM   14  C   UNL     1      -3.091  10.237 -28.538  1.00  0.00     0.107 A 
HETATM   15  O   UNL     1      -4.913   9.834 -27.242  1.00  0.00    -0.323 OA
HETATM   16  O   UNL     1      -3.228  11.429 -27.893  1.00  0.00    -0.323 OA
HETATM   17  C   UNL     1      -4.404  11.176 -27.098  1.00  0.00     0.352 A 
BRANCH   6  18
HETATM   18  C   UNL     1      -1.066   5.882 -32.123  1.00  0.00     0.312 C 
HETATM   19  O   UNL     1      -0.722   4.736 -31.856  1.00  0.00    -0.258 OA
BRANCH  18  20
HETATM   20  O   UNL     1      -0.930   6.504 -33.323  1.00  0.00    -0.317 OA
BRANCH  20  21
HETATM   21  C   UNL     1      -2.116   6.602 -34.126  1.00  0.00     0.175 C 
HETATM   22  C   UNL     1      -2.403   5.272 -34.793  1.00  0.00     0.034 C 
ENDBRANCH  20  21
ENDBRANCH  18  20
ENDBRANCH   6  18
ENDBRANCH   1   5
BRANCH   2  23
HETATM   23  C   UNL     1      -5.377   3.769 -31.068  1.00  0.00     0.337 C 
BRANCH  23  24
HETATM   24  N   UNL     1      -5.140   2.673 -32.122  1.00  0.00    -0.060 N 
HETATM   25  H   UNL     1      -4.566   3.083 -32.866  1.00  0.00     0.280 HD
HETATM   26  C   UNL     1      -4.347   1.478 -31.569  1.00  0.00     0.255 C 
HETATM   27  C   UNL     1      -4.134   0.399 -32.654  1.00  0.00     0.150 C 
HETATM   28  N   UNL     1      -5.431   0.021 -33.243  1.00  0.00    -0.378 N 
HETATM   29  C   UNL     1      -6.184   1.129 -33.847  1.00  0.00     0.150 C 
HETATM   30  C   UNL     1      -6.447   2.215 -32.782  1.00  0.00     0.255 C 
BRANCH  28  31
HETATM   31  C   UNL     1      -5.538  -1.261 -33.776  1.00  0.00     0.030 A 
HETATM   32  C   UNL     1      -4.568  -2.228 -33.460  1.00  0.00     0.045 A 
HETATM   33  C   UNL     1      -4.647  -3.554 -33.926  1.00  0.00     0.050 A 
HETATM   34  C   UNL     1      -5.736  -3.925 -34.719  1.00  0.00     0.016 A 
HETATM   35  C   UNL     1      -6.712  -2.989 -35.044  1.00  0.00     0.003 A 
HETATM   36  C   UNL     1      -6.612  -1.674 -34.574  1.00  0.00     0.029 A 
BRANCH  33  37
HETATM   37  C   UNL     1      -3.605  -4.571 -33.531  1.00  0.00     0.417 C 
HETATM   38  F   UNL     1      -2.809  -4.148 -32.509  1.00  0.00    -0.166 F 
HETATM   39  F   UNL     1      -4.157  -5.744 -33.117  1.00  0.00    -0.166 F 
HETATM   40  F   UNL     1      -2.762  -4.887 -34.552  1.00  0.00    -0.166 F 
ENDBRANCH  33  37
ENDBRANCH  28  31
ENDBRANCH  23  24
ENDBRANCH   2  23
TORSDOF 8
ENDMDL
MODEL 3
REMARK VINA RESULT:      -9.2      1.816      2.405
REMARK  8 active torsions:
REMARK  status: ('A' for Active; 'I' for Inactive)
REMARK    1  A    between atoms: C_2  and  O_3 
REMARK    2  A    between atoms: O_3  and  C_4 
REMARK    3  A    between atoms: C_4  and  C_5 
REMARK    4  A    between atoms: C_10  and  N_11 
REMARK       I    between atoms: N_11  and  C_12 
REMARK    5  A    between atoms: C_12  and  C_13 
REMARK    6  A    between atoms: C_13  and  N_14 
REMARK    7  A    between atoms: N_18  and  C_19 
REMARK    8  A    between atoms: C_21  and  C_22 
ROOT
HETATM    1  N   UNL     1      -4.103   6.710 -30.947  1.00  0.00    -0.323 N 
HETATM    2  C   UNL     1      -5.186   6.493 -30.121  1.00  0.00     0.248 C 
HETATM    3  O   UNL     1      -5.118   6.151 -28.943  1.00  0.00    -0.271 OA
HETATM    4  H   UNL     1      -4.176   7.399 -31.695  1.00  0.00     0.169 HD
ENDROOT
BRANCH   1   5
HETATM    5  C   UNL     1      -2.794   6.365 -30.607  1.00  0.00     0.080 A 
HETATM    6  C   UNL     1      -2.213   5.184 -31.042  1.00  0.00     0.137 A 
HETATM    7  N   UNL     1      -0.927   5.161 -30.558  1.00  0.00    -0.349 N 
HETATM    8  H   UNL     1      -0.261   4.421 -30.742  1.00  0.00     0.166 HD
HETATM    9  C   UNL     1      -0.666   6.276 -29.797  1.00  0.00     0.048 A 
HETATM   10  C   UNL     1      -1.835   7.053 -29.790  1.00  0.00     0.023 A 
HETATM   11  C   UNL     1       0.511   6.638 -29.121  1.00  0.00     0.070 A 
HETATM   12  C   UNL     1      -1.845   8.240 -29.018  1.00  0.00     0.055 A 
HETATM   13  C   UNL     1      -0.680   8.591 -28.361  1.00  0.00     0.106 A 
HETATM   14  C   UNL     1       0.453   7.824 -28.416  1.00  0.00     0.107 A 
HETATM   15  O   UNL     1      -0.520   9.708 -27.600  1.00  0.00    -0.323 OA
HETATM   16  O   UNL     1       1.477   8.362 -27.698  1.00  0.00    -0.323 OA
HETATM   17  C   UNL     1       0.863   9.573 -27.211  1.00  0.00     0.352 A 
BRANCH   6  18
HETATM   18  C   UNL     1      -2.782   4.169 -31.895  1.00  0.00     0.312 C 
HETATM   19  O   UNL     1      -3.796   3.538 -31.622  1.00  0.00    -0.258 OA
BRANCH  18  20
HETATM   20  O   UNL     1      -2.048   4.060 -33.033  1.00  0.00    -0.317 OA
BRANCH  20  21
HETATM   21  C   UNL     1      -2.457   4.885 -34.135  1.00  0.00     0.175 C 
HETATM   22  C   UNL     1      -1.261   5.617 -34.709  1.00  0.00     0.034 C 
ENDBRANCH  20  21
ENDBRANCH  18  20
ENDBRANCH   6  18
ENDBRANCH   1   5
BRANCH   2  23
HETATM   23  C   UNL     1      -6.545   6.745 -30.790  1.00  0.00     0.337 C 
BRANCH  23  24
HETATM   24  N   UNL     1      -7.121   5.566 -31.594  1.00  0.00    -0.060 N 
HETATM   25  H   UNL     1      -8.119   5.753 -31.738  1.00  0.00     0.280 HD
HETATM   26  C   UNL     1      -6.496   5.438 -32.992  1.00  0.00     0.255 C 
HETATM   27  C   UNL     1      -7.095   4.242 -33.764  1.00  0.00     0.150 C 
HETATM   28  N   UNL     1      -6.980   3.016 -32.955  1.00  0.00    -0.378 N 
HETATM   29  C   UNL     1      -7.631   3.078 -31.639  1.00  0.00     0.150 C 
HETATM   30  C   UNL     1      -7.032   4.244 -30.822  1.00  0.00     0.255 C 
BRANCH  28  31
HETATM   31  C   UNL     1      -6.916   1.805 -33.640  1.00  0.00     0.030 A 
HETATM   32  C   UNL     1      -5.884   0.896 -33.349  1.00  0.00     0.045 A 
HETATM   33  C   UNL     1      -5.793  -0.363 -33.970  1.00  0.00     0.050 A 
HETATM   34  C   UNL     1      -6.772  -0.728 -34.900  1.00  0.00     0.016 A 
HETATM   35  C   UNL     1      -7.806   0.152 -35.203  1.00  0.00     0.003 A 
HETATM   36  C   UNL     1      -7.875   1.401 -34.577  1.00  0.00     0.029 A 
BRANCH  33  37
HETATM   37  C   UNL     1      -4.692  -1.326 -33.601  1.00  0.00     0.417 C 
HETATM   38  F   UNL     1      -3.448  -0.849 -33.893  1.00  0.00    -0.166 F 
HETATM   39  F   UNL     1      -4.680  -1.614 -32.271  1.00  0.00    -0.166 F 
HETATM   40  F   UNL     1      -4.794  -2.519 -34.246  1.00  0.00    -0.166 F 
ENDBRANCH  33  37
ENDBRANCH  28  31
ENDBRANCH  23  24
ENDBRANCH   2  23
TORSDOF 8
ENDMDL
MODEL 4
REMARK VINA RESULT:      -9.0      5.547     10.555
REMARK  8 active torsions:
REMARK  status: ('A' for Active; 'I' for Inactive)
REMARK    1  A    between atoms: C_2  and  O_3 
REMARK    2  A    between atoms: O_3  and  C_4 
REMARK    3  A    between atoms: C_4  and  C_5 
REMARK    4  A    between atoms: C_10  and  N_11 
REMARK       I    between atoms: N_11  and  C_12 
REMARK    5  A    between atoms: C_12  and  C_13 
REMARK    6  A    between atoms: C_13  and  N_14 
REMARK    7  A    between atoms: N_18  and  C_19 
REMARK    8  A    between atoms: C_21  and  C_22 
ROOT
HETATM    1  N   UNL     1      -6.480   1.509 -32.438  1.00  0.00    -0.323 N 
HETATM    2  C   UNL     1      -6.545   1.472 -31.061  1.00  0.00     0.248 C 
HETATM    3  O   UNL     1      -6.692   0.455 -30.388  1.00  0.00    -0.271 OA
HETATM    4  H   UNL     1      -5.919   2.230 -32.892  1.00  0.00     0.169 HD
ENDROOT
BRANCH   1   5
HETATM    5  C   UNL     1      -6.783   0.417 -33.253  1.00  0.00     0.080 A 
HETATM    6  C   UNL     1      -7.936   0.376 -34.021  1.00  0.00     0.137 A 
HETATM    7  N   UNL     1      -7.920  -0.810 -34.716  1.00  0.00    -0.349 N 
HETATM    8  H   UNL     1      -8.633  -1.094 -35.376  1.00  0.00     0.166 HD
HETATM    9  C   UNL     1      -6.808  -1.553 -34.397  1.00  0.00     0.048 A 
HETATM   10  C   UNL     1      -6.073  -0.814 -33.457  1.00  0.00     0.023 A 
HETATM   11  C   UNL     1      -6.415  -2.816 -34.873  1.00  0.00     0.070 A 
HETATM   12  C   UNL     1      -4.899  -1.395 -32.920  1.00  0.00     0.055 A 
HETATM   13  C   UNL     1      -4.516  -2.634 -33.397  1.00  0.00     0.106 A 
HETATM   14  C   UNL     1      -5.242  -3.314 -34.339  1.00  0.00     0.107 A 
HETATM   15  O   UNL     1      -3.406  -3.315 -33.001  1.00  0.00    -0.323 OA
HETATM   16  O   UNL     1      -4.679  -4.510 -34.662  1.00  0.00    -0.323 OA
HETATM   17  C   UNL     1      -3.498  -4.489 -33.834  1.00  0.00     0.352 A 
BRANCH   6  18
HETATM   18  C   UNL     1      -8.957   1.386 -34.154  1.00  0.00     0.312 C 
HETATM   19  O   UNL     1      -8.725   2.589 -34.205  1.00  0.00    -0.258 OA
BRANCH  18  20
HETATM   20  O   UNL     1     -10.178   0.797 -34.248  1.00  0.00    -0.317 OA
BRANCH  20  21
HETATM   21  C   UNL     1     -11.309   1.629 -33.948  1.00  0.00     0.175 C 
HETATM   22  C   UNL     1     -12.222   1.721 -35.154  1.00  0.00     0.034 C 
ENDBRANCH  20  21
ENDBRANCH  18  20
ENDBRANCH   6  18
ENDBRANCH   1   5
BRANCH   2  23
HETATM   23  C   UNL     1      -6.386   2.844 -30.389  1.00  0.00     0.337 C 
BRANCH  23  24
HETATM   24  N   UNL     1      -5.302   3.758 -30.988  1.00  0.00    -0.060 N 
HETATM   25  H   UNL     1      -5.610   4.020 -31.930  1.00  0.00     0.280 HD
HETATM   26  C   UNL     1      -5.132   5.070 -30.205  1.00  0.00     0.255 C 
HETATM   27  C   UNL     1      -4.035   5.956 -30.833  1.00  0.00     0.150 C 
HETATM   28  N   UNL     1      -2.786   5.186 -30.966  1.00  0.00    -0.378 N 
HETATM   29  C   UNL     1      -2.895   3.961 -31.771  1.00  0.00     0.150 C 
HETATM   30  C   UNL     1      -3.962   3.031 -31.153  1.00  0.00     0.255 C 
BRANCH  28  31
HETATM   31  C   UNL     1      -1.592   5.902 -30.954  1.00  0.00     0.030 A 
HETATM   32  C   UNL     1      -1.092   6.399 -29.738  1.00  0.00     0.045 A 
HETATM   33  C   UNL     1       0.133   7.087 -29.652  1.00  0.00     0.050 A 
HETATM   34  C   UNL     1       0.885   7.271 -30.815  1.00  0.00     0.016 A 
HETATM   35  C   UNL     1       0.415   6.786 -32.032  1.00  0.00     0.003 A 
HETATM   36  C   UNL     1      -0.807   6.108 -32.096  1.00  0.00     0.029 A 
BRANCH  33  37
HETATM   37  C   UNL     1       0.652   7.570 -28.320  1.00  0.00     0.417 C 
HETATM   38  F   UNL     1      -0.306   8.176 -27.563  1.00  0.00    -0.166 F 
HETATM   39  F   UNL     1       1.147   6.556 -27.559  1.00  0.00    -0.166 F 
HETATM   40  F   UNL     1       1.659   8.477 -28.443  1.00  0.00    -0.166 F 
ENDBRANCH  33  37
ENDBRANCH  28  31
ENDBRANCH  23  24
ENDBRANCH   2  23
TORSDOF 8
ENDMDL
MODEL 5
REMARK VINA RESULT:      -8.9      5.485     10.168
REMARK  8 active torsions:
REMARK  status: ('A' for Active; 'I' for Inactive)
REMARK    1  A    between atoms: C_2  and  O_3 
REMARK    2  A    between atoms: O_3  and  C_4 
REMARK    3  A    between atoms: C_4  and  C_5 
REMARK    4  A    between atoms: C_10  and  N_11 
REMARK       I    between atoms: N_11  and  C_12 
REMARK    5  A    between atoms: C_12  and  C_13 
REMARK    6  A    between atoms: C_13  and  N_14 
REMARK    7  A    between atoms: N_18  and  C_19 
REMARK    8  A    between atoms: C_21  and  C_22 
ROOT
HETATM    1  N   UNL     1      -8.464   3.717 -32.704  1.00  0.00    -0.323 N 
HETATM    2  C   UNL     1      -7.840   4.875 -33.119  1.00  0.00     0.248 C 
HETATM    3  O   UNL     1      -7.382   5.067 -34.242  1.00  0.00    -0.271 OA
HETATM    4  H   UNL     1      -9.195   3.771 -31.995  1.00  0.00     0.169 HD
ENDROOT
BRANCH   1   5
HETATM    5  C   UNL     1      -8.466   2.536 -33.447  1.00  0.00     0.080 A 
HETATM    6  C   UNL     1      -9.543   2.174 -34.241  1.00  0.00     0.137 A 
HETATM    7  N   UNL     1      -9.217   0.984 -34.849  1.00  0.00    -0.349 N 
HETATM    8  H   UNL     1      -9.815   0.498 -35.506  1.00  0.00     0.166 HD
HETATM    9  C   UNL     1      -7.976   0.549 -34.449  1.00  0.00     0.048 A 
HETATM   10  C   UNL     1      -7.478   1.499 -33.544  1.00  0.00     0.023 A 
HETATM   11  C   UNL     1      -7.276  -0.611 -34.823  1.00  0.00     0.070 A 
HETATM   12  C   UNL     1      -6.223   1.250 -32.937  1.00  0.00     0.055 A 
HETATM   13  C   UNL     1      -5.539   0.110 -33.314  1.00  0.00     0.106 A 
HETATM   14  C   UNL     1      -6.043  -0.780 -34.224  1.00  0.00     0.107 A 
HETATM   15  O   UNL     1      -4.317  -0.260 -32.841  1.00  0.00    -0.323 OA
HETATM   16  O   UNL     1      -5.200  -1.826 -34.447  1.00  0.00    -0.323 OA
HETATM   17  C   UNL     1      -4.094  -1.472 -33.591  1.00  0.00     0.352 A 
BRANCH   6  18
HETATM   18  C   UNL     1     -10.767   2.901 -34.473  1.00  0.00     0.312 C 
HETATM   19  O   UNL     1     -10.852   4.123 -34.439  1.00  0.00    -0.258 OA
BRANCH  18  20
HETATM   20  O   UNL     1     -11.771   2.032 -34.761  1.00  0.00    -0.317 OA
BRANCH  20  21
HETATM   21  C   UNL     1     -12.678   1.731 -33.689  1.00  0.00     0.175 C 
HETATM   22  C   UNL     1     -13.126   0.286 -33.778  1.00  0.00     0.034 C 
ENDBRANCH  20  21
ENDBRANCH  18  20
ENDBRANCH   6  18
ENDBRANCH   1   5
BRANCH   2  23
HETATM   23  C   UNL     1      -7.778   5.973 -32.046  1.00  0.00     0.337 C 
BRANCH  23  24
HETATM   24  N   UNL     1      -6.421   6.138 -31.340  1.00  0.00    -0.060 N 
HETATM   25  H   UNL     1      -6.596   6.105 -30.330  1.00  0.00     0.280 HD
HETATM   26  C   UNL     1      -5.446   4.990 -31.650  1.00  0.00     0.255 C 
HETATM   27  C   UNL     1      -4.097   5.193 -30.928  1.00  0.00     0.150 C 
HETATM   28  N   UNL     1      -3.555   6.526 -31.247  1.00  0.00    -0.378 N 
HETATM   29  C   UNL     1      -4.431   7.652 -30.896  1.00  0.00     0.150 C 
HETATM   30  C   UNL     1      -5.782   7.502 -31.628  1.00  0.00     0.255 C 
BRANCH  28  31
HETATM   31  C   UNL     1      -2.172   6.681 -31.192  1.00  0.00     0.030 A 
HETATM   32  C   UNL     1      -1.560   7.030 -29.977  1.00  0.00     0.045 A 
HETATM   33  C   UNL     1      -0.164   7.153 -29.844  1.00  0.00     0.050 A 
HETATM   34  C   UNL     1       0.643   6.904 -30.958  1.00  0.00     0.016 A 
HETATM   35  C   UNL     1       0.063   6.552 -32.173  1.00  0.00     0.003 A 
HETATM   36  C   UNL     1      -1.328   6.440 -32.284  1.00  0.00     0.029 A 
BRANCH  33  37
HETATM   37  C   UNL     1       0.456   7.492 -28.511  1.00  0.00     0.417 C 
HETATM   38  F   UNL     1       1.503   8.359 -28.615  1.00  0.00    -0.166 F 
HETATM   39  F   UNL     1      -0.432   8.076 -27.661  1.00  0.00    -0.166 F 
HETATM   40  F   UNL     1       0.941   6.400 -27.860  1.00  0.00    -0.166 F 
ENDBRANCH  33  37
ENDBRANCH  28  31
ENDBRANCH  23  24
ENDBRANCH   2  23
TORSDOF 8
ENDMDL
MODEL 6
REMARK VINA RESULT:      -8.7      5.724     10.658
REMARK  8 active torsions:
REMARK  status: ('A' for Active; 'I' for Inactive)
REMARK    1  A    between atoms: C_2  and  O_3 
REMARK    2  A    between atoms: O_3  and  C_4 
REMARK    3  A    between atoms: C_4  and  C_5 
REMARK    4  A    between atoms: C_10  and  N_11 
REMARK       I    between atoms: N_11  and  C_12 
REMARK    5  A    between atoms: C_12  and  C_13 
REMARK    6  A    between atoms: C_13  and  N_14 
REMARK    7  A    between atoms: N_18  and  C_19 
REMARK    8  A    between atoms: C_21  and  C_22 
ROOT
HETATM    1  N   UNL     1      -5.893   1.564 -32.296  1.00  0.00    -0.323 N 
HETATM    2  C   UNL     1      -5.200   2.587 -32.909  1.00  0.00     0.248 C 
HETATM    3  O   UNL     1      -5.629   3.280 -33.827  1.00  0.00    -0.271 OA
HETATM    4  H   UNL     1      -5.714   1.360 -31.313  1.00  0.00     0.169 HD
ENDROOT
BRANCH   1   5
HETATM    5  C   UNL     1      -7.095   1.049 -32.783  1.00  0.00     0.080 A 
HETATM    6  C   UNL     1      -7.164  -0.192 -33.395  1.00  0.00     0.137 A 
HETATM    7  N   UNL     1      -8.479  -0.407 -33.732  1.00  0.00    -0.349 N 
HETATM    8  H   UNL     1      -8.823  -1.250 -34.175  1.00  0.00     0.166 HD
HETATM    9  C   UNL     1      -9.260   0.670 -33.384  1.00  0.00     0.048 A 
HETATM   10  C   UNL     1      -8.412   1.622 -32.797  1.00  0.00     0.023 A 
HETATM   11  C   UNL     1     -10.641   0.860 -33.554  1.00  0.00     0.070 A 
HETATM   12  C   UNL     1      -8.970   2.861 -32.401  1.00  0.00     0.055 A 
HETATM   13  C   UNL     1     -10.331   3.037 -32.566  1.00  0.00     0.106 A 
HETATM   14  C   UNL     1     -11.134   2.073 -33.116  1.00  0.00     0.107 A 
HETATM   15  O   UNL     1     -11.021   4.157 -32.218  1.00  0.00    -0.323 OA
HETATM   16  O   UNL     1     -12.437   2.461 -33.179  1.00  0.00    -0.323 OA
HETATM   17  C   UNL     1     -12.363   3.770 -32.578  1.00  0.00     0.352 A 
BRANCH   6  18
HETATM   18  C   UNL     1      -6.101  -1.145 -33.606  1.00  0.00     0.312 C 
HETATM   19  O   UNL     1      -5.204  -1.356 -32.798  1.00  0.00    -0.258 OA
BRANCH  18  20
HETATM   20  O   UNL     1      -6.277  -1.775 -34.797  1.00  0.00    -0.317 OA
BRANCH  20  21
HETATM   21  C   UNL     1      -5.634  -3.051 -34.941  1.00  0.00     0.175 C 
HETATM   22  C   UNL     1      -6.670  -4.156 -34.954  1.00  0.00     0.034 C 
ENDBRANCH  20  21
ENDBRANCH  18  20
ENDBRANCH   6  18
ENDBRANCH   1   5
BRANCH   2  23
HETATM   23  C   UNL     1      -3.801   2.835 -32.324  1.00  0.00     0.337 C 
BRANCH  23  24
HETATM   24  N   UNL     1      -3.461   4.302 -32.007  1.00  0.00    -0.060 N 
HETATM   25  H   UNL     1      -3.744   4.863 -32.817  1.00  0.00     0.280 HD
HETATM   26  C   UNL     1      -4.249   4.847 -30.804  1.00  0.00     0.255 C 
HETATM   27  C   UNL     1      -3.878   6.318 -30.514  1.00  0.00     0.150 C 
HETATM   28  N   UNL     1      -2.417   6.445 -30.366  1.00  0.00    -0.378 N 
HETATM   29  C   UNL     1      -1.635   6.000 -31.528  1.00  0.00     0.150 C 
HETATM   30  C   UNL     1      -1.954   4.519 -31.829  1.00  0.00     0.255 C 
BRANCH  28  31
HETATM   31  C   UNL     1      -1.946   7.487 -29.572  1.00  0.00     0.030 A 
HETATM   32  C   UNL     1      -0.728   7.343 -28.886  1.00  0.00     0.045 A 
HETATM   33  C   UNL     1      -0.175   8.377 -28.109  1.00  0.00     0.050 A 
HETATM   34  C   UNL     1      -0.855   9.596 -28.026  1.00  0.00     0.016 A 
HETATM   35  C   UNL     1      -2.061   9.766 -28.697  1.00  0.00     0.003 A 
HETATM   36  C   UNL     1      -2.596   8.723 -29.462  1.00  0.00     0.029 A 
BRANCH  33  37
HETATM   37  C   UNL     1       1.156   8.195 -27.421  1.00  0.00     0.417 C 
HETATM   38  F   UNL     1       2.157   8.920 -27.996  1.00  0.00    -0.166 F 
HETATM   39  F   UNL     1       1.120   8.574 -26.115  1.00  0.00    -0.166 F 
HETATM   40  F   UNL     1       1.582   6.903 -27.428  1.00  0.00    -0.166 F 
ENDBRANCH  33  37
ENDBRANCH  28  31
ENDBRANCH  23  24
ENDBRANCH   2  23
TORSDOF 8
ENDMDL
MODEL 7
REMARK VINA RESULT:      -8.7      7.055     10.032
REMARK  8 active torsions:
REMARK  status: ('A' for Active; 'I' for Inactive)
REMARK    1  A    between atoms: C_2  and  O_3 
REMARK    2  A    between atoms: O_3  and  C_4 
REMARK    3  A    between atoms: C_4  and  C_5 
REMARK    4  A    between atoms: C_10  and  N_11 
REMARK       I    between atoms: N_11  and  C_12 
REMARK    5  A    between atoms: C_12  and  C_13 
REMARK    6  A    between atoms: C_13  and  N_14 
REMARK    7  A    between atoms: N_18  and  C_19 
REMARK    8  A    between atoms: C_21  and  C_22 
ROOT
HETATM    1  N   UNL     1     -10.500   4.327 -33.538  1.00  0.00    -0.323 N 
HETATM    2  C   UNL     1      -9.895   4.898 -32.437  1.00  0.00     0.248 C 
HETATM    3  O   UNL     1     -10.329   5.863 -31.815  1.00  0.00    -0.271 OA
HETATM    4  H   UNL     1     -10.384   3.329 -33.709  1.00  0.00     0.169 HD
ENDROOT
BRANCH   1   5
HETATM    5  C   UNL     1     -11.575   4.907 -34.212  1.00  0.00     0.080 A 
HETATM    6  C   UNL     1     -12.852   4.371 -34.151  1.00  0.00     0.137 A 
HETATM    7  N   UNL     1     -13.671   5.185 -34.895  1.00  0.00    -0.349 N 
HETATM    8  H   UNL     1     -14.668   5.043 -35.006  1.00  0.00     0.166 HD
HETATM    9  C   UNL     1     -12.960   6.216 -35.462  1.00  0.00     0.048 A 
HETATM   10  C   UNL     1     -11.622   6.060 -35.066  1.00  0.00     0.023 A 
HETATM   11  C   UNL     1     -13.409   7.257 -36.292  1.00  0.00     0.070 A 
HETATM   12  C   UNL     1     -10.665   6.973 -35.571  1.00  0.00     0.055 A 
HETATM   13  C   UNL     1     -11.116   7.998 -36.382  1.00  0.00     0.106 A 
HETATM   14  C   UNL     1     -12.435   8.136 -36.723  1.00  0.00     0.107 A 
HETATM   15  O   UNL     1     -10.329   8.965 -36.928  1.00  0.00    -0.323 OA
HETATM   16  O   UNL     1     -12.651   9.215 -37.525  1.00  0.00    -0.323 OA
HETATM   17  C   UNL     1     -11.316   9.754 -37.624  1.00  0.00     0.352 A 
BRANCH   6  18
HETATM   18  C   UNL     1     -13.302   3.218 -33.410  1.00  0.00     0.312 C 
HETATM   19  O   UNL     1     -13.282   3.143 -32.186  1.00  0.00    -0.258 OA
BRANCH  18  20
HETATM   20  O   UNL     1     -13.771   2.273 -34.267  1.00  0.00    -0.317 OA
BRANCH  20  21
HETATM   21  C   UNL     1     -12.895   1.167 -34.533  1.00  0.00     0.175 C 
HETATM   22  C   UNL     1     -13.358  -0.058 -33.770  1.00  0.00     0.034 C 
ENDBRANCH  20  21
ENDBRANCH  18  20
ENDBRANCH   6  18
ENDBRANCH   1   5
BRANCH   2  23
HETATM   23  C   UNL     1      -8.599   4.198 -32.001  1.00  0.00     0.337 C 
BRANCH  23  24
HETATM   24  N   UNL     1      -8.286   2.870 -32.714  1.00  0.00    -0.060 N 
HETATM   25  H   UNL     1      -9.046   2.694 -33.379  1.00  0.00     0.280 HD
HETATM   26  C   UNL     1      -6.991   2.930 -33.540  1.00  0.00     0.255 C 
HETATM   27  C   UNL     1      -6.709   1.580 -34.234  1.00  0.00     0.150 C 
HETATM   28  N   UNL     1      -6.722   0.493 -33.238  1.00  0.00    -0.378 N 
HETATM   29  C   UNL     1      -7.974   0.361 -32.480  1.00  0.00     0.150 C 
HETATM   30  C   UNL     1      -8.273   1.684 -31.742  1.00  0.00     0.255 C 
BRANCH  28  31
HETATM   31  C   UNL     1      -5.960  -0.638 -33.521  1.00  0.00     0.030 A 
HETATM   32  C   UNL     1      -6.585  -1.784 -34.043  1.00  0.00     0.045 A 
HETATM   33  C   UNL     1      -5.863  -2.939 -34.396  1.00  0.00     0.050 A 
HETATM   34  C   UNL     1      -4.475  -2.943 -34.234  1.00  0.00     0.016 A 
HETATM   35  C   UNL     1      -3.832  -1.821 -33.723  1.00  0.00     0.003 A 
HETATM   36  C   UNL     1      -4.568  -0.683 -33.374  1.00  0.00     0.029 A 
BRANCH  33  37
HETATM   37  C   UNL     1      -6.568  -4.134 -34.990  1.00  0.00     0.417 C 
HETATM   38  F   UNL     1      -7.349  -3.814 -36.060  1.00  0.00    -0.166 F 
HETATM   39  F   UNL     1      -5.697  -5.082 -35.431  1.00  0.00    -0.166 F 
HETATM   40  F   UNL     1      -7.390  -4.757 -34.103  1.00  0.00    -0.166 F 
ENDBRANCH  33  37
ENDBRANCH  28  31
ENDBRANCH  23  24
ENDBRANCH   2  23
TORSDOF 8
ENDMDL
MODEL 8
REMARK VINA RESULT:      -8.6      2.984      5.446
REMARK  8 active torsions:
REMARK  status: ('A' for Active; 'I' for Inactive)
REMARK    1  A    between atoms: C_2  and  O_3 
REMARK    2  A    between atoms: O_3  and  C_4 
REMARK    3  A    between atoms: C_4  and  C_5 
REMARK    4  A    between atoms: C_10  and  N_11 
REMARK       I    between atoms: N_11  and  C_12 
REMARK    5  A    between atoms: C_12  and  C_13 
REMARK    6  A    between atoms: C_13  and  N_14 
REMARK    7  A    between atoms: N_18  and  C_19 
REMARK    8  A    between atoms: C_21  and  C_22 
ROOT
HETATM    1  N   UNL     1      -5.550   4.546 -29.885  1.00  0.00    -0.323 N 
HETATM    2  C   UNL     1      -6.733   4.228 -30.520  1.00  0.00     0.248 C 
HETATM    3  O   UNL     1      -7.121   4.720 -31.576  1.00  0.00    -0.271 OA
HETATM    4  H   UNL     1      -5.076   3.834 -29.329  1.00  0.00     0.169 HD
ENDROOT
BRANCH   1   5
HETATM    5  C   UNL     1      -4.744   5.622 -30.254  1.00  0.00     0.080 A 
HETATM    6  C   UNL     1      -4.759   6.821 -29.558  1.00  0.00     0.137 A 
HETATM    7  N   UNL     1      -3.842   7.651 -30.158  1.00  0.00    -0.349 N 
HETATM    8  H   UNL     1      -3.628   8.588 -29.840  1.00  0.00     0.166 HD
HETATM    9  C   UNL     1      -3.255   7.038 -31.241  1.00  0.00     0.048 A 
HETATM   10  C   UNL     1      -3.818   5.757 -31.344  1.00  0.00     0.023 A 
HETATM   11  C   UNL     1      -2.281   7.533 -32.124  1.00  0.00     0.070 A 
HETATM   12  C   UNL     1      -3.418   4.936 -32.426  1.00  0.00     0.055 A 
HETATM   13  C   UNL     1      -2.455   5.429 -33.287  1.00  0.00     0.106 A 
HETATM   14  C   UNL     1      -1.906   6.674 -33.137  1.00  0.00     0.107 A 
HETATM   15  O   UNL     1      -1.950   4.759 -34.359  1.00  0.00    -0.323 OA
HETATM   16  O   UNL     1      -0.977   6.948 -34.095  1.00  0.00    -0.323 OA
HETATM   17  C   UNL     1      -0.987   5.717 -34.846  1.00  0.00     0.352 A 
BRANCH   6  18
HETATM   18  C   UNL     1      -5.522   7.162 -28.383  1.00  0.00     0.312 C 
HETATM   19  O   UNL     1      -6.613   6.672 -28.112  1.00  0.00    -0.258 OA
BRANCH  18  20
HETATM   20  O   UNL     1      -4.835   8.062 -27.633  1.00  0.00    -0.317 OA
BRANCH  20  21
HETATM   21  C   UNL     1      -4.522   7.662 -26.290  1.00  0.00     0.175 C 
HETATM   22  C   UNL     1      -3.138   7.048 -26.239  1.00  0.00     0.034 C 
ENDBRANCH  20  21
ENDBRANCH  18  20
ENDBRANCH   6  18
ENDBRANCH   1   5
BRANCH   2  23
HETATM   23  C   UNL     1      -7.558   3.148 -29.804  1.00  0.00     0.337 C 
BRANCH  23  24
HETATM   24  N   UNL     1      -7.435   1.725 -30.378  1.00  0.00    -0.060 N 
HETATM   25  H   UNL     1      -7.885   1.088 -29.714  1.00  0.00     0.280 HD
HETATM   26  C   UNL     1      -8.177   1.558 -31.714  1.00  0.00     0.255 C 
HETATM   27  C   UNL     1      -8.026   0.121 -32.260  1.00  0.00     0.150 C 
HETATM   28  N   UNL     1      -6.598  -0.239 -32.332  1.00  0.00    -0.378 N 
HETATM   29  C   UNL     1      -5.874  -0.159 -31.056  1.00  0.00     0.150 C 
HETATM   30  C   UNL     1      -5.973   1.275 -30.494  1.00  0.00     0.255 C 
BRANCH  28  31
HETATM   31  C   UNL     1      -6.228  -1.188 -33.281  1.00  0.00     0.030 A 
HETATM   32  C   UNL     1      -5.205  -2.105 -32.985  1.00  0.00     0.045 A 
HETATM   33  C   UNL     1      -4.820  -3.119 -33.882  1.00  0.00     0.050 A 
HETATM   34  C   UNL     1      -5.488  -3.226 -35.105  1.00  0.00     0.016 A 
HETATM   35  C   UNL     1      -6.507  -2.334 -35.421  1.00  0.00     0.003 A 
HETATM   36  C   UNL     1      -6.872  -1.330 -34.517  1.00  0.00     0.029 A 
BRANCH  33  37
HETATM   37  C   UNL     1      -3.742  -4.107 -33.508  1.00  0.00     0.417 C 
HETATM   38  F   UNL     1      -2.946  -3.668 -32.493  1.00  0.00    -0.166 F 
HETATM   39  F   UNL     1      -4.253  -5.299 -33.096  1.00  0.00    -0.166 F 
HETATM   40  F   UNL     1      -2.905  -4.391 -34.542  1.00  0.00    -0.166 F 
ENDBRANCH  33  37
ENDBRANCH  28  31
ENDBRANCH  23  24
ENDBRANCH   2  23
TORSDOF 8
ENDMDL
MODEL 9
REMARK VINA RESULT:      -8.6      4.519      9.383
REMARK  8 active torsions:
REMARK  status: ('A' for Active; 'I' for Inactive)
REMARK    1  A    between atoms: C_2  and  O_3 
REMARK    2  A    between atoms: O_3  and  C_4 
REMARK    3  A    between atoms: C_4  and  C_5 
REMARK    4  A    between atoms: C_10  and  N_11 
REMARK       I    between atoms: N_11  and  C_12 
REMARK    5  A    between atoms: C_12  and  C_13 
REMARK    6  A    between atoms: C_13  and  N_14 
REMARK    7  A    between atoms: N_18  and  C_19 
REMARK    8  A    between atoms: C_21  and  C_22 
ROOT
HETATM    1  N   UNL     1      -6.121   3.381 -32.198  1.00  0.00    -0.323 N 
HETATM    2  C   UNL     1      -6.448   4.340 -33.133  1.00  0.00     0.248 C 
HETATM    3  O   UNL     1      -6.151   4.295 -34.324  1.00  0.00    -0.271 OA
HETATM    4  H   UNL     1      -6.744   3.223 -31.406  1.00  0.00     0.169 HD
ENDROOT
BRANCH   1   5
HETATM    5  C   UNL     1      -5.228   2.338 -32.444  1.00  0.00     0.080 A 
HETATM    6  C   UNL     1      -3.867   2.471 -32.214  1.00  0.00     0.137 A 
HETATM    7  N   UNL     1      -3.282   1.269 -32.532  1.00  0.00    -0.349 N 
HETATM    8  H   UNL     1      -2.293   1.074 -32.437  1.00  0.00     0.166 HD
HETATM    9  C   UNL     1      -4.216   0.371 -32.991  1.00  0.00     0.048 A 
HETATM   10  C   UNL     1      -5.459   1.021 -32.968  1.00  0.00     0.023 A 
HETATM   11  C   UNL     1      -4.040  -0.955 -33.423  1.00  0.00     0.070 A 
HETATM   12  C   UNL     1      -6.590   0.320 -33.453  1.00  0.00     0.055 A 
HETATM   13  C   UNL     1      -6.409  -0.985 -33.871  1.00  0.00     0.106 A 
HETATM   14  C   UNL     1      -5.185  -1.598 -33.851  1.00  0.00     0.107 A 
HETATM   15  O   UNL     1      -7.394  -1.797 -34.342  1.00  0.00    -0.323 OA
HETATM   16  O   UNL     1      -5.242  -2.881 -34.302  1.00  0.00    -0.323 OA
HETATM   17  C   UNL     1      -6.652  -3.011 -34.581  1.00  0.00     0.352 A 
BRANCH   6  18
HETATM   18  C   UNL     1      -3.158   3.608 -31.681  1.00  0.00     0.312 C 
HETATM   19  O   UNL     1      -3.508   4.222 -30.680  1.00  0.00    -0.258 OA
BRANCH  18  20
HETATM   20  O   UNL     1      -2.052   3.855 -32.432  1.00  0.00    -0.317 OA
BRANCH  20  21
HETATM   21  C   UNL     1      -1.188   4.902 -31.964  1.00  0.00     0.175 C 
HETATM   22  C   UNL     1      -1.159   6.038 -32.965  1.00  0.00     0.034 C 
ENDBRANCH  20  21
ENDBRANCH  18  20
ENDBRANCH   6  18
ENDBRANCH   1   5
BRANCH   2  23
HETATM   23  C   UNL     1      -7.273   5.508 -32.571  1.00  0.00     0.337 C 
BRANCH  23  24
HETATM   24  N   UNL     1      -6.482   6.554 -31.764  1.00  0.00    -0.060 N 
HETATM   25  H   UNL     1      -6.974   7.448 -31.860  1.00  0.00     0.280 HD
HETATM   26  C   UNL     1      -6.443   6.237 -30.260  1.00  0.00     0.255 C 
HETATM   27  C   UNL     1      -5.639   7.304 -29.487  1.00  0.00     0.150 C 
HETATM   28  N   UNL     1      -4.303   7.458 -30.090  1.00  0.00    -0.378 N 
HETATM   29  C   UNL     1      -4.303   7.832 -31.511  1.00  0.00     0.150 C 
HETATM   30  C   UNL     1      -5.071   6.768 -32.325  1.00  0.00     0.255 C 
BRANCH  28  31
HETATM   31  C   UNL     1      -3.275   7.896 -29.258  1.00  0.00     0.030 A 
HETATM   32  C   UNL     1      -1.958   7.470 -29.497  1.00  0.00     0.045 A 
HETATM   33  C   UNL     1      -0.870   7.917 -28.724  1.00  0.00     0.050 A 
HETATM   34  C   UNL     1      -1.107   8.827 -27.690  1.00  0.00     0.016 A 
HETATM   35  C   UNL     1      -2.402   9.268 -27.434  1.00  0.00     0.003 A 
HETATM   36  C   UNL     1      -3.470   8.808 -28.213  1.00  0.00     0.029 A 
BRANCH  33  37
HETATM   37  C   UNL     1       0.535   7.464 -29.038  1.00  0.00     0.417 C 
HETATM   38  F   UNL     1       0.756   7.304 -30.374  1.00  0.00    -0.166 F 
HETATM   39  F   UNL     1       1.473   8.350 -28.606  1.00  0.00    -0.166 F 
HETATM   40  F   UNL     1       0.847   6.271 -28.464  1.00  0.00    -0.166 F 
ENDBRANCH  33  37
ENDBRANCH  28  31
ENDBRANCH  23  24
ENDBRANCH   2  23
TORSDOF 8
ENDMDL
MODEL 10
REMARK VINA RESULT:      -8.5      5.198      8.494
REMARK  8 active torsions:
REMARK  status: ('A' for Active; 'I' for Inactive)
REMARK    1  A    between atoms: C_2  and  O_3 
REMARK    2  A    between atoms: O_3  and  C_4 
REMARK    3  A    between atoms: C_4  and  C_5 
REMARK    4  A    between atoms: C_10  and  N_11 
REMARK       I    between atoms: N_11  and  C_12 
REMARK    5  A    between atoms: C_12  and  C_13 
REMARK    6  A    between atoms: C_13  and  N_14 
REMARK    7  A    between atoms: N_18  and  C_19 
REMARK    8  A    between atoms: C_21  and  C_22 
ROOT
HETATM    1  N   UNL     1      -5.741   4.574 -32.689  1.00  0.00    -0.323 N 
HETATM    2  C   UNL     1      -6.797   4.911 -31.868  1.00  0.00     0.248 C 
HETATM    3  O   UNL     1      -7.091   4.335 -30.824  1.00  0.00    -0.271 OA
HETATM    4  H   UNL     1      -5.277   5.304 -33.230  1.00  0.00     0.169 HD
ENDROOT
BRANCH   1   5
HETATM    5  C   UNL     1      -4.998   3.403 -32.546  1.00  0.00     0.080 A 
HETATM    6  C   UNL     1      -3.742   3.401 -31.959  1.00  0.00     0.137 A 
HETATM    7  N   UNL     1      -3.299   2.100 -31.950  1.00  0.00    -0.349 N 
HETATM    8  H   UNL     1      -2.415   1.801 -31.556  1.00  0.00     0.166 HD
HETATM    9  C   UNL     1      -4.215   1.262 -32.541  1.00  0.00     0.048 A 
HETATM   10  C   UNL     1      -5.297   2.057 -32.948  1.00  0.00     0.023 A 
HETATM   11  C   UNL     1      -4.153  -0.127 -32.741  1.00  0.00     0.070 A 
HETATM   12  C   UNL     1      -6.361   1.433 -33.644  1.00  0.00     0.055 A 
HETATM   13  C   UNL     1      -6.294   0.066 -33.832  1.00  0.00     0.106 A 
HETATM   14  C   UNL     1      -5.235  -0.684 -33.393  1.00  0.00     0.107 A 
HETATM   15  O   UNL     1      -7.242  -0.684 -34.459  1.00  0.00    -0.323 OA
HETATM   16  O   UNL     1      -5.383  -2.006 -33.683  1.00  0.00    -0.323 OA
HETATM   17  C   UNL     1      -6.672  -2.003 -34.330  1.00  0.00     0.352 A 
BRANCH   6  18
HETATM   18  C   UNL     1      -3.020   4.512 -31.390  1.00  0.00     0.312 C 
HETATM   19  O   UNL     1      -3.555   5.535 -30.978  1.00  0.00    -0.258 OA
BRANCH  18  20
HETATM   20  O   UNL     1      -1.691   4.230 -31.355  1.00  0.00    -0.317 OA
BRANCH  20  21
HETATM   21  C   UNL     1      -0.809   5.266 -31.812  1.00  0.00     0.175 C 
HETATM   22  C   UNL     1       0.435   5.308 -30.947  1.00  0.00     0.034 C 
ENDBRANCH  20  21
ENDBRANCH  18  20
ENDBRANCH   6  18
ENDBRANCH   1   5
BRANCH   2  23
HETATM   23  C   UNL     1      -7.603   6.127 -32.350  1.00  0.00     0.337 C 
BRANCH  23  24
HETATM   24  N   UNL     1      -9.086   5.862 -32.662  1.00  0.00    -0.060 N 
HETATM   25  H   UNL     1      -9.417   6.633 -33.250  1.00  0.00     0.280 HD
HETATM   26  C   UNL     1      -9.302   4.574 -33.474  1.00  0.00     0.255 C 
HETATM   27  C   UNL     1     -10.800   4.340 -33.763  1.00  0.00     0.150 C 
HETATM   28  N   UNL     1     -11.564   4.375 -32.503  1.00  0.00    -0.378 N 
HETATM   29  C   UNL     1     -11.438   5.622 -31.736  1.00  0.00     0.150 C 
HETATM   30  C   UNL     1      -9.953   5.873 -31.397  1.00  0.00     0.255 C 
BRANCH  28  31
HETATM   31  C   UNL     1     -12.752   3.651 -32.459  1.00  0.00     0.030 A 
HETATM   32  C   UNL     1     -12.910   2.523 -33.282  1.00  0.00     0.045 A 
HETATM   33  C   UNL     1     -14.066   1.721 -33.248  1.00  0.00     0.050 A 
HETATM   34  C   UNL     1     -15.088   2.050 -32.353  1.00  0.00     0.016 A 
HETATM   35  C   UNL     1     -14.956   3.159 -31.524  1.00  0.00     0.003 A 
HETATM   36  C   UNL     1     -13.799   3.946 -31.577  1.00  0.00     0.029 A 
BRANCH  33  37
HETATM   37  C   UNL     1     -14.178   0.496 -34.122  1.00  0.00     0.417 C 
HETATM   38  F   UNL     1     -13.993  -0.667 -33.435  1.00  0.00    -0.166 F 
HETATM   39  F   UNL     1     -15.399   0.392 -34.714  1.00  0.00    -0.166 F 
HETATM   40  F   UNL     1     -13.265   0.481 -35.131  1.00  0.00    -0.166 F 
ENDBRANCH  33  37
ENDBRANCH  28  31
ENDBRANCH  23  24
ENDBRANCH   2  23
TORSDOF 8
ENDMDL
