MODEL 1
REMARK VINA RESULT:      -8.7      0.000      0.000
REMARK  3 active torsions:
REMARK  status: ('A' for Active; 'I' for Inactive)
REMARK    1  A    between atoms: C_9  and  C_10 
REMARK    2  A    between atoms: C_16  and  C_17 
REMARK       I    between atoms: C_17  and  N_18 
REMARK    3  A    between atoms: N_18  and  C_19 
ROOT
HETATM    1  C   UNL     1      -3.298   0.948 -31.053  1.00  0.00     0.070 C 
HETATM    2  C   UNL     1      -4.206   1.763 -31.939  1.00  0.00     0.037 A 
HETATM    3  N   UNL     1      -3.901   3.119 -32.030  1.00  0.00    -0.191 N 
HETATM    4  C   UNL     1      -4.499   3.945 -32.912  1.00  0.00     0.735 A 
HETATM    5  N   UNL     1      -5.531   3.476 -33.675  1.00  0.00    -0.091 N 
HETATM    6  N   UNL     1      -5.894   4.401 -34.582  1.00  0.00     0.012 NA
HETATM    7  N   UNL     1      -5.134   5.455 -34.303  1.00  0.00     0.033 NA
HETATM    8  N   UNL     1      -4.258   5.183 -33.269  1.00  0.00     0.030 NA
HETATM    9  C   UNL     1      -6.053   2.118 -33.621  1.00  0.00     0.216 A 
HETATM   10  C   UNL     1      -5.229   1.257 -32.671  1.00  0.00     0.063 A 
HETATM   11  H   UNL     1      -3.089   3.456 -31.518  1.00  0.00     0.184 HD
ENDROOT
BRANCH  10  12
HETATM   12  C   UNL     1      -5.614  -0.177 -32.695  1.00  0.00     0.256 C 
HETATM   13  N   UNL     1      -5.104  -0.860 -33.776  1.00  0.00    -0.323 N 
HETATM   14  H   UNL     1      -4.473  -0.346 -34.380  1.00  0.00     0.169 HD
HETATM   15  O   UNL     1      -6.286  -0.616 -31.771  1.00  0.00    -0.267 OA
BRANCH  13  16
HETATM   16  C   UNL     1      -5.345  -2.203 -34.131  1.00  0.00     0.035 A 
HETATM   17  C   UNL     1      -6.541  -2.660 -34.687  1.00  0.00     0.029 A 
HETATM   18  C   UNL     1      -6.694  -4.007 -35.030  1.00  0.00     0.002 A 
HETATM   19  C   UNL     1      -5.650  -4.907 -34.827  1.00  0.00     0.000 A 
HETATM   20  C   UNL     1      -4.453  -4.462 -34.274  1.00  0.00     0.002 A 
HETATM   21  C   UNL     1      -4.303  -3.117 -33.923  1.00  0.00     0.029 A 
ENDBRANCH  13  16
ENDBRANCH  10  12
BRANCH   9  22
HETATM   22  C   UNL     1      -7.524   2.175 -33.229  1.00  0.00     0.064 A 
HETATM   23  N   UNL     1      -7.846   2.699 -32.012  1.00  0.00    -0.263 NA
HETATM   24  C   UNL     1      -9.158   2.782 -31.697  1.00  0.00     0.117 A 
HETATM   25  C   UNL     1     -10.180   2.362 -32.531  1.00  0.00     0.019 A 
HETATM   26  C   UNL     1      -9.841   1.824 -33.766  1.00  0.00     0.003 A 
HETATM   27  C   UNL     1      -8.499   1.729 -34.124  1.00  0.00     0.030 A 
ENDBRANCH   9  22
TORSDOF 3
ENDMDL
MODEL 2
REMARK VINA RESULT:      -8.2      1.763      4.265
REMARK  3 active torsions:
REMARK  status: ('A' for Active; 'I' for Inactive)
REMARK    1  A    between atoms: C_9  and  C_10 
REMARK    2  A    between atoms: C_16  and  C_17 
REMARK       I    between atoms: C_17  and  N_18 
REMARK    3  A    between atoms: N_18  and  C_19 
ROOT
HETATM    1  C   UNL     1      -9.893   0.340 -32.594  1.00  0.00     0.070 C 
HETATM    2  C   UNL     1      -9.046   1.368 -31.889  1.00  0.00     0.037 A 
HETATM    3  N   UNL     1      -9.693   2.552 -31.546  1.00  0.00    -0.191 N 
HETATM    4  C   UNL     1      -9.131   3.492 -30.760  1.00  0.00     0.735 A 
HETATM    5  N   UNL     1      -7.829   3.349 -30.371  1.00  0.00    -0.091 N 
HETATM    6  N   UNL     1      -7.501   4.306 -29.485  1.00  0.00     0.012 NA
HETATM    7  N   UNL     1      -8.584   5.073 -29.411  1.00  0.00     0.033 NA
HETATM    8  N   UNL     1      -9.607   4.575 -30.195  1.00  0.00     0.030 NA
HETATM    9  C   UNL     1      -6.971   2.230 -30.738  1.00  0.00     0.216 A 
HETATM   10  C   UNL     1      -7.750   1.187 -31.533  1.00  0.00     0.063 A 
HETATM   11  H   UNL     1     -10.682   2.632 -31.771  1.00  0.00     0.184 HD
ENDROOT
BRANCH  10  12
HETATM   12  C   UNL     1      -6.971  -0.049 -31.797  1.00  0.00     0.256 C 
HETATM   13  N   UNL     1      -6.876  -0.358 -33.136  1.00  0.00    -0.323 N 
HETATM   14  H   UNL     1      -7.269   0.314 -33.784  1.00  0.00     0.169 HD
HETATM   15  O   UNL     1      -6.468  -0.635 -30.848  1.00  0.00    -0.267 OA
BRANCH  13  16
HETATM   16  C   UNL     1      -6.278  -1.498 -33.710  1.00  0.00     0.035 A 
HETATM   17  C   UNL     1      -4.901  -1.723 -33.741  1.00  0.00     0.029 A 
HETATM   18  C   UNL     1      -4.386  -2.891 -34.313  1.00  0.00     0.002 A 
HETATM   19  C   UNL     1      -5.244  -3.847 -34.850  1.00  0.00     0.000 A 
HETATM   20  C   UNL     1      -6.620  -3.633 -34.823  1.00  0.00     0.002 A 
HETATM   21  C   UNL     1      -7.134  -2.462 -34.259  1.00  0.00     0.029 A 
ENDBRANCH  13  16
ENDBRANCH  10  12
BRANCH   9  22
HETATM   22  C   UNL     1      -5.768   2.768 -31.503  1.00  0.00     0.064 A 
HETATM   23  N   UNL     1      -5.992   3.426 -32.675  1.00  0.00    -0.263 NA
HETATM   24  C   UNL     1      -4.918   3.934 -33.320  1.00  0.00     0.117 A 
HETATM   25  C   UNL     1      -3.617   3.816 -32.862  1.00  0.00     0.019 A 
HETATM   26  C   UNL     1      -3.399   3.138 -31.670  1.00  0.00     0.003 A 
HETATM   27  C   UNL     1      -4.483   2.607 -30.978  1.00  0.00     0.030 A 
ENDBRANCH   9  22
TORSDOF 3
ENDMDL
MODEL 3
REMARK VINA RESULT:      -7.8      2.394      3.083
REMARK  3 active torsions:
REMARK  status: ('A' for Active; 'I' for Inactive)
REMARK    1  A    between atoms: C_9  and  C_10 
REMARK    2  A    between atoms: C_16  and  C_17 
REMARK       I    between atoms: C_17  and  N_18 
REMARK    3  A    between atoms: N_18  and  C_19 
ROOT
HETATM    1  C   UNL     1      -5.684   0.808 -29.693  1.00  0.00     0.070 C 
HETATM    2  C   UNL     1      -6.575   1.859 -30.304  1.00  0.00     0.037 A 
HETATM    3  N   UNL     1      -7.143   2.762 -29.409  1.00  0.00    -0.191 N 
HETATM    4  C   UNL     1      -7.815   3.862 -29.807  1.00  0.00     0.735 A 
HETATM    5  N   UNL     1      -8.059   4.052 -31.138  1.00  0.00    -0.091 N 
HETATM    6  N   UNL     1      -8.609   5.262 -31.340  1.00  0.00     0.012 NA
HETATM    7  N   UNL     1      -8.773   5.760 -30.118  1.00  0.00     0.033 NA
HETATM    8  N   UNL     1      -8.278   4.901 -29.155  1.00  0.00     0.030 NA
HETATM    9  C   UNL     1      -7.638   3.145 -32.197  1.00  0.00     0.216 A 
HETATM   10  C   UNL     1      -6.800   2.004 -31.633  1.00  0.00     0.063 A 
HETATM   11  H   UNL     1      -6.905   2.666 -28.424  1.00  0.00     0.184 HD
ENDROOT
BRANCH  10  12
HETATM   12  C   UNL     1      -6.209   1.136 -32.683  1.00  0.00     0.256 C 
HETATM   13  N   UNL     1      -6.578  -0.185 -32.571  1.00  0.00    -0.323 N 
HETATM   14  H   UNL     1      -7.257  -0.406 -31.852  1.00  0.00     0.169 HD
HETATM   15  O   UNL     1      -5.510   1.657 -33.544  1.00  0.00    -0.267 OA
BRANCH  13  16
HETATM   16  C   UNL     1      -6.131  -1.268 -33.356  1.00  0.00     0.035 A 
HETATM   17  C   UNL     1      -4.795  -1.658 -33.458  1.00  0.00     0.029 A 
HETATM   18  C   UNL     1      -4.437  -2.757 -34.245  1.00  0.00     0.002 A 
HETATM   19  C   UNL     1      -5.411  -3.481 -34.927  1.00  0.00     0.000 A 
HETATM   20  C   UNL     1      -6.747  -3.101 -34.831  1.00  0.00     0.002 A 
HETATM   21  C   UNL     1      -7.105  -1.997 -34.053  1.00  0.00     0.029 A 
ENDBRANCH  13  16
ENDBRANCH  10  12
BRANCH   9  22
HETATM   22  C   UNL     1      -8.875   2.650 -32.937  1.00  0.00     0.064 A 
HETATM   23  N   UNL     1      -9.236   3.289 -34.086  1.00  0.00    -0.263 NA
HETATM   24  C   UNL     1     -10.311   2.812 -34.753  1.00  0.00     0.117 A 
HETATM   25  C   UNL     1     -11.059   1.726 -34.333  1.00  0.00     0.019 A 
HETATM   26  C   UNL     1     -10.687   1.086 -33.158  1.00  0.00     0.003 A 
HETATM   27  C   UNL     1      -9.582   1.548 -32.449  1.00  0.00     0.030 A 
ENDBRANCH   9  22
TORSDOF 3
ENDMDL
MODEL 4
REMARK VINA RESULT:      -7.5      1.782      2.048
REMARK  3 active torsions:
REMARK  status: ('A' for Active; 'I' for Inactive)
REMARK    1  A    between atoms: C_9  and  C_10 
REMARK    2  A    between atoms: C_16  and  C_17 
REMARK       I    between atoms: C_17  and  N_18 
REMARK    3  A    between atoms: N_18  and  C_19 
ROOT
HETATM    1  C   UNL     1      -4.418   1.089 -32.336  1.00  0.00     0.070 C 
HETATM    2  C   UNL     1      -5.591   1.919 -32.790  1.00  0.00     0.037 A 
HETATM    3  N   UNL     1      -5.703   3.177 -32.204  1.00  0.00    -0.191 N 
HETATM    4  C   UNL     1      -6.584   4.106 -32.628  1.00  0.00     0.735 A 
HETATM    5  N   UNL     1      -7.492   3.775 -33.594  1.00  0.00    -0.091 N 
HETATM    6  N   UNL     1      -8.180   4.866 -33.976  1.00  0.00     0.012 NA
HETATM    7  N   UNL     1      -7.740   5.832 -33.175  1.00  0.00     0.033 NA
HETATM    8  N   UNL     1      -6.743   5.374 -32.335  1.00  0.00     0.030 NA
HETATM    9  C   UNL     1      -7.590   2.469 -34.229  1.00  0.00     0.216 A 
HETATM   10  C   UNL     1      -6.477   1.545 -33.746  1.00  0.00     0.063 A 
HETATM   11  H   UNL     1      -4.986   3.453 -31.537  1.00  0.00     0.184 HD
ENDROOT
BRANCH  10  12
HETATM   12  C   UNL     1      -6.429   0.254 -34.477  1.00  0.00     0.256 C 
HETATM   13  N   UNL     1      -6.131  -0.820 -33.668  1.00  0.00    -0.323 N 
HETATM   14  H   UNL     1      -6.057  -0.631 -32.675  1.00  0.00     0.169 HD
HETATM   15  O   UNL     1      -6.688   0.251 -35.673  1.00  0.00    -0.267 OA
BRANCH  13  16
HETATM   16  C   UNL     1      -5.935  -2.159 -34.062  1.00  0.00     0.035 A 
HETATM   17  C   UNL     1      -6.948  -2.983 -34.555  1.00  0.00     0.029 A 
HETATM   18  C   UNL     1      -6.666  -4.297 -34.944  1.00  0.00     0.002 A 
HETATM   19  C   UNL     1      -5.369  -4.794 -34.851  1.00  0.00     0.000 A 
HETATM   20  C   UNL     1      -4.351  -3.981 -34.361  1.00  0.00     0.002 A 
HETATM   21  C   UNL     1      -4.633  -2.670 -33.965  1.00  0.00     0.029 A 
ENDBRANCH  13  16
ENDBRANCH  10  12
BRANCH   9  22
HETATM   22  C   UNL     1      -8.978   1.899 -33.964  1.00  0.00     0.064 A 
HETATM   23  N   UNL     1     -10.028   2.409 -34.668  1.00  0.00    -0.263 NA
HETATM   24  C   UNL     1     -11.246   1.863 -34.452  1.00  0.00     0.117 A 
HETATM   25  C   UNL     1     -11.482   0.832 -33.559  1.00  0.00     0.019 A 
HETATM   26  C   UNL     1     -10.406   0.324 -32.843  1.00  0.00     0.003 A 
HETATM   27  C   UNL     1      -9.137   0.859 -33.045  1.00  0.00     0.030 A 
ENDBRANCH   9  22
TORSDOF 3
ENDMDL
MODEL 5
REMARK VINA RESULT:      -7.4     15.311     16.714
REMARK  3 active torsions:
REMARK  status: ('A' for Active; 'I' for Inactive)
REMARK    1  A    between atoms: C_9  and  C_10 
REMARK    2  A    between atoms: C_16  and  C_17 
REMARK       I    between atoms: C_17  and  N_18 
REMARK    3  A    between atoms: N_18  and  C_19 
ROOT
HETATM    1  C   UNL     1      -5.776 -13.711 -35.859  1.00  0.00     0.070 C 
HETATM    2  C   UNL     1      -6.386 -13.525 -37.224  1.00  0.00     0.037 A 
HETATM    3  N   UNL     1      -7.772 -13.651 -37.289  1.00  0.00    -0.191 N 
HETATM    4  C   UNL     1      -8.484 -13.340 -38.390  1.00  0.00     0.735 A 
HETATM    5  N   UNL     1      -7.827 -12.997 -39.538  1.00  0.00    -0.091 N 
HETATM    6  N   UNL     1      -8.706 -12.588 -40.471  1.00  0.00     0.012 NA
HETATM    7  N   UNL     1      -9.896 -12.770 -39.906  1.00  0.00     0.033 NA
HETATM    8  N   UNL     1      -9.772 -13.233 -38.610  1.00  0.00     0.030 NA
HETATM    9  C   UNL     1      -6.379 -12.930 -39.677  1.00  0.00     0.216 A 
HETATM   10  C   UNL     1      -5.692 -13.196 -38.342  1.00  0.00     0.063 A 
HETATM   11  H   UNL     1      -8.270 -13.836 -36.421  1.00  0.00     0.184 HD
ENDROOT
BRANCH  10  12
HETATM   12  C   UNL     1      -4.224 -12.984 -38.386  1.00  0.00     0.256 C 
HETATM   13  N   UNL     1      -3.528 -14.079 -38.847  1.00  0.00    -0.323 N 
HETATM   14  H   UNL     1      -4.082 -14.863 -39.173  1.00  0.00     0.169 HD
HETATM   15  O   UNL     1      -3.783 -11.889 -38.064  1.00  0.00    -0.267 OA
BRANCH  13  16
HETATM   16  C   UNL     1      -2.129 -14.229 -38.935  1.00  0.00     0.035 A 
HETATM   17  C   UNL     1      -1.296 -14.439 -37.834  1.00  0.00     0.029 A 
HETATM   18  C   UNL     1       0.082 -14.597 -38.009  1.00  0.00     0.002 A 
HETATM   19  C   UNL     1       0.639 -14.556 -39.285  1.00  0.00     0.000 A 
HETATM   20  C   UNL     1      -0.183 -14.348 -40.389  1.00  0.00     0.002 A 
HETATM   21  C   UNL     1      -1.560 -14.181 -40.215  1.00  0.00     0.029 A 
ENDBRANCH  13  16
ENDBRANCH  10  12
BRANCH   9  22
HETATM   22  C   UNL     1      -5.947 -13.910 -40.761  1.00  0.00     0.064 A 
HETATM   23  N   UNL     1      -6.145 -15.241 -40.542  1.00  0.00    -0.263 NA
HETATM   24  C   UNL     1      -5.795 -16.094 -41.531  1.00  0.00     0.117 A 
HETATM   25  C   UNL     1      -5.247 -15.693 -42.737  1.00  0.00     0.019 A 
HETATM   26  C   UNL     1      -5.044 -14.336 -42.948  1.00  0.00     0.003 A 
HETATM   27  C   UNL     1      -5.398 -13.429 -41.952  1.00  0.00     0.030 A 
ENDBRANCH   9  22
TORSDOF 3
ENDMDL
MODEL 6
REMARK VINA RESULT:      -7.3     15.099     16.670
REMARK  3 active torsions:
REMARK  status: ('A' for Active; 'I' for Inactive)
REMARK    1  A    between atoms: C_9  and  C_10 
REMARK    2  A    between atoms: C_16  and  C_17 
REMARK       I    between atoms: C_17  and  N_18 
REMARK    3  A    between atoms: N_18  and  C_19 
ROOT
HETATM    1  C   UNL     1      -4.612 -14.295 -42.770  1.00  0.00     0.070 C 
HETATM    2  C   UNL     1      -3.941 -14.042 -41.444  1.00  0.00     0.037 A 
HETATM    3  N   UNL     1      -2.637 -14.517 -41.327  1.00  0.00    -0.191 N 
HETATM    4  C   UNL     1      -1.841 -14.218 -40.281  1.00  0.00     0.735 A 
HETATM    5  N   UNL     1      -2.356 -13.519 -39.226  1.00  0.00    -0.091 N 
HETATM    6  N   UNL     1      -1.378 -13.201 -38.359  1.00  0.00     0.012 NA
HETATM    7  N   UNL     1      -0.292 -13.786 -38.855  1.00  0.00     0.033 NA
HETATM    8  N   UNL     1      -0.565 -14.418 -40.054  1.00  0.00     0.030 NA
HETATM    9  C   UNL     1      -3.731 -13.049 -39.134  1.00  0.00     0.216 A 
HETATM   10  C   UNL     1      -4.496 -13.352 -40.417  1.00  0.00     0.063 A 
HETATM   11  H   UNL     1      -2.226 -14.975 -42.138  1.00  0.00     0.184 HD
ENDROOT
BRANCH  10  12
HETATM   12  C   UNL     1      -5.855 -12.756 -40.444  1.00  0.00     0.256 C 
HETATM   13  N   UNL     1      -6.859 -13.675 -40.240  1.00  0.00    -0.323 N 
HETATM   14  H   UNL     1      -6.568 -14.621 -40.020  1.00  0.00     0.169 HD
HETATM   15  O   UNL     1      -5.957 -11.545 -40.596  1.00  0.00    -0.267 OA
BRANCH  13  16
HETATM   16  C   UNL     1      -8.249 -13.448 -40.284  1.00  0.00     0.035 A 
HETATM   17  C   UNL     1      -8.838 -12.190 -40.146  1.00  0.00     0.029 A 
HETATM   18  C   UNL     1     -10.227 -12.045 -40.221  1.00  0.00     0.002 A 
HETATM   19  C   UNL     1     -11.038 -13.155 -40.444  1.00  0.00     0.000 A 
HETATM   20  C   UNL     1     -10.461 -14.414 -40.584  1.00  0.00     0.002 A 
HETATM   21  C   UNL     1      -9.073 -14.561 -40.500  1.00  0.00     0.029 A 
ENDBRANCH  13  16
ENDBRANCH  10  12
BRANCH   9  22
HETATM   22  C   UNL     1      -4.380 -13.676 -37.905  1.00  0.00     0.064 A 
HETATM   23  N   UNL     1      -4.826 -14.960 -37.999  1.00  0.00    -0.263 NA
HETATM   24  C   UNL     1      -5.361 -15.516 -36.888  1.00  0.00     0.117 A 
HETATM   25  C   UNL     1      -5.484 -14.855 -35.678  1.00  0.00     0.019 A 
HETATM   26  C   UNL     1      -5.031 -13.545 -35.595  1.00  0.00     0.003 A 
HETATM   27  C   UNL     1      -4.471 -12.944 -36.719  1.00  0.00     0.030 A 
ENDBRANCH   9  22
TORSDOF 3
ENDMDL
MODEL 7
REMARK VINA RESULT:      -7.3      2.388      6.113
REMARK  3 active torsions:
REMARK  status: ('A' for Active; 'I' for Inactive)
REMARK    1  A    between atoms: C_9  and  C_10 
REMARK    2  A    between atoms: C_16  and  C_17 
REMARK       I    between atoms: C_17  and  N_18 
REMARK    3  A    between atoms: N_18  and  C_19 
ROOT
HETATM    1  C   UNL     1      -3.208   0.663 -32.227  1.00  0.00     0.070 C 
HETATM    2  C   UNL     1      -4.438  -0.065 -32.706  1.00  0.00     0.037 A 
HETATM    3  N   UNL     1      -4.242  -0.949 -33.764  1.00  0.00    -0.191 N 
HETATM    4  C   UNL     1      -5.195  -1.804 -34.189  1.00  0.00     0.735 A 
HETATM    5  N   UNL     1      -6.448  -1.733 -33.647  1.00  0.00    -0.091 N 
HETATM    6  N   UNL     1      -7.204  -2.751 -34.095  1.00  0.00     0.012 NA
HETATM    7  N   UNL     1      -6.427  -3.381 -34.971  1.00  0.00     0.033 NA
HETATM    8  N   UNL     1      -5.173  -2.805 -35.035  1.00  0.00     0.030 NA
HETATM    9  C   UNL     1      -6.853  -0.790 -32.615  1.00  0.00     0.216 A 
HETATM   10  C   UNL     1      -5.667   0.045 -32.145  1.00  0.00     0.063 A 
HETATM   11  H   UNL     1      -3.296  -1.056 -34.122  1.00  0.00     0.184 HD
ENDROOT
BRANCH  10  12
HETATM   12  C   UNL     1      -5.985   0.912 -30.982  1.00  0.00     0.256 C 
HETATM   13  N   UNL     1      -6.327   2.197 -31.338  1.00  0.00    -0.323 N 
HETATM   14  H   UNL     1      -6.400   2.388 -32.331  1.00  0.00     0.169 HD
HETATM   15  O   UNL     1      -5.958   0.419 -29.862  1.00  0.00    -0.267 OA
BRANCH  13  16
HETATM   16  C   UNL     1      -6.605   3.278 -30.476  1.00  0.00     0.035 A 
HETATM   17  C   UNL     1      -5.638   3.939 -29.717  1.00  0.00     0.029 A 
HETATM   18  C   UNL     1      -5.993   5.017 -28.900  1.00  0.00     0.002 A 
HETATM   19  C   UNL     1      -7.316   5.449 -28.843  1.00  0.00     0.000 A 
HETATM   20  C   UNL     1      -8.288   4.798 -29.597  1.00  0.00     0.002 A 
HETATM   21  C   UNL     1      -7.935   3.714 -30.407  1.00  0.00     0.029 A 
ENDBRANCH  13  16
ENDBRANCH  10  12
BRANCH   9  22
HETATM   22  C   UNL     1      -7.991   0.067 -33.157  1.00  0.00     0.064 A 
HETATM   23  N   UNL     1      -7.696   1.010 -34.095  1.00  0.00    -0.263 NA
HETATM   24  C   UNL     1      -8.722   1.733 -34.597  1.00  0.00     0.117 A 
HETATM   25  C   UNL     1     -10.041   1.573 -34.207  1.00  0.00     0.019 A 
HETATM   26  C   UNL     1     -10.330   0.613 -33.246  1.00  0.00     0.003 A 
HETATM   27  C   UNL     1      -9.298  -0.152 -32.712  1.00  0.00     0.030 A 
ENDBRANCH   9  22
TORSDOF 3
ENDMDL
MODEL 8
REMARK VINA RESULT:      -7.3      2.580      5.467
REMARK  3 active torsions:
REMARK  status: ('A' for Active; 'I' for Inactive)
REMARK    1  A    between atoms: C_9  and  C_10 
REMARK    2  A    between atoms: C_16  and  C_17 
REMARK       I    between atoms: C_17  and  N_18 
REMARK    3  A    between atoms: N_18  and  C_19 
ROOT
HETATM    1  C   UNL     1      -7.110  -1.816 -33.876  1.00  0.00     0.070 C 
HETATM    2  C   UNL     1      -6.269  -0.750 -33.223  1.00  0.00     0.037 A 
HETATM    3  N   UNL     1      -5.238  -1.209 -32.407  1.00  0.00    -0.191 N 
HETATM    4  C   UNL     1      -4.291  -0.395 -31.897  1.00  0.00     0.735 A 
HETATM    5  N   UNL     1      -4.398   0.954 -32.081  1.00  0.00    -0.091 N 
HETATM    6  N   UNL     1      -3.294   1.573 -31.625  1.00  0.00     0.012 NA
HETATM    7  N   UNL     1      -2.565   0.598 -31.091  1.00  0.00     0.033 NA
HETATM    8  N   UNL     1      -3.172  -0.632 -31.258  1.00  0.00     0.030 NA
HETATM    9  C   UNL     1      -5.477   1.610 -32.808  1.00  0.00     0.216 A 
HETATM   10  C   UNL     1      -6.419   0.583 -33.425  1.00  0.00     0.063 A 
HETATM   11  H   UNL     1      -5.112  -2.215 -32.326  1.00  0.00     0.184 HD
ENDROOT
BRANCH  10  12
HETATM   12  C   UNL     1      -7.446   1.188 -34.310  1.00  0.00     0.256 C 
HETATM   13  N   UNL     1      -8.573   1.600 -33.636  1.00  0.00    -0.323 N 
HETATM   14  H   UNL     1      -8.551   1.522 -32.626  1.00  0.00     0.169 HD
HETATM   15  O   UNL     1      -7.193   1.300 -35.503  1.00  0.00    -0.267 OA
BRANCH  13  16
HETATM   16  C   UNL     1      -9.753   2.137 -34.191  1.00  0.00     0.035 A 
HETATM   17  C   UNL     1      -9.901   3.474 -34.564  1.00  0.00     0.029 A 
HETATM   18  C   UNL     1     -11.099   3.924 -35.127  1.00  0.00     0.002 A 
HETATM   19  C   UNL     1     -12.156   3.041 -35.330  1.00  0.00     0.000 A 
HETATM   20  C   UNL     1     -12.019   1.705 -34.963  1.00  0.00     0.002 A 
HETATM   21  C   UNL     1     -10.824   1.256 -34.392  1.00  0.00     0.029 A 
ENDBRANCH  13  16
ENDBRANCH  10  12
BRANCH   9  22
HETATM   22  C   UNL     1      -6.193   2.565 -31.861  1.00  0.00     0.064 A 
HETATM   23  N   UNL     1      -6.908   2.033 -30.830  1.00  0.00    -0.263 NA
HETATM   24  C   UNL     1      -7.503   2.895 -29.974  1.00  0.00     0.117 A 
HETATM   25  C   UNL     1      -7.431   4.272 -30.092  1.00  0.00     0.019 A 
HETATM   26  C   UNL     1      -6.705   4.804 -31.150  1.00  0.00     0.003 A 
HETATM   27  C   UNL     1      -6.076   3.945 -32.047  1.00  0.00     0.030 A 
ENDBRANCH   9  22
TORSDOF 3
ENDMDL
MODEL 9
REMARK VINA RESULT:      -7.2      5.830      9.270
REMARK  3 active torsions:
REMARK  status: ('A' for Active; 'I' for Inactive)
REMARK    1  A    between atoms: C_9  and  C_10 
REMARK    2  A    between atoms: C_16  and  C_17 
REMARK       I    between atoms: C_17  and  N_18 
REMARK    3  A    between atoms: N_18  and  C_19 
ROOT
HETATM    1  C   UNL     1      -6.613   5.502 -30.179  1.00  0.00     0.070 C 
HETATM    2  C   UNL     1      -5.499   5.708 -31.173  1.00  0.00     0.037 A 
HETATM    3  N   UNL     1      -5.617   5.003 -32.367  1.00  0.00    -0.191 N 
HETATM    4  C   UNL     1      -4.807   5.212 -33.424  1.00  0.00     0.735 A 
HETATM    5  N   UNL     1      -3.746   6.064 -33.296  1.00  0.00    -0.091 N 
HETATM    6  N   UNL     1      -3.151   6.246 -34.489  1.00  0.00     0.012 NA
HETATM    7  N   UNL     1      -3.806   5.433 -35.313  1.00  0.00     0.033 NA
HETATM    8  N   UNL     1      -4.841   4.788 -34.664  1.00  0.00     0.030 NA
HETATM    9  C   UNL     1      -3.410   6.793 -32.081  1.00  0.00     0.216 A 
HETATM   10  C   UNL     1      -4.456   6.558 -30.998  1.00  0.00     0.063 A 
HETATM   11  H   UNL     1      -6.444   4.422 -32.493  1.00  0.00     0.184 HD
ENDROOT
BRANCH  10  12
HETATM   12  C   UNL     1      -4.253   7.400 -29.793  1.00  0.00     0.256 C 
HETATM   13  N   UNL     1      -3.604   6.743 -28.772  1.00  0.00    -0.323 N 
HETATM   14  H   UNL     1      -3.273   5.807 -28.974  1.00  0.00     0.169 HD
HETATM   15  O   UNL     1      -4.624   8.566 -29.827  1.00  0.00    -0.267 OA
BRANCH  13  16
HETATM   16  C   UNL     1      -3.329   7.232 -27.478  1.00  0.00     0.035 A 
HETATM   17  C   UNL     1      -4.313   7.591 -26.556  1.00  0.00     0.029 A 
HETATM   18  C   UNL     1      -3.957   8.050 -25.283  1.00  0.00     0.002 A 
HETATM   19  C   UNL     1      -2.616   8.144 -24.920  1.00  0.00     0.000 A 
HETATM   20  C   UNL     1      -1.627   7.788 -25.832  1.00  0.00     0.002 A 
HETATM   21  C   UNL     1      -1.982   7.337 -27.107  1.00  0.00     0.029 A 
ENDBRANCH  13  16
ENDBRANCH  10  12
BRANCH   9  22
HETATM   22  C   UNL     1      -2.010   6.385 -31.639  1.00  0.00     0.064 A 
HETATM   23  N   UNL     1      -1.830   5.121 -31.161  1.00  0.00    -0.263 NA
HETATM   24  C   UNL     1      -0.574   4.760 -30.813  1.00  0.00     0.117 A 
HETATM   25  C   UNL     1       0.524   5.598 -30.907  1.00  0.00     0.019 A 
HETATM   26  C   UNL     1       0.328   6.885 -31.389  1.00  0.00     0.003 A 
HETATM   27  C   UNL     1      -0.951   7.288 -31.762  1.00  0.00     0.030 A 
ENDBRANCH   9  22
TORSDOF 3
ENDMDL
MODEL 10
REMARK VINA RESULT:      -7.1      2.659      6.415
REMARK  3 active torsions:
REMARK  status: ('A' for Active; 'I' for Inactive)
REMARK    1  A    between atoms: C_9  and  C_10 
REMARK    2  A    between atoms: C_16  and  C_17 
REMARK       I    between atoms: C_17  and  N_18 
REMARK    3  A    between atoms: N_18  and  C_19 
ROOT
HETATM    1  C   UNL     1      -5.796   5.078 -28.919  1.00  0.00     0.070 C 
HETATM    2  C   UNL     1      -6.591   4.313 -29.946  1.00  0.00     0.037 A 
HETATM    3  N   UNL     1      -7.940   4.131 -29.652  1.00  0.00    -0.191 N 
HETATM    4  C   UNL     1      -8.822   3.630 -30.540  1.00  0.00     0.735 A 
HETATM    5  N   UNL     1      -8.369   3.167 -31.744  1.00  0.00    -0.091 N 
HETATM    6  N   UNL     1      -9.407   2.844 -32.536  1.00  0.00     0.012 NA
HETATM    7  N   UNL     1     -10.479   3.033 -31.772  1.00  0.00     0.033 NA
HETATM    8  N   UNL     1     -10.129   3.527 -30.529  1.00  0.00     0.030 NA
HETATM    9  C   UNL     1      -6.975   3.175 -32.165  1.00  0.00     0.216 A 
HETATM   10  C   UNL     1      -6.097   3.861 -31.125  1.00  0.00     0.063 A 
HETATM   11  H   UNL     1      -8.295   4.537 -28.789  1.00  0.00     0.184 HD
ENDROOT
BRANCH  10  12
HETATM   12  C   UNL     1      -4.693   4.041 -31.571  1.00  0.00     0.256 C 
HETATM   13  N   UNL     1      -4.517   5.130 -32.394  1.00  0.00    -0.323 N 
HETATM   14  H   UNL     1      -5.327   5.722 -32.540  1.00  0.00     0.169 HD
HETATM   15  O   UNL     1      -3.844   3.265 -31.152  1.00  0.00    -0.267 OA
BRANCH  13  16
HETATM   16  C   UNL     1      -3.332   5.529 -33.045  1.00  0.00     0.035 A 
HETATM   17  C   UNL     1      -2.700   4.781 -34.040  1.00  0.00     0.029 A 
HETATM   18  C   UNL     1      -1.535   5.257 -34.651  1.00  0.00     0.002 A 
HETATM   19  C   UNL     1      -0.998   6.487 -34.280  1.00  0.00     0.000 A 
HETATM   20  C   UNL     1      -1.622   7.241 -33.289  1.00  0.00     0.002 A 
HETATM   21  C   UNL     1      -2.781   6.762 -32.672  1.00  0.00     0.029 A 
ENDBRANCH  13  16
ENDBRANCH  10  12
BRANCH   9  22
HETATM   22  C   UNL     1      -6.541   1.740 -32.441  1.00  0.00     0.064 A 
HETATM   23  N   UNL     1      -6.462   0.878 -31.389  1.00  0.00    -0.263 NA
HETATM   24  C   UNL     1      -6.116  -0.401 -31.656  1.00  0.00     0.117 A 
HETATM   25  C   UNL     1      -5.835  -0.875 -32.926  1.00  0.00     0.019 A 
HETATM   26  C   UNL     1      -5.913   0.013 -33.990  1.00  0.00     0.003 A 
HETATM   27  C   UNL     1      -6.271   1.337 -33.751  1.00  0.00     0.030 A 
ENDBRANCH   9  22
TORSDOF 3
ENDMDL
