MODEL 1
REMARK VINA RESULT:      -7.2      0.000      0.000
REMARK  9 active torsions:
REMARK  status: ('A' for Active; 'I' for Inactive)
REMARK    1  A    between atoms: C_2  and  N_3 
REMARK       I    between atoms: N_3  and  C_4 
REMARK    2  A    between atoms: C_4  and  C_5 
REMARK    3  A    between atoms: C_5  and  S_6 
REMARK    4  A    between atoms: S_6  and  C_7 
REMARK    5  A    between atoms: N_8  and  C_9 
REMARK    6  A    between atoms: C_9  and  C_10 
REMARK    7  A    between atoms: C_10  and  C_11 
REMARK    8  A    between atoms: C_17  and  C_18 
REMARK    9  A    between atoms: C_19  and  O_20 
ROOT
HETATM    1  C   UNL     1      -3.022   4.679 -32.962  1.00  0.00     0.192 A 
HETATM    2  N   UNL     1      -4.164   3.964 -32.716  1.00  0.00    -0.307 N 
HETATM    3  C   UNL     1      -3.774   2.927 -31.887  1.00  0.00     0.167 A 
HETATM    4  N   UNL     1      -2.490   3.076 -31.607  1.00  0.00    -0.128 NA
HETATM    5  N   UNL     1      -2.025   4.178 -32.270  1.00  0.00    -0.122 NA
ENDROOT
BRANCH   1   6
HETATM    6  S   UNL     1      -2.912   6.007 -34.061  1.00  0.00    -0.081 SA
BRANCH   6   7
HETATM    7  C   UNL     1      -1.288   6.697 -33.641  1.00  0.00     0.185 C 
BRANCH   7   8
HETATM    8  C   UNL     1      -1.361   7.591 -32.413  1.00  0.00     0.227 C 
HETATM    9  N   UNL     1      -1.008   6.965 -31.235  1.00  0.00    -0.361 N 
HETATM   10  H   UNL     1      -0.404   6.145 -31.324  1.00  0.00     0.162 HD
HETATM   11  O   UNL     1      -1.731   8.761 -32.473  1.00  0.00    -0.273 OA
BRANCH   9  12
HETATM   12  C   UNL     1      -0.971   7.665 -29.971  1.00  0.00     0.118 C 
HETATM   13  C   UNL     1       0.363   7.493 -29.267  1.00  0.00     0.026 C 
ENDBRANCH   9  12
ENDBRANCH   7   8
ENDBRANCH   6   7
ENDBRANCH   1   6
BRANCH   2  14
HETATM   14  C   UNL     1      -5.500   4.222 -33.216  1.00  0.00     0.137 C 
BRANCH  14  15
HETATM   15  C   UNL     1      -5.911   3.384 -34.432  1.00  0.00     0.059 C 
BRANCH  15  16
HETATM   16  C   UNL     1      -6.876   2.271 -34.107  1.00  0.00    -0.057 A 
HETATM   17  C   UNL     1      -7.821   2.422 -33.085  1.00  0.00     0.007 A 
HETATM   18  C   UNL     1      -8.716   1.391 -32.793  1.00  0.00     0.001 A 
HETATM   19  C   UNL     1      -8.671   0.200 -33.515  1.00  0.00     0.000 A 
HETATM   20  C   UNL     1      -7.728   0.037 -34.528  1.00  0.00     0.001 A 
HETATM   21  C   UNL     1      -6.835   1.067 -34.823  1.00  0.00     0.007 A 
ENDBRANCH  15  16
ENDBRANCH  14  15
ENDBRANCH   2  14
BRANCH   3  22
HETATM   22  C   UNL     1      -4.629   1.857 -31.376  1.00  0.00     0.045 A 
HETATM   23  C   UNL     1      -5.470   2.066 -30.273  1.00  0.00     0.082 A 
HETATM   24  C   UNL     1      -6.317   1.053 -29.813  1.00  0.00     0.038 A 
HETATM   25  C   UNL     1      -6.298  -0.197 -30.426  1.00  0.00     0.003 A 
HETATM   26  C   UNL     1      -5.438  -0.433 -31.498  1.00  0.00     0.001 A 
HETATM   27  C   UNL     1      -4.605   0.586 -31.967  1.00  0.00     0.018 A 
BRANCH  23  28
HETATM   28  O   UNL     1      -5.547   3.302 -29.681  1.00  0.00    -0.355 OA
HETATM   29  C   UNL     1      -6.890   3.788 -29.730  1.00  0.00     0.210 C 
ENDBRANCH  23  28
ENDBRANCH   3  22
TORSDOF 9
ENDMDL
MODEL 2
REMARK VINA RESULT:      -7.1      4.367      7.784
REMARK  9 active torsions:
REMARK  status: ('A' for Active; 'I' for Inactive)
REMARK    1  A    between atoms: C_2  and  N_3 
REMARK       I    between atoms: N_3  and  C_4 
REMARK    2  A    between atoms: C_4  and  C_5 
REMARK    3  A    between atoms: C_5  and  S_6 
REMARK    4  A    between atoms: S_6  and  C_7 
REMARK    5  A    between atoms: N_8  and  C_9 
REMARK    6  A    between atoms: C_9  and  C_10 
REMARK    7  A    between atoms: C_10  and  C_11 
REMARK    8  A    between atoms: C_17  and  C_18 
REMARK    9  A    between atoms: C_19  and  O_20 
ROOT
HETATM    1  C   UNL     1      -9.132   2.476 -33.036  1.00  0.00     0.192 A 
HETATM    2  N   UNL     1      -7.968   1.767 -33.178  1.00  0.00    -0.307 N 
HETATM    3  C   UNL     1      -7.204   2.093 -32.070  1.00  0.00     0.167 A 
HETATM    4  N   UNL     1      -7.918   2.890 -31.291  1.00  0.00    -0.128 NA
HETATM    5  N   UNL     1      -9.126   3.118 -31.891  1.00  0.00    -0.122 NA
ENDROOT
BRANCH   1   6
HETATM    6  S   UNL     1     -10.388   2.548 -34.219  1.00  0.00    -0.081 SA
BRANCH   6   7
HETATM    7  C   UNL     1     -11.381   1.093 -33.787  1.00  0.00     0.185 C 
BRANCH   7   8
HETATM    8  C   UNL     1     -12.853   1.308 -34.104  1.00  0.00     0.227 C 
HETATM    9  N   UNL     1     -13.694   1.161 -33.019  1.00  0.00    -0.361 N 
HETATM   10  H   UNL     1     -13.270   1.299 -32.099  1.00  0.00     0.162 HD
HETATM   11  O   UNL     1     -13.251   1.562 -35.239  1.00  0.00    -0.273 OA
BRANCH   9  12
HETATM   12  C   UNL     1     -15.120   1.374 -33.115  1.00  0.00     0.118 C 
HETATM   13  C   UNL     1     -15.617   2.360 -32.074  1.00  0.00     0.026 C 
ENDBRANCH   9  12
ENDBRANCH   7   8
ENDBRANCH   6   7
ENDBRANCH   1   6
BRANCH   2  14
HETATM   14  C   UNL     1      -7.598   0.870 -34.255  1.00  0.00     0.137 C 
BRANCH  14  15
HETATM   15  C   UNL     1      -7.941  -0.605 -34.019  1.00  0.00     0.059 C 
BRANCH  15  16
HETATM   16  C   UNL     1      -6.772  -1.539 -34.203  1.00  0.00    -0.057 A 
HETATM   17  C   UNL     1      -6.974  -2.862 -34.617  1.00  0.00     0.007 A 
HETATM   18  C   UNL     1      -5.887  -3.720 -34.793  1.00  0.00     0.001 A 
HETATM   19  C   UNL     1      -4.592  -3.268 -34.552  1.00  0.00     0.000 A 
HETATM   20  C   UNL     1      -4.381  -1.956 -34.131  1.00  0.00     0.001 A 
HETATM   21  C   UNL     1      -5.466  -1.096 -33.957  1.00  0.00     0.007 A 
ENDBRANCH  15  16
ENDBRANCH  14  15
ENDBRANCH   2  14
BRANCH   3  22
HETATM   22  C   UNL     1      -5.851   1.623 -31.782  1.00  0.00     0.045 A 
HETATM   23  C   UNL     1      -4.732   2.235 -32.366  1.00  0.00     0.082 A 
HETATM   24  C   UNL     1      -3.437   1.809 -32.055  1.00  0.00     0.038 A 
HETATM   25  C   UNL     1      -3.250   0.735 -31.189  1.00  0.00     0.003 A 
HETATM   26  C   UNL     1      -4.353   0.090 -30.632  1.00  0.00     0.001 A 
HETATM   27  C   UNL     1      -5.646   0.528 -30.930  1.00  0.00     0.018 A 
BRANCH  23  28
HETATM   28  O   UNL     1      -4.883   3.327 -33.184  1.00  0.00    -0.355 OA
HETATM   29  C   UNL     1      -4.333   4.488 -32.559  1.00  0.00     0.210 C 
ENDBRANCH  23  28
ENDBRANCH   3  22
TORSDOF 9
ENDMDL
MODEL 3
REMARK VINA RESULT:      -7.0      2.592      4.308
REMARK  9 active torsions:
REMARK  status: ('A' for Active; 'I' for Inactive)
REMARK    1  A    between atoms: C_2  and  N_3 
REMARK       I    between atoms: N_3  and  C_4 
REMARK    2  A    between atoms: C_4  and  C_5 
REMARK    3  A    between atoms: C_5  and  S_6 
REMARK    4  A    between atoms: S_6  and  C_7 
REMARK    5  A    between atoms: N_8  and  C_9 
REMARK    6  A    between atoms: C_9  and  C_10 
REMARK    7  A    between atoms: C_10  and  C_11 
REMARK    8  A    between atoms: C_17  and  C_18 
REMARK    9  A    between atoms: C_19  and  O_20 
ROOT
HETATM    1  C   UNL     1      -6.678   5.372 -31.730  1.00  0.00     0.192 A 
HETATM    2  N   UNL     1      -7.003   4.259 -32.460  1.00  0.00    -0.307 N 
HETATM    3  C   UNL     1      -8.218   3.831 -31.953  1.00  0.00     0.167 A 
HETATM    4  N   UNL     1      -8.612   4.694 -31.029  1.00  0.00    -0.128 NA
HETATM    5  N   UNL     1      -7.653   5.661 -30.900  1.00  0.00    -0.122 NA
ENDROOT
BRANCH   1   6
HETATM    6  S   UNL     1      -5.182   6.227 -31.856  1.00  0.00    -0.081 SA
BRANCH   6   7
HETATM    7  C   UNL     1      -4.060   5.139 -30.935  1.00  0.00     0.185 C 
BRANCH   7   8
HETATM    8  C   UNL     1      -2.805   4.827 -31.734  1.00  0.00     0.227 C 
HETATM    9  N   UNL     1      -2.493   5.772 -32.691  1.00  0.00    -0.361 N 
HETATM   10  H   UNL     1      -2.867   6.711 -32.536  1.00  0.00     0.162 HD
HETATM   11  O   UNL     1      -2.147   3.805 -31.553  1.00  0.00    -0.273 OA
BRANCH   9  12
HETATM   12  C   UNL     1      -1.310   5.672 -33.516  1.00  0.00     0.118 C 
HETATM   13  C   UNL     1      -1.623   5.113 -34.891  1.00  0.00     0.026 C 
ENDBRANCH   9  12
ENDBRANCH   7   8
ENDBRANCH   6   7
ENDBRANCH   1   6
BRANCH   2  14
HETATM   14  C   UNL     1      -6.245   3.645 -33.532  1.00  0.00     0.137 C 
BRANCH  14  15
HETATM   15  C   UNL     1      -5.426   2.415 -33.126  1.00  0.00     0.059 C 
BRANCH  15  16
HETATM   16  C   UNL     1      -5.989   1.113 -33.636  1.00  0.00    -0.057 A 
HETATM   17  C   UNL     1      -6.770   1.079 -34.798  1.00  0.00     0.007 A 
HETATM   18  C   UNL     1      -7.283  -0.130 -35.270  1.00  0.00     0.001 A 
HETATM   19  C   UNL     1      -7.025  -1.315 -34.583  1.00  0.00     0.000 A 
HETATM   20  C   UNL     1      -6.256  -1.291 -33.421  1.00  0.00     0.001 A 
HETATM   21  C   UNL     1      -5.740  -0.084 -32.950  1.00  0.00     0.007 A 
ENDBRANCH  15  16
ENDBRANCH  14  15
ENDBRANCH   2  14
BRANCH   3  22
HETATM   22  C   UNL     1      -8.965   2.648 -32.374  1.00  0.00     0.045 A 
HETATM   23  C   UNL     1      -9.826   2.691 -33.481  1.00  0.00     0.082 A 
HETATM   24  C   UNL     1     -10.507   1.546 -33.905  1.00  0.00     0.038 A 
HETATM   25  C   UNL     1     -10.368   0.355 -33.197  1.00  0.00     0.003 A 
HETATM   26  C   UNL     1      -9.548   0.306 -32.071  1.00  0.00     0.001 A 
HETATM   27  C   UNL     1      -8.854   1.447 -31.659  1.00  0.00     0.018 A 
BRANCH  23  28
HETATM   28  O   UNL     1      -9.944   3.837 -34.227  1.00  0.00    -0.355 OA
HETATM   29  C   UNL     1     -11.043   3.722 -35.133  1.00  0.00     0.210 C 
ENDBRANCH  23  28
ENDBRANCH   3  22
TORSDOF 9
ENDMDL
MODEL 4
REMARK VINA RESULT:      -6.8      2.660      4.214
REMARK  9 active torsions:
REMARK  status: ('A' for Active; 'I' for Inactive)
REMARK    1  A    between atoms: C_2  and  N_3 
REMARK       I    between atoms: N_3  and  C_4 
REMARK    2  A    between atoms: C_4  and  C_5 
REMARK    3  A    between atoms: C_5  and  S_6 
REMARK    4  A    between atoms: S_6  and  C_7 
REMARK    5  A    between atoms: N_8  and  C_9 
REMARK    6  A    between atoms: C_9  and  C_10 
REMARK    7  A    between atoms: C_10  and  C_11 
REMARK    8  A    between atoms: C_17  and  C_18 
REMARK    9  A    between atoms: C_19  and  O_20 
ROOT
HETATM    1  C   UNL     1      -5.091   2.829 -31.533  1.00  0.00     0.192 A 
HETATM    2  N   UNL     1      -5.883   2.021 -32.307  1.00  0.00    -0.307 N 
HETATM    3  C   UNL     1      -7.183   2.396 -32.013  1.00  0.00     0.167 A 
HETATM    4  N   UNL     1      -7.144   3.417 -31.172  1.00  0.00    -0.128 NA
HETATM    5  N   UNL     1      -5.835   3.692 -30.883  1.00  0.00    -0.122 NA
ENDROOT
BRANCH   1   6
HETATM    6  S   UNL     1      -3.374   2.687 -31.403  1.00  0.00    -0.081 SA
BRANCH   6   7
HETATM    7  C   UNL     1      -2.814   3.758 -32.755  1.00  0.00     0.185 C 
BRANCH   7   8
HETATM    8  C   UNL     1      -1.821   4.800 -32.267  1.00  0.00     0.227 C 
HETATM    9  N   UNL     1      -1.567   4.749 -30.910  1.00  0.00    -0.361 N 
HETATM   10  H   UNL     1      -1.744   3.853 -30.452  1.00  0.00     0.162 HD
HETATM   11  O   UNL     1      -1.313   5.629 -33.019  1.00  0.00    -0.273 OA
BRANCH   9  12
HETATM   12  C   UNL     1      -0.614   5.628 -30.271  1.00  0.00     0.118 C 
HETATM   13  C   UNL     1       0.761   4.995 -30.169  1.00  0.00     0.026 C 
ENDBRANCH   9  12
ENDBRANCH   7   8
ENDBRANCH   6   7
ENDBRANCH   1   6
BRANCH   2  14
HETATM   14  C   UNL     1      -5.465   0.987 -33.231  1.00  0.00     0.137 C 
BRANCH  14  15
HETATM   15  C   UNL     1      -5.043  -0.335 -32.580  1.00  0.00     0.059 C 
BRANCH  15  16
HETATM   16  C   UNL     1      -5.341  -1.551 -33.421  1.00  0.00    -0.057 A 
HETATM   17  C   UNL     1      -6.621  -1.757 -33.949  1.00  0.00     0.007 A 
HETATM   18  C   UNL     1      -6.890  -2.881 -34.732  1.00  0.00     0.001 A 
HETATM   19  C   UNL     1      -5.885  -3.810 -34.990  1.00  0.00     0.000 A 
HETATM   20  C   UNL     1      -4.609  -3.619 -34.462  1.00  0.00     0.001 A 
HETATM   21  C   UNL     1      -4.338  -2.495 -33.681  1.00  0.00     0.007 A 
ENDBRANCH  15  16
ENDBRANCH  14  15
ENDBRANCH   2  14
BRANCH   3  22
HETATM   22  C   UNL     1      -8.401   1.796 -32.554  1.00  0.00     0.045 A 
HETATM   23  C   UNL     1      -9.143   2.440 -33.555  1.00  0.00     0.082 A 
HETATM   24  C   UNL     1     -10.285   1.843 -34.098  1.00  0.00     0.038 A 
HETATM   25  C   UNL     1     -10.722   0.613 -33.612  1.00  0.00     0.003 A 
HETATM   26  C   UNL     1     -10.018  -0.021 -32.589  1.00  0.00     0.001 A 
HETATM   27  C   UNL     1      -8.867   0.569 -32.059  1.00  0.00     0.018 A 
BRANCH  23  28
HETATM   28  O   UNL     1      -8.709   3.627 -34.088  1.00  0.00    -0.355 OA
HETATM   29  C   UNL     1      -9.805   4.535 -34.222  1.00  0.00     0.210 C 
ENDBRANCH  23  28
ENDBRANCH   3  22
TORSDOF 9
ENDMDL
MODEL 5
REMARK VINA RESULT:      -6.8      2.253      3.482
REMARK  9 active torsions:
REMARK  status: ('A' for Active; 'I' for Inactive)
REMARK    1  A    between atoms: C_2  and  N_3 
REMARK       I    between atoms: N_3  and  C_4 
REMARK    2  A    between atoms: C_4  and  C_5 
REMARK    3  A    between atoms: C_5  and  S_6 
REMARK    4  A    between atoms: S_6  and  C_7 
REMARK    5  A    between atoms: N_8  and  C_9 
REMARK    6  A    between atoms: C_9  and  C_10 
REMARK    7  A    between atoms: C_10  and  C_11 
REMARK    8  A    between atoms: C_17  and  C_18 
REMARK    9  A    between atoms: C_19  and  O_20 
ROOT
HETATM    1  C   UNL     1      -5.091   4.088 -31.269  1.00  0.00     0.192 A 
HETATM    2  N   UNL     1      -5.796   2.936 -31.500  1.00  0.00    -0.307 N 
HETATM    3  C   UNL     1      -5.422   2.527 -32.769  1.00  0.00     0.167 A 
HETATM    4  N   UNL     1      -4.494   3.356 -33.218  1.00  0.00    -0.128 NA
HETATM    5  N   UNL     1      -4.281   4.323 -32.275  1.00  0.00    -0.122 NA
ENDROOT
BRANCH   1   6
HETATM    6  S   UNL     1      -5.287   5.098 -29.881  1.00  0.00    -0.081 SA
BRANCH   6   7
HETATM    7  C   UNL     1      -4.439   6.612 -30.408  1.00  0.00     0.185 C 
BRANCH   7   8
HETATM    8  C   UNL     1      -3.032   6.691 -29.838  1.00  0.00     0.227 C 
HETATM    9  N   UNL     1      -2.109   5.901 -30.495  1.00  0.00    -0.361 N 
HETATM   10  H   UNL     1      -2.334   5.655 -31.462  1.00  0.00     0.162 HD
HETATM   11  O   UNL     1      -2.756   7.381 -28.859  1.00  0.00    -0.273 OA
BRANCH   9  12
HETATM   12  C   UNL     1      -0.712   5.881 -30.128  1.00  0.00     0.118 C 
HETATM   13  C   UNL     1       0.114   6.819 -30.990  1.00  0.00     0.026 C 
ENDBRANCH   9  12
ENDBRANCH   7   8
ENDBRANCH   6   7
ENDBRANCH   1   6
BRANCH   2  14
HETATM   14  C   UNL     1      -6.741   2.279 -30.619  1.00  0.00     0.137 C 
BRANCH  14  15
HETATM   15  C   UNL     1      -8.180   2.799 -30.705  1.00  0.00     0.059 C 
BRANCH  15  16
HETATM   16  C   UNL     1      -9.050   2.030 -31.666  1.00  0.00    -0.057 A 
HETATM   17  C   UNL     1      -9.886   2.701 -32.567  1.00  0.00     0.007 A 
HETATM   18  C   UNL     1     -10.684   1.983 -33.460  1.00  0.00     0.001 A 
HETATM   19  C   UNL     1     -10.658   0.590 -33.456  1.00  0.00     0.000 A 
HETATM   20  C   UNL     1      -9.836  -0.088 -32.558  1.00  0.00     0.001 A 
HETATM   21  C   UNL     1      -9.036   0.628 -31.667  1.00  0.00     0.007 A 
ENDBRANCH  15  16
ENDBRANCH  14  15
ENDBRANCH   2  14
BRANCH   3  22
HETATM   22  C   UNL     1      -5.935   1.364 -33.491  1.00  0.00     0.045 A 
HETATM   23  C   UNL     1      -5.499   0.068 -33.179  1.00  0.00     0.082 A 
HETATM   24  C   UNL     1      -6.022  -1.045 -33.845  1.00  0.00     0.038 A 
HETATM   25  C   UNL     1      -6.957  -0.868 -34.862  1.00  0.00     0.003 A 
HETATM   26  C   UNL     1      -7.370   0.417 -35.210  1.00  0.00     0.001 A 
HETATM   27  C   UNL     1      -6.859   1.527 -34.533  1.00  0.00     0.018 A 
BRANCH  23  28
HETATM   28  O   UNL     1      -4.617  -0.141 -32.149  1.00  0.00    -0.355 OA
HETATM   29  C   UNL     1      -3.631  -1.102 -32.533  1.00  0.00     0.210 C 
ENDBRANCH  23  28
ENDBRANCH   3  22
TORSDOF 9
ENDMDL
MODEL 6
REMARK VINA RESULT:      -6.7      1.808      3.451
REMARK  9 active torsions:
REMARK  status: ('A' for Active; 'I' for Inactive)
REMARK    1  A    between atoms: C_2  and  N_3 
REMARK       I    between atoms: N_3  and  C_4 
REMARK    2  A    between atoms: C_4  and  C_5 
REMARK    3  A    between atoms: C_5  and  S_6 
REMARK    4  A    between atoms: S_6  and  C_7 
REMARK    5  A    between atoms: N_8  and  C_9 
REMARK    6  A    between atoms: C_9  and  C_10 
REMARK    7  A    between atoms: C_10  and  C_11 
REMARK    8  A    between atoms: C_17  and  C_18 
REMARK    9  A    between atoms: C_19  and  O_20 
ROOT
HETATM    1  C   UNL     1      -5.229   5.559 -32.097  1.00  0.00     0.192 A 
HETATM    2  N   UNL     1      -5.702   4.275 -32.042  1.00  0.00    -0.307 N 
HETATM    3  C   UNL     1      -6.317   4.059 -33.263  1.00  0.00     0.167 A 
HETATM    4  N   UNL     1      -6.143   5.135 -34.014  1.00  0.00    -0.128 NA
HETATM    5  N   UNL     1      -5.453   6.066 -33.287  1.00  0.00    -0.122 NA
ENDROOT
BRANCH   1   6
HETATM    6  S   UNL     1      -4.495   6.393 -30.774  1.00  0.00    -0.081 SA
BRANCH   6   7
HETATM    7  C   UNL     1      -3.942   7.926 -31.569  1.00  0.00     0.185 C 
BRANCH   7   8
HETATM    8  C   UNL     1      -2.461   7.876 -31.910  1.00  0.00     0.227 C 
HETATM    9  N   UNL     1      -1.810   6.751 -31.444  1.00  0.00    -0.361 N 
HETATM   10  H   UNL     1      -2.396   5.932 -31.267  1.00  0.00     0.162 HD
HETATM   11  O   UNL     1      -1.896   8.777 -32.526  1.00  0.00    -0.273 OA
BRANCH   9  12
HETATM   12  C   UNL     1      -0.411   6.504 -31.711  1.00  0.00     0.118 C 
HETATM   13  C   UNL     1       0.465   6.863 -30.525  1.00  0.00     0.026 C 
ENDBRANCH   9  12
ENDBRANCH   7   8
ENDBRANCH   6   7
ENDBRANCH   1   6
BRANCH   2  14
HETATM   14  C   UNL     1      -5.597   3.334 -30.944  1.00  0.00     0.137 C 
BRANCH  14  15
HETATM   15  C   UNL     1      -4.335   2.464 -30.952  1.00  0.00     0.059 C 
BRANCH  15  16
HETATM   16  C   UNL     1      -4.523   1.125 -31.619  1.00  0.00    -0.057 A 
HETATM   17  C   UNL     1      -5.642   0.334 -31.330  1.00  0.00     0.007 A 
HETATM   18  C   UNL     1      -5.814  -0.902 -31.956  1.00  0.00     0.001 A 
HETATM   19  C   UNL     1      -4.868  -1.361 -32.870  1.00  0.00     0.000 A 
HETATM   20  C   UNL     1      -3.747  -0.586 -33.158  1.00  0.00     0.001 A 
HETATM   21  C   UNL     1      -3.574   0.651 -32.536  1.00  0.00     0.007 A 
ENDBRANCH  15  16
ENDBRANCH  14  15
ENDBRANCH   2  14
BRANCH   3  22
HETATM   22  C   UNL     1      -7.017   2.846 -33.679  1.00  0.00     0.045 A 
HETATM   23  C   UNL     1      -8.288   2.533 -33.172  1.00  0.00     0.082 A 
HETATM   24  C   UNL     1      -8.972   1.393 -33.603  1.00  0.00     0.038 A 
HETATM   25  C   UNL     1      -8.371   0.528 -34.515  1.00  0.00     0.003 A 
HETATM   26  C   UNL     1      -7.093   0.803 -34.998  1.00  0.00     0.001 A 
HETATM   27  C   UNL     1      -6.417   1.953 -34.578  1.00  0.00     0.018 A 
BRANCH  23  28
HETATM   28  O   UNL     1      -8.924   3.392 -32.311  1.00  0.00    -0.355 OA
HETATM   29  C   UNL     1      -9.252   2.715 -31.096  1.00  0.00     0.210 C 
ENDBRANCH  23  28
ENDBRANCH   3  22
TORSDOF 9
ENDMDL
MODEL 7
REMARK VINA RESULT:      -6.6      4.126      7.516
REMARK  9 active torsions:
REMARK  status: ('A' for Active; 'I' for Inactive)
REMARK    1  A    between atoms: C_2  and  N_3 
REMARK       I    between atoms: N_3  and  C_4 
REMARK    2  A    between atoms: C_4  and  C_5 
REMARK    3  A    between atoms: C_5  and  S_6 
REMARK    4  A    between atoms: S_6  and  C_7 
REMARK    5  A    between atoms: N_8  and  C_9 
REMARK    6  A    between atoms: C_9  and  C_10 
REMARK    7  A    between atoms: C_10  and  C_11 
REMARK    8  A    between atoms: C_17  and  C_18 
REMARK    9  A    between atoms: C_19  and  O_20 
ROOT
HETATM    1  C   UNL     1      -9.643   4.202 -34.428  1.00  0.00     0.192 A 
HETATM    2  N   UNL     1      -8.907   3.376 -33.618  1.00  0.00    -0.307 N 
HETATM    3  C   UNL     1      -7.724   4.055 -33.382  1.00  0.00     0.167 A 
HETATM    4  N   UNL     1      -7.802   5.243 -33.961  1.00  0.00    -0.128 NA
HETATM    5  N   UNL     1      -9.006   5.336 -34.603  1.00  0.00    -0.122 NA
ENDROOT
BRANCH   1   6
HETATM    6  S   UNL     1     -11.157   3.781 -35.144  1.00  0.00    -0.081 SA
BRANCH   6   7
HETATM    7  C   UNL     1     -12.314   4.144 -33.796  1.00  0.00     0.185 C 
BRANCH   7   8
HETATM    8  C   UNL     1     -13.307   3.011 -33.593  1.00  0.00     0.227 C 
HETATM    9  N   UNL     1     -13.154   1.958 -34.472  1.00  0.00    -0.361 N 
HETATM   10  H   UNL     1     -12.228   1.853 -34.892  1.00  0.00     0.162 HD
HETATM   11  O   UNL     1     -14.185   3.052 -32.733  1.00  0.00    -0.273 OA
BRANCH   9  12
HETATM   12  C   UNL     1     -13.974   0.770 -34.403  1.00  0.00     0.118 C 
HETATM   13  C   UNL     1     -13.311  -0.330 -33.595  1.00  0.00     0.026 C 
ENDBRANCH   9  12
ENDBRANCH   7   8
ENDBRANCH   6   7
ENDBRANCH   1   6
BRANCH   2  14
HETATM   14  C   UNL     1      -9.272   2.067 -33.117  1.00  0.00     0.137 C 
BRANCH  14  15
HETATM   15  C   UNL     1      -8.872   0.891 -34.015  1.00  0.00     0.059 C 
BRANCH  15  16
HETATM   16  C   UNL     1      -7.620   0.180 -33.567  1.00  0.00    -0.057 A 
HETATM   17  C   UNL     1      -6.760  -0.408 -34.503  1.00  0.00     0.007 A 
HETATM   18  C   UNL     1      -5.598  -1.058 -34.083  1.00  0.00     0.001 A 
HETATM   19  C   UNL     1      -5.290  -1.132 -32.726  1.00  0.00     0.000 A 
HETATM   20  C   UNL     1      -6.144  -0.558 -31.787  1.00  0.00     0.001 A 
HETATM   21  C   UNL     1      -7.304   0.095 -32.205  1.00  0.00     0.007 A 
ENDBRANCH  15  16
ENDBRANCH  14  15
ENDBRANCH   2  14
BRANCH   3  22
HETATM   22  C   UNL     1      -6.587   3.570 -32.604  1.00  0.00     0.045 A 
HETATM   23  C   UNL     1      -6.606   3.593 -31.201  1.00  0.00     0.082 A 
HETATM   24  C   UNL     1      -5.532   3.089 -30.460  1.00  0.00     0.038 A 
HETATM   25  C   UNL     1      -4.407   2.597 -31.118  1.00  0.00     0.003 A 
HETATM   26  C   UNL     1      -4.356   2.605 -32.510  1.00  0.00     0.001 A 
HETATM   27  C   UNL     1      -5.437   3.093 -33.250  1.00  0.00     0.018 A 
BRANCH  23  28
HETATM   28  O   UNL     1      -7.720   4.025 -30.527  1.00  0.00    -0.355 OA
HETATM   29  C   UNL     1      -7.347   4.950 -29.503  1.00  0.00     0.210 C 
ENDBRANCH  23  28
ENDBRANCH   3  22
TORSDOF 9
ENDMDL
MODEL 8
REMARK VINA RESULT:      -6.6      1.874      3.424
REMARK  9 active torsions:
REMARK  status: ('A' for Active; 'I' for Inactive)
REMARK    1  A    between atoms: C_2  and  N_3 
REMARK       I    between atoms: N_3  and  C_4 
REMARK    2  A    between atoms: C_4  and  C_5 
REMARK    3  A    between atoms: C_5  and  S_6 
REMARK    4  A    between atoms: S_6  and  C_7 
REMARK    5  A    between atoms: N_8  and  C_9 
REMARK    6  A    between atoms: C_9  and  C_10 
REMARK    7  A    between atoms: C_10  and  C_11 
REMARK    8  A    between atoms: C_17  and  C_18 
REMARK    9  A    between atoms: C_19  and  O_20 
ROOT
HETATM    1  C   UNL     1      -3.887   5.305 -33.000  1.00  0.00     0.192 A 
HETATM    2  N   UNL     1      -4.653   4.234 -32.621  1.00  0.00    -0.307 N 
HETATM    3  C   UNL     1      -5.519   4.012 -33.677  1.00  0.00     0.167 A 
HETATM    4  N   UNL     1      -5.221   4.862 -34.647  1.00  0.00    -0.128 NA
HETATM    5  N   UNL     1      -4.194   5.660 -34.226  1.00  0.00    -0.122 NA
ENDROOT
BRANCH   1   6
HETATM    6  S   UNL     1      -2.731   6.094 -31.987  1.00  0.00    -0.081 SA
BRANCH   6   7
HETATM    7  C   UNL     1      -1.253   5.078 -32.258  1.00  0.00     0.185 C 
BRANCH   7   8
HETATM    8  C   UNL     1      -0.177   5.371 -31.224  1.00  0.00     0.227 C 
HETATM    9  N   UNL     1      -0.428   6.482 -30.444  1.00  0.00    -0.361 N 
HETATM   10  H   UNL     1      -1.408   6.762 -30.361  1.00  0.00     0.162 HD
HETATM   11  O   UNL     1       0.838   4.687 -31.120  1.00  0.00    -0.273 OA
BRANCH   9  12
HETATM   12  C   UNL     1       0.456   6.890 -29.377  1.00  0.00     0.118 C 
HETATM   13  C   UNL     1       0.126   6.194 -28.069  1.00  0.00     0.026 C 
ENDBRANCH   9  12
ENDBRANCH   7   8
ENDBRANCH   6   7
ENDBRANCH   1   6
BRANCH   2  14
HETATM   14  C   UNL     1      -4.586   3.488 -31.380  1.00  0.00     0.137 C 
BRANCH  14  15
HETATM   15  C   UNL     1      -3.569   2.342 -31.364  1.00  0.00     0.059 C 
BRANCH  15  16
HETATM   16  C   UNL     1      -4.130   1.022 -31.829  1.00  0.00    -0.057 A 
HETATM   17  C   UNL     1      -3.457   0.259 -32.792  1.00  0.00     0.007 A 
HETATM   18  C   UNL     1      -3.978  -0.966 -33.214  1.00  0.00     0.001 A 
HETATM   19  C   UNL     1      -5.177  -1.435 -32.683  1.00  0.00     0.000 A 
HETATM   20  C   UNL     1      -5.860  -0.680 -31.731  1.00  0.00     0.001 A 
HETATM   21  C   UNL     1      -5.339   0.543 -31.306  1.00  0.00     0.007 A 
ENDBRANCH  15  16
ENDBRANCH  14  15
ENDBRANCH   2  14
BRANCH   3  22
HETATM   22  C   UNL     1      -6.570   2.999 -33.738  1.00  0.00     0.045 A 
HETATM   23  C   UNL     1      -7.746   3.128 -32.983  1.00  0.00     0.082 A 
HETATM   24  C   UNL     1      -8.766   2.176 -33.076  1.00  0.00     0.038 A 
HETATM   25  C   UNL     1      -8.602   1.060 -33.893  1.00  0.00     0.003 A 
HETATM   26  C   UNL     1      -7.423   0.898 -34.619  1.00  0.00     0.001 A 
HETATM   27  C   UNL     1      -6.411   1.858 -34.538  1.00  0.00     0.018 A 
BRANCH  23  28
HETATM   28  O   UNL     1      -7.956   4.240 -32.208  1.00  0.00    -0.355 OA
HETATM   29  C   UNL     1      -9.257   4.189 -31.618  1.00  0.00     0.210 C 
ENDBRANCH  23  28
ENDBRANCH   3  22
TORSDOF 9
ENDMDL
MODEL 9
REMARK VINA RESULT:      -6.5      4.259      7.806
REMARK  9 active torsions:
REMARK  status: ('A' for Active; 'I' for Inactive)
REMARK    1  A    between atoms: C_2  and  N_3 
REMARK       I    between atoms: N_3  and  C_4 
REMARK    2  A    between atoms: C_4  and  C_5 
REMARK    3  A    between atoms: C_5  and  S_6 
REMARK    4  A    between atoms: S_6  and  C_7 
REMARK    5  A    between atoms: N_8  and  C_9 
REMARK    6  A    between atoms: C_9  and  C_10 
REMARK    7  A    between atoms: C_10  and  C_11 
REMARK    8  A    between atoms: C_17  and  C_18 
REMARK    9  A    between atoms: C_19  and  O_20 
ROOT
HETATM    1  C   UNL     1      -9.160   2.154 -32.895  1.00  0.00     0.192 A 
HETATM    2  N   UNL     1      -7.817   2.021 -33.135  1.00  0.00    -0.307 N 
HETATM    3  C   UNL     1      -7.471   0.791 -32.601  1.00  0.00     0.167 A 
HETATM    4  N   UNL     1      -8.569   0.210 -32.144  1.00  0.00    -0.128 NA
HETATM    5  N   UNL     1      -9.624   1.059 -32.340  1.00  0.00    -0.122 NA
ENDROOT
BRANCH   1   6
HETATM    6  S   UNL     1     -10.081   3.576 -33.231  1.00  0.00    -0.081 SA
BRANCH   6   7
HETATM    7  C   UNL     1     -10.686   3.233 -34.906  1.00  0.00     0.185 C 
BRANCH   7   8
HETATM    8  C   UNL     1     -12.028   2.520 -34.881  1.00  0.00     0.227 C 
HETATM    9  N   UNL     1     -12.418   2.090 -33.628  1.00  0.00    -0.361 N 
HETATM   10  H   UNL     1     -12.005   2.584 -32.833  1.00  0.00     0.162 HD
HETATM   11  O   UNL     1     -12.689   2.325 -35.898  1.00  0.00    -0.273 OA
BRANCH   9  12
HETATM   12  C   UNL     1     -13.686   1.436 -33.397  1.00  0.00     0.118 C 
HETATM   13  C   UNL     1     -13.617  -0.052 -33.686  1.00  0.00     0.026 C 
ENDBRANCH   9  12
ENDBRANCH   7   8
ENDBRANCH   6   7
ENDBRANCH   1   6
BRANCH   2  14
HETATM   14  C   UNL     1      -6.934   2.960 -33.796  1.00  0.00     0.137 C 
BRANCH  14  15
HETATM   15  C   UNL     1      -6.143   3.879 -32.859  1.00  0.00     0.059 C 
BRANCH  15  16
HETATM   16  C   UNL     1      -4.775   4.245 -33.376  1.00  0.00    -0.057 A 
HETATM   17  C   UNL     1      -4.632   4.995 -34.549  1.00  0.00     0.007 A 
HETATM   18  C   UNL     1      -3.363   5.337 -35.020  1.00  0.00     0.001 A 
HETATM   19  C   UNL     1      -2.226   4.928 -34.325  1.00  0.00     0.000 A 
HETATM   20  C   UNL     1      -2.357   4.173 -33.161  1.00  0.00     0.001 A 
HETATM   21  C   UNL     1      -3.625   3.833 -32.688  1.00  0.00     0.007 A 
ENDBRANCH  15  16
ENDBRANCH  14  15
ENDBRANCH   2  14
BRANCH   3  22
HETATM   22  C   UNL     1      -6.132   0.208 -32.566  1.00  0.00     0.045 A 
HETATM   23  C   UNL     1      -5.731  -0.744 -33.516  1.00  0.00     0.082 A 
HETATM   24  C   UNL     1      -4.435  -1.269 -33.503  1.00  0.00     0.038 A 
HETATM   25  C   UNL     1      -3.539  -0.880 -32.510  1.00  0.00     0.003 A 
HETATM   26  C   UNL     1      -3.935   0.035 -31.535  1.00  0.00     0.001 A 
HETATM   27  C   UNL     1      -5.225   0.571 -31.559  1.00  0.00     0.018 A 
BRANCH  23  28
HETATM   28  O   UNL     1      -6.575  -1.108 -34.534  1.00  0.00    -0.355 OA
HETATM   29  C   UNL     1      -6.502  -2.519 -34.752  1.00  0.00     0.210 C 
ENDBRANCH  23  28
ENDBRANCH   3  22
TORSDOF 9
ENDMDL
MODEL 10
REMARK VINA RESULT:      -6.5      3.942      7.135
REMARK  9 active torsions:
REMARK  status: ('A' for Active; 'I' for Inactive)
REMARK    1  A    between atoms: C_2  and  N_3 
REMARK       I    between atoms: N_3  and  C_4 
REMARK    2  A    between atoms: C_4  and  C_5 
REMARK    3  A    between atoms: C_5  and  S_6 
REMARK    4  A    between atoms: S_6  and  C_7 
REMARK    5  A    between atoms: N_8  and  C_9 
REMARK    6  A    between atoms: C_9  and  C_10 
REMARK    7  A    between atoms: C_10  and  C_11 
REMARK    8  A    between atoms: C_17  and  C_18 
REMARK    9  A    between atoms: C_19  and  O_20 
ROOT
HETATM    1  C   UNL     1      -9.514   3.741 -30.680  1.00  0.00     0.192 A 
HETATM    2  N   UNL     1      -8.890   2.580 -31.054  1.00  0.00    -0.307 N 
HETATM    3  C   UNL     1      -7.537   2.823 -30.886  1.00  0.00     0.167 A 
HETATM    4  N   UNL     1      -7.390   4.033 -30.372  1.00  0.00    -0.128 NA
HETATM    5  N   UNL     1      -8.628   4.600 -30.234  1.00  0.00    -0.122 NA
ENDROOT
BRANCH   1   6
HETATM    6  S   UNL     1     -11.210   4.036 -30.829  1.00  0.00    -0.081 SA
BRANCH   6   7
HETATM    7  C   UNL     1     -11.349   4.502 -32.576  1.00  0.00     0.185 C 
BRANCH   7   8
HETATM    8  C   UNL     1     -12.426   3.695 -33.284  1.00  0.00     0.227 C 
HETATM    9  N   UNL     1     -12.880   2.605 -32.570  1.00  0.00    -0.361 N 
HETATM   10  H   UNL     1     -12.755   2.647 -31.556  1.00  0.00     0.162 HD
HETATM   11  O   UNL     1     -12.831   3.983 -34.409  1.00  0.00    -0.273 OA
BRANCH   9  12
HETATM   12  C   UNL     1     -13.935   1.748 -33.059  1.00  0.00     0.118 C 
HETATM   13  C   UNL     1     -13.388   0.500 -33.729  1.00  0.00     0.026 C 
ENDBRANCH   9  12
ENDBRANCH   7   8
ENDBRANCH   6   7
ENDBRANCH   1   6
BRANCH   2  14
HETATM   14  C   UNL     1      -9.500   1.356 -31.531  1.00  0.00     0.137 C 
BRANCH  14  15
HETATM   15  C   UNL     1      -9.641   1.250 -33.054  1.00  0.00     0.059 C 
BRANCH  15  16
HETATM   16  C   UNL     1      -8.547   0.448 -33.713  1.00  0.00    -0.057 A 
HETATM   17  C   UNL     1      -7.964   0.884 -34.909  1.00  0.00     0.007 A 
HETATM   18  C   UNL     1      -6.946   0.141 -35.510  1.00  0.00     0.001 A 
HETATM   19  C   UNL     1      -6.507  -1.045 -34.926  1.00  0.00     0.000 A 
HETATM   20  C   UNL     1      -7.087  -1.492 -33.741  1.00  0.00     0.001 A 
HETATM   21  C   UNL     1      -8.102  -0.750 -33.136  1.00  0.00     0.007 A 
ENDBRANCH  15  16
ENDBRANCH  14  15
ENDBRANCH   2  14
BRANCH   3  22
HETATM   22  C   UNL     1      -6.447   1.900 -31.194  1.00  0.00     0.045 A 
HETATM   23  C   UNL     1      -5.652   2.072 -32.337  1.00  0.00     0.082 A 
HETATM   24  C   UNL     1      -4.584   1.210 -32.605  1.00  0.00     0.038 A 
HETATM   25  C   UNL     1      -4.327   0.139 -31.754  1.00  0.00     0.003 A 
HETATM   26  C   UNL     1      -5.132  -0.069 -30.635  1.00  0.00     0.001 A 
HETATM   27  C   UNL     1      -6.189   0.803 -30.359  1.00  0.00     0.018 A 
BRANCH  23  28
HETATM   28  O   UNL     1      -5.851   3.146 -33.167  1.00  0.00    -0.355 OA
HETATM   29  C   UNL     1      -4.720   4.020 -33.118  1.00  0.00     0.210 C 
ENDBRANCH  23  28
ENDBRANCH   3  22
TORSDOF 9
ENDMDL
