MODEL 1
REMARK VINA RESULT:      -7.7      0.000      0.000
REMARK  5 active torsions:
REMARK  status: ('A' for Active; 'I' for Inactive)
REMARK    1  A    between atoms: C_2  and  C_3 
REMARK       I    between atoms: C_3  and  N_4 
REMARK    2  A    between atoms: N_4  and  C_5 
REMARK    3  A    between atoms: C_5  and  C_6 
REMARK    4  A    between atoms: C_5  and  C_17 
REMARK    5  A    between atoms: C_7  and  O_8 
ROOT
HETATM    1  C   UNL     1      -6.810   1.051 -32.823  1.00  0.00     0.154 C 
ENDROOT
BRANCH   1   2
HETATM    2  N   UNL     1      -6.013   2.149 -33.351  1.00  0.00    -0.348 N 
HETATM    3  C   UNL     1      -5.262   2.943 -32.519  1.00  0.00     0.218 C 
HETATM    4  O   UNL     1      -5.234   2.786 -31.299  1.00  0.00    -0.274 OA
HETATM    5  H   UNL     1      -5.721   2.081 -34.314  1.00  0.00     0.163 HD
BRANCH   3   6
HETATM    6  C   UNL     1      -4.395   3.973 -33.213  1.00  0.00     0.098 C 
HETATM    7  C   UNL     1      -5.138   4.806 -34.247  1.00  0.00     0.014 C 
ENDBRANCH   3   6
ENDBRANCH   1   2
BRANCH   1   8
HETATM    8  C   UNL     1      -6.172  -0.272 -33.229  1.00  0.00     0.005 A 
HETATM    9  C   UNL     1      -5.139  -0.854 -32.467  1.00  0.00     0.103 A 
HETATM   10  C   UNL     1      -4.533  -2.078 -32.806  1.00  0.00     0.100 A 
HETATM   11  C   UNL     1      -4.981  -2.717 -33.982  1.00  0.00    -0.004 A 
HETATM   12  N   UNL     1      -3.549  -2.622 -32.052  1.00  0.00    -0.257 NA
HETATM   13  C   UNL     1      -5.990  -2.142 -34.769  1.00  0.00     0.014 A 
HETATM   14  C   UNL     1      -4.395  -3.937 -34.348  1.00  0.00     0.015 A 
HETATM   15  C   UNL     1      -6.574  -0.931 -34.400  1.00  0.00     0.013 A 
HETATM   16  C   UNL     1      -3.392  -4.489 -33.562  1.00  0.00     0.020 A 
HETATM   17  C   UNL     1      -3.008  -3.798 -32.432  1.00  0.00     0.117 A 
BRANCH   9  18
HETATM   18  O   UNL     1      -4.696  -0.214 -31.328  1.00  0.00    -0.358 OA
HETATM   19  H   UNL     1      -4.793   0.755 -31.461  1.00  0.00     0.218 HD
ENDBRANCH   9  18
ENDBRANCH   1   8
BRANCH   1  20
HETATM   20  C   UNL     1      -8.293   1.157 -33.184  1.00  0.00    -0.031 A 
HETATM   21  C   UNL     1      -8.713   2.250 -33.966  1.00  0.00     0.009 A 
HETATM   22  C   UNL     1     -10.052   2.408 -34.325  1.00  0.00     0.001 A 
HETATM   23  C   UNL     1     -10.998   1.478 -33.903  1.00  0.00     0.000 A 
HETATM   24  C   UNL     1     -10.606   0.394 -33.124  1.00  0.00     0.001 A 
HETATM   25  C   UNL     1      -9.264   0.231 -32.767  1.00  0.00     0.009 A 
ENDBRANCH   1  20
TORSDOF 5
ENDMDL
MODEL 2
REMARK VINA RESULT:      -7.5      2.231      5.767
REMARK  5 active torsions:
REMARK  status: ('A' for Active; 'I' for Inactive)
REMARK    1  A    between atoms: C_2  and  C_3 
REMARK       I    between atoms: C_3  and  N_4 
REMARK    2  A    between atoms: N_4  and  C_5 
REMARK    3  A    between atoms: C_5  and  C_6 
REMARK    4  A    between atoms: C_5  and  C_17 
REMARK    5  A    between atoms: C_7  and  O_8 
ROOT
HETATM    1  C   UNL     1      -5.949   1.395 -32.213  1.00  0.00     0.154 C 
ENDROOT
BRANCH   1   2
HETATM    2  N   UNL     1      -7.320   1.810 -31.952  1.00  0.00    -0.348 N 
HETATM    3  C   UNL     1      -7.674   2.371 -30.749  1.00  0.00     0.218 C 
HETATM    4  O   UNL     1      -6.871   2.535 -29.833  1.00  0.00    -0.274 OA
HETATM    5  H   UNL     1      -7.890   2.034 -32.753  1.00  0.00     0.163 HD
BRANCH   3   6
HETATM    6  C   UNL     1      -9.105   2.858 -30.657  1.00  0.00     0.098 C 
HETATM    7  C   UNL     1      -9.851   2.830 -31.982  1.00  0.00     0.014 C 
ENDBRANCH   3   6
ENDBRANCH   1   2
BRANCH   1   8
HETATM    8  C   UNL     1      -5.175   2.567 -32.804  1.00  0.00     0.005 A 
HETATM    9  C   UNL     1      -3.877   2.892 -32.357  1.00  0.00     0.103 A 
HETATM   10  C   UNL     1      -3.129   3.959 -32.886  1.00  0.00     0.100 A 
HETATM   11  C   UNL     1      -3.739   4.742 -33.889  1.00  0.00    -0.004 A 
HETATM   12  N   UNL     1      -1.880   4.244 -32.447  1.00  0.00    -0.257 NA
HETATM   13  C   UNL     1      -5.040   4.452 -34.330  1.00  0.00     0.014 A 
HETATM   14  C   UNL     1      -3.021   5.815 -34.434  1.00  0.00     0.015 A 
HETATM   15  C   UNL     1      -5.750   3.382 -33.790  1.00  0.00     0.013 A 
HETATM   16  C   UNL     1      -1.737   6.092 -33.981  1.00  0.00     0.020 A 
HETATM   17  C   UNL     1      -1.216   5.283 -32.994  1.00  0.00     0.117 A 
BRANCH   9  18
HETATM   18  O   UNL     1      -3.295   2.131 -31.365  1.00  0.00    -0.358 OA
HETATM   19  H   UNL     1      -2.360   1.958 -31.616  1.00  0.00     0.218 HD
ENDBRANCH   9  18
ENDBRANCH   1   8
BRANCH   1  20
HETATM   20  C   UNL     1      -5.855   0.114 -33.044  1.00  0.00    -0.031 A 
HETATM   21  C   UNL     1      -6.991  -0.295 -33.770  1.00  0.00     0.009 A 
HETATM   22  C   UNL     1      -6.973  -1.457 -34.542  1.00  0.00     0.001 A 
HETATM   23  C   UNL     1      -5.822  -2.236 -34.598  1.00  0.00     0.000 A 
HETATM   24  C   UNL     1      -4.691  -1.854 -33.882  1.00  0.00     0.001 A 
HETATM   25  C   UNL     1      -4.704  -0.688 -33.111  1.00  0.00     0.009 A 
ENDBRANCH   1  20
TORSDOF 5
ENDMDL
MODEL 3
REMARK VINA RESULT:      -7.5      2.195      6.341
REMARK  5 active torsions:
REMARK  status: ('A' for Active; 'I' for Inactive)
REMARK    1  A    between atoms: C_2  and  C_3 
REMARK       I    between atoms: C_3  and  N_4 
REMARK    2  A    between atoms: N_4  and  C_5 
REMARK    3  A    between atoms: C_5  and  C_6 
REMARK    4  A    between atoms: C_5  and  C_17 
REMARK    5  A    between atoms: C_7  and  O_8 
ROOT
HETATM    1  C   UNL     1      -7.259   1.076 -33.502  1.00  0.00     0.154 C 
ENDROOT
BRANCH   1   2
HETATM    2  N   UNL     1      -6.893   1.750 -32.264  1.00  0.00    -0.348 N 
HETATM    3  C   UNL     1      -6.690   3.108 -32.230  1.00  0.00     0.218 C 
HETATM    4  O   UNL     1      -6.787   3.819 -33.229  1.00  0.00    -0.274 OA
HETATM    5  H   UNL     1      -7.159   1.300 -31.402  1.00  0.00     0.163 HD
BRANCH   3   6
HETATM    6  C   UNL     1      -6.426   3.690 -30.857  1.00  0.00     0.098 C 
HETATM    7  C   UNL     1      -5.410   2.905 -30.041  1.00  0.00     0.014 C 
ENDBRANCH   3   6
ENDBRANCH   1   2
BRANCH   1   8
HETATM    8  C   UNL     1      -8.769   0.872 -33.533  1.00  0.00     0.005 A 
HETATM    9  C   UNL     1      -9.619   1.767 -34.215  1.00  0.00     0.103 A 
HETATM   10  C   UNL     1     -11.014   1.605 -34.273  1.00  0.00     0.100 A 
HETATM   11  C   UNL     1     -11.567   0.502 -33.587  1.00  0.00    -0.004 A 
HETATM   12  N   UNL     1     -11.808   2.473 -34.944  1.00  0.00    -0.257 NA
HETATM   13  C   UNL     1     -10.742  -0.386 -32.880  1.00  0.00     0.014 A 
HETATM   14  C   UNL     1     -12.956   0.315 -33.623  1.00  0.00     0.015 A 
HETATM   15  C   UNL     1      -9.361  -0.200 -32.849  1.00  0.00     0.013 A 
HETATM   16  C   UNL     1     -13.758   1.208 -34.321  1.00  0.00     0.020 A 
HETATM   17  C   UNL     1     -13.141   2.263 -34.960  1.00  0.00     0.117 A 
BRANCH   9  18
HETATM   18  O   UNL     1      -9.072   2.851 -34.870  1.00  0.00    -0.358 OA
HETATM   19  H   UNL     1      -8.326   3.195 -34.329  1.00  0.00     0.218 HD
ENDBRANCH   9  18
ENDBRANCH   1   8
BRANCH   1  20
HETATM   20  C   UNL     1      -6.459  -0.204 -33.750  1.00  0.00    -0.031 A 
HETATM   21  C   UNL     1      -5.333  -0.453 -32.942  1.00  0.00     0.009 A 
HETATM   22  C   UNL     1      -4.557  -1.599 -33.121  1.00  0.00     0.001 A 
HETATM   23  C   UNL     1      -4.888  -2.514 -34.115  1.00  0.00     0.000 A 
HETATM   24  C   UNL     1      -5.993  -2.283 -34.930  1.00  0.00     0.001 A 
HETATM   25  C   UNL     1      -6.776  -1.138 -34.750  1.00  0.00     0.009 A 
ENDBRANCH   1  20
TORSDOF 5
ENDMDL
MODEL 4
REMARK VINA RESULT:      -7.4      2.134      3.029
REMARK  5 active torsions:
REMARK  status: ('A' for Active; 'I' for Inactive)
REMARK    1  A    between atoms: C_2  and  C_3 
REMARK       I    between atoms: C_3  and  N_4 
REMARK    2  A    between atoms: N_4  and  C_5 
REMARK    3  A    between atoms: C_5  and  C_6 
REMARK    4  A    between atoms: C_5  and  C_17 
REMARK    5  A    between atoms: C_7  and  O_8 
ROOT
HETATM    1  C   UNL     1      -5.278   2.566 -32.086  1.00  0.00     0.154 C 
ENDROOT
BRANCH   1   2
HETATM    2  N   UNL     1      -4.370   3.402 -32.860  1.00  0.00    -0.348 N 
HETATM    3  C   UNL     1      -3.072   3.598 -32.458  1.00  0.00     0.218 C 
HETATM    4  O   UNL     1      -2.613   3.104 -31.430  1.00  0.00    -0.274 OA
HETATM    5  H   UNL     1      -4.572   3.509 -33.842  1.00  0.00     0.163 HD
BRANCH   3   6
HETATM    6  C   UNL     1      -2.210   4.396 -33.416  1.00  0.00     0.098 C 
HETATM    7  C   UNL     1      -1.138   5.229 -32.731  1.00  0.00     0.014 C 
ENDBRANCH   3   6
ENDBRANCH   1   2
BRANCH   1   8
HETATM    8  C   UNL     1      -5.556   1.282 -32.857  1.00  0.00     0.005 A 
HETATM    9  C   UNL     1      -4.681   0.178 -32.786  1.00  0.00     0.103 A 
HETATM   10  C   UNL     1      -4.910  -1.027 -33.475  1.00  0.00     0.100 A 
HETATM   11  C   UNL     1      -6.061  -1.098 -34.288  1.00  0.00    -0.004 A 
HETATM   12  N   UNL     1      -4.060  -2.077 -33.382  1.00  0.00    -0.257 NA
HETATM   13  C   UNL     1      -6.931  -0.002 -34.394  1.00  0.00     0.014 A 
HETATM   14  C   UNL     1      -6.316  -2.284 -34.991  1.00  0.00     0.015 A 
HETATM   15  C   UNL     1      -6.678   1.175 -33.691  1.00  0.00     0.013 A 
HETATM   16  C   UNL     1      -5.441  -3.357 -34.880  1.00  0.00     0.020 A 
HETATM   17  C   UNL     1      -4.336  -3.205 -34.069  1.00  0.00     0.117 A 
BRANCH   9  18
HETATM   18  O   UNL     1      -3.550   0.262 -32.000  1.00  0.00    -0.358 OA
HETATM   19  H   UNL     1      -2.763   0.222 -32.587  1.00  0.00     0.218 HD
ENDBRANCH   9  18
ENDBRANCH   1   8
BRANCH   1  20
HETATM   20  C   UNL     1      -6.542   3.304 -31.640  1.00  0.00    -0.031 A 
HETATM   21  C   UNL     1      -7.318   2.735 -30.612  1.00  0.00     0.009 A 
HETATM   22  C   UNL     1      -8.485   3.353 -30.163  1.00  0.00     0.001 A 
HETATM   23  C   UNL     1      -8.903   4.550 -30.739  1.00  0.00     0.000 A 
HETATM   24  C   UNL     1      -8.154   5.126 -31.761  1.00  0.00     0.001 A 
HETATM   25  C   UNL     1      -6.981   4.510 -32.209  1.00  0.00     0.009 A 
ENDBRANCH   1  20
TORSDOF 5
ENDMDL
MODEL 5
REMARK VINA RESULT:      -7.1      2.818      5.942
REMARK  5 active torsions:
REMARK  status: ('A' for Active; 'I' for Inactive)
REMARK    1  A    between atoms: C_2  and  C_3 
REMARK       I    between atoms: C_3  and  N_4 
REMARK    2  A    between atoms: N_4  and  C_5 
REMARK    3  A    between atoms: C_5  and  C_6 
REMARK    4  A    between atoms: C_5  and  C_17 
REMARK    5  A    between atoms: C_7  and  O_8 
ROOT
HETATM    1  C   UNL     1      -6.442   2.072 -32.135  1.00  0.00     0.154 C 
ENDROOT
BRANCH   1   2
HETATM    2  N   UNL     1      -7.559   3.004 -32.062  1.00  0.00    -0.348 N 
HETATM    3  C   UNL     1      -8.052   3.426 -30.852  1.00  0.00     0.218 C 
HETATM    4  O   UNL     1      -7.600   3.034 -29.778  1.00  0.00    -0.274 OA
HETATM    5  H   UNL     1      -7.703   3.608 -32.857  1.00  0.00     0.163 HD
BRANCH   3   6
HETATM    6  C   UNL     1      -9.138   4.480 -30.926  1.00  0.00     0.098 C 
HETATM    7  C   UNL     1     -10.525   3.959 -30.583  1.00  0.00     0.014 C 
ENDBRANCH   3   6
ENDBRANCH   1   2
BRANCH   1   8
HETATM    8  C   UNL     1      -5.144   2.857 -32.285  1.00  0.00     0.005 A 
HETATM    9  C   UNL     1      -4.994   3.845 -33.280  1.00  0.00     0.103 A 
HETATM   10  C   UNL     1      -3.815   4.595 -33.443  1.00  0.00     0.100 A 
HETATM   11  C   UNL     1      -2.740   4.307 -32.575  1.00  0.00    -0.004 A 
HETATM   12  N   UNL     1      -3.699   5.546 -34.400  1.00  0.00    -0.257 NA
HETATM   13  C   UNL     1      -2.860   3.309 -31.595  1.00  0.00     0.014 A 
HETATM   14  C   UNL     1      -1.550   5.035 -32.714  1.00  0.00     0.015 A 
HETATM   15  C   UNL     1      -4.045   2.589 -31.456  1.00  0.00     0.013 A 
HETATM   16  C   UNL     1      -1.447   6.014 -33.694  1.00  0.00     0.020 A 
HETATM   17  C   UNL     1      -2.541   6.230 -34.505  1.00  0.00     0.117 A 
BRANCH   9  18
HETATM   18  O   UNL     1      -6.044   4.109 -34.134  1.00  0.00    -0.358 OA
HETATM   19  H   UNL     1      -6.777   3.487 -33.925  1.00  0.00     0.218 HD
ENDBRANCH   9  18
ENDBRANCH   1   8
BRANCH   1  20
HETATM   20  C   UNL     1      -6.632   0.986 -33.195  1.00  0.00    -0.031 A 
HETATM   21  C   UNL     1      -5.824  -0.165 -33.122  1.00  0.00     0.009 A 
HETATM   22  C   UNL     1      -5.943  -1.190 -34.061  1.00  0.00     0.001 A 
HETATM   23  C   UNL     1      -6.869  -1.081 -35.094  1.00  0.00     0.000 A 
HETATM   24  C   UNL     1      -7.674   0.051 -35.188  1.00  0.00     0.001 A 
HETATM   25  C   UNL     1      -7.559   1.078 -34.246  1.00  0.00     0.009 A 
ENDBRANCH   1  20
TORSDOF 5
ENDMDL
MODEL 6
REMARK VINA RESULT:      -7.1      2.769      5.261
REMARK  5 active torsions:
REMARK  status: ('A' for Active; 'I' for Inactive)
REMARK    1  A    between atoms: C_2  and  C_3 
REMARK       I    between atoms: C_3  and  N_4 
REMARK    2  A    between atoms: N_4  and  C_5 
REMARK    3  A    between atoms: C_5  and  C_6 
REMARK    4  A    between atoms: C_5  and  C_17 
REMARK    5  A    between atoms: C_7  and  O_8 
ROOT
HETATM    1  C   UNL     1      -4.818   3.190 -32.442  1.00  0.00     0.154 C 
ENDROOT
BRANCH   1   2
HETATM    2  N   UNL     1      -5.452   3.310 -31.136  1.00  0.00    -0.348 N 
HETATM    3  C   UNL     1      -6.732   3.791 -31.012  1.00  0.00     0.218 C 
HETATM    4  O   UNL     1      -7.399   4.159 -31.977  1.00  0.00    -0.274 OA
HETATM    5  H   UNL     1      -5.112   2.704 -30.405  1.00  0.00     0.163 HD
BRANCH   3   6
HETATM    6  C   UNL     1      -7.305   3.755 -29.610  1.00  0.00     0.098 C 
HETATM    7  C   UNL     1      -7.355   5.114 -28.931  1.00  0.00     0.014 C 
ENDBRANCH   3   6
ENDBRANCH   1   2
BRANCH   1   8
HETATM    8  C   UNL     1      -4.725   1.717 -32.821  1.00  0.00     0.005 A 
HETATM    9  C   UNL     1      -5.804   1.046 -33.433  1.00  0.00     0.103 A 
HETATM   10  C   UNL     1      -5.751  -0.309 -33.805  1.00  0.00     0.100 A 
HETATM   11  C   UNL     1      -4.563  -1.013 -33.517  1.00  0.00    -0.004 A 
HETATM   12  N   UNL     1      -6.797  -0.928 -34.403  1.00  0.00    -0.257 NA
HETATM   13  C   UNL     1      -3.487  -0.372 -32.884  1.00  0.00     0.014 A 
HETATM   14  C   UNL     1      -4.481  -2.367 -33.873  1.00  0.00     0.015 A 
HETATM   15  C   UNL     1      -3.570   0.975 -32.535  1.00  0.00     0.013 A 
HETATM   16  C   UNL     1      -5.557  -2.988 -34.492  1.00  0.00     0.020 A 
HETATM   17  C   UNL     1      -6.684  -2.231 -34.734  1.00  0.00     0.117 A 
BRANCH   9  18
HETATM   18  O   UNL     1      -6.967   1.739 -33.697  1.00  0.00    -0.358 OA
HETATM   19  H   UNL     1      -7.624   1.516 -33.001  1.00  0.00     0.218 HD
ENDBRANCH   9  18
ENDBRANCH   1   8
BRANCH   1  20
HETATM   20  C   UNL     1      -3.485   3.935 -32.534  1.00  0.00    -0.031 A 
HETATM   21  C   UNL     1      -2.778   4.187 -31.343  1.00  0.00     0.009 A 
HETATM   22  C   UNL     1      -1.559   4.867 -31.357  1.00  0.00     0.001 A 
HETATM   23  C   UNL     1      -1.027   5.313 -32.563  1.00  0.00     0.000 A 
HETATM   24  C   UNL     1      -1.713   5.080 -33.752  1.00  0.00     0.001 A 
HETATM   25  C   UNL     1      -2.932   4.395 -33.741  1.00  0.00     0.009 A 
ENDBRANCH   1  20
TORSDOF 5
ENDMDL
MODEL 7
REMARK VINA RESULT:      -7.0      2.657      6.022
REMARK  5 active torsions:
REMARK  status: ('A' for Active; 'I' for Inactive)
REMARK    1  A    between atoms: C_2  and  C_3 
REMARK       I    between atoms: C_3  and  N_4 
REMARK    2  A    between atoms: N_4  and  C_5 
REMARK    3  A    between atoms: C_5  and  C_6 
REMARK    4  A    between atoms: C_5  and  C_17 
REMARK    5  A    between atoms: C_7  and  O_8 
ROOT
HETATM    1  C   UNL     1      -6.537   2.277 -33.342  1.00  0.00     0.154 C 
ENDROOT
BRANCH   1   2
HETATM    2  N   UNL     1      -6.315   0.839 -33.406  1.00  0.00    -0.348 N 
HETATM    3  C   UNL     1      -6.624   0.124 -34.538  1.00  0.00     0.218 C 
HETATM    4  O   UNL     1      -7.114   0.645 -35.539  1.00  0.00    -0.274 OA
HETATM    5  H   UNL     1      -5.609   0.457 -32.796  1.00  0.00     0.163 HD
BRANCH   3   6
HETATM    6  C   UNL     1      -6.236  -1.340 -34.506  1.00  0.00     0.098 C 
HETATM    7  C   UNL     1      -5.053  -1.644 -33.602  1.00  0.00     0.014 C 
ENDBRANCH   3   6
ENDBRANCH   1   2
BRANCH   1   8
HETATM    8  C   UNL     1      -5.201   2.981 -33.145  1.00  0.00     0.005 A 
HETATM    9  C   UNL     1      -4.929   4.224 -33.753  1.00  0.00     0.103 A 
HETATM   10  C   UNL     1      -3.711   4.908 -33.587  1.00  0.00     0.100 A 
HETATM   11  C   UNL     1      -2.724   4.288 -32.792  1.00  0.00    -0.004 A 
HETATM   12  N   UNL     1      -3.478   6.107 -34.173  1.00  0.00    -0.257 NA
HETATM   13  C   UNL     1      -2.964   3.038 -32.200  1.00  0.00     0.014 A 
HETATM   14  C   UNL     1      -1.498   4.943 -32.610  1.00  0.00     0.015 A 
HETATM   15  C   UNL     1      -4.185   2.391 -32.379  1.00  0.00     0.013 A 
HETATM   16  C   UNL     1      -1.274   6.175 -33.209  1.00  0.00     0.020 A 
HETATM   17  C   UNL     1      -2.288   6.712 -33.975  1.00  0.00     0.117 A 
BRANCH   9  18
HETATM   18  O   UNL     1      -5.894   4.817 -34.541  1.00  0.00    -0.358 OA
HETATM   19  H   UNL     1      -5.944   5.770 -34.305  1.00  0.00     0.218 HD
ENDBRANCH   9  18
ENDBRANCH   1   8
BRANCH   1  20
HETATM   20  C   UNL     1      -7.601   2.676 -32.317  1.00  0.00    -0.031 A 
HETATM   21  C   UNL     1      -8.950   2.666 -32.719  1.00  0.00     0.009 A 
HETATM   22  C   UNL     1      -9.969   3.025 -31.835  1.00  0.00     0.001 A 
HETATM   23  C   UNL     1      -9.656   3.407 -30.534  1.00  0.00     0.000 A 
HETATM   24  C   UNL     1      -8.328   3.430 -30.119  1.00  0.00     0.001 A 
HETATM   25  C   UNL     1      -7.306   3.066 -31.001  1.00  0.00     0.009 A 
ENDBRANCH   1  20
TORSDOF 5
ENDMDL
MODEL 8
REMARK VINA RESULT:      -7.0      2.400      6.686
REMARK  5 active torsions:
REMARK  status: ('A' for Active; 'I' for Inactive)
REMARK    1  A    between atoms: C_2  and  C_3 
REMARK       I    between atoms: C_3  and  N_4 
REMARK    2  A    between atoms: N_4  and  C_5 
REMARK    3  A    between atoms: C_5  and  C_6 
REMARK    4  A    between atoms: C_5  and  C_17 
REMARK    5  A    between atoms: C_7  and  O_8 
ROOT
HETATM    1  C   UNL     1      -7.709   1.729 -33.207  1.00  0.00     0.154 C 
ENDROOT
BRANCH   1   2
HETATM    2  N   UNL     1      -7.043   0.734 -34.035  1.00  0.00    -0.348 N 
HETATM    3  C   UNL     1      -6.535  -0.419 -33.486  1.00  0.00     0.218 C 
HETATM    4  O   UNL     1      -6.595  -0.663 -32.283  1.00  0.00    -0.274 OA
HETATM    5  H   UNL     1      -7.291   0.711 -35.012  1.00  0.00     0.163 HD
BRANCH   3   6
HETATM    6  C   UNL     1      -5.970  -1.415 -34.478  1.00  0.00     0.098 C 
HETATM    7  C   UNL     1      -6.779  -2.697 -34.590  1.00  0.00     0.014 C 
ENDBRANCH   3   6
ENDBRANCH   1   2
BRANCH   1   8
HETATM    8  C   UNL     1      -9.169   1.837 -33.630  1.00  0.00     0.005 A 
HETATM    9  C   UNL     1     -10.101   0.826 -33.320  1.00  0.00     0.103 A 
HETATM   10  C   UNL     1     -11.458   0.896 -33.686  1.00  0.00     0.100 A 
HETATM   11  C   UNL     1     -11.872   2.028 -34.419  1.00  0.00    -0.004 A 
HETATM   12  N   UNL     1     -12.336  -0.084 -33.367  1.00  0.00    -0.257 NA
HETATM   13  C   UNL     1     -10.955   3.034 -34.761  1.00  0.00     0.014 A 
HETATM   14  C   UNL     1     -13.217   2.126 -34.802  1.00  0.00     0.015 A 
HETATM   15  C   UNL     1      -9.619   2.937 -34.376  1.00  0.00     0.013 A 
HETATM   16  C   UNL     1     -14.110   1.118 -34.461  1.00  0.00     0.020 A 
HETATM   17  C   UNL     1     -13.624   0.042 -33.749  1.00  0.00     0.117 A 
BRANCH   9  18
HETATM   18  O   UNL     1      -9.684  -0.285 -32.617  1.00  0.00    -0.358 OA
HETATM   19  H   UNL     1      -9.217  -0.887 -33.238  1.00  0.00     0.218 HD
ENDBRANCH   9  18
ENDBRANCH   1   8
BRANCH   1  20
HETATM   20  C   UNL     1      -6.976   3.072 -33.172  1.00  0.00    -0.031 A 
HETATM   21  C   UNL     1      -7.175   3.912 -32.060  1.00  0.00     0.009 A 
HETATM   22  C   UNL     1      -6.541   5.151 -31.970  1.00  0.00     0.001 A 
HETATM   23  C   UNL     1      -5.701   5.577 -32.994  1.00  0.00     0.000 A 
HETATM   24  C   UNL     1      -5.496   4.765 -34.106  1.00  0.00     0.001 A 
HETATM   25  C   UNL     1      -6.126   3.521 -34.196  1.00  0.00     0.009 A 
ENDBRANCH   1  20
TORSDOF 5
ENDMDL
MODEL 9
REMARK VINA RESULT:      -6.9      3.240      5.470
REMARK  5 active torsions:
REMARK  status: ('A' for Active; 'I' for Inactive)
REMARK    1  A    between atoms: C_2  and  C_3 
REMARK       I    between atoms: C_3  and  N_4 
REMARK    2  A    between atoms: N_4  and  C_5 
REMARK    3  A    between atoms: C_5  and  C_6 
REMARK    4  A    between atoms: C_5  and  C_17 
REMARK    5  A    between atoms: C_7  and  O_8 
ROOT
HETATM    1  C   UNL     1     -10.346   1.898 -33.938  1.00  0.00     0.154 C 
ENDROOT
BRANCH   1   2
HETATM    2  N   UNL     1     -11.544   1.192 -33.507  1.00  0.00    -0.348 N 
HETATM    3  C   UNL     1     -12.596   0.991 -34.368  1.00  0.00     0.218 C 
HETATM    4  O   UNL     1     -12.593   1.403 -35.526  1.00  0.00    -0.274 OA
HETATM    5  H   UNL     1     -11.444   0.546 -32.740  1.00  0.00     0.163 HD
BRANCH   3   6
HETATM    6  C   UNL     1     -13.728   0.145 -33.821  1.00  0.00     0.098 C 
HETATM    7  C   UNL     1     -15.109   0.619 -34.246  1.00  0.00     0.014 C 
ENDBRANCH   3   6
ENDBRANCH   1   2
BRANCH   1   8
HETATM    8  C   UNL     1      -9.122   1.228 -33.324  1.00  0.00     0.005 A 
HETATM    9  C   UNL     1      -8.176   0.552 -34.123  1.00  0.00     0.103 A 
HETATM   10  C   UNL     1      -7.031  -0.069 -33.593  1.00  0.00     0.100 A 
HETATM   11  C   UNL     1      -6.859  -0.023 -32.193  1.00  0.00    -0.004 A 
HETATM   12  N   UNL     1      -6.131  -0.703 -34.382  1.00  0.00    -0.257 NA
HETATM   13  C   UNL     1      -7.802   0.622 -31.377  1.00  0.00     0.014 A 
HETATM   14  C   UNL     1      -5.729  -0.636 -31.634  1.00  0.00     0.015 A 
HETATM   15  C   UNL     1      -8.923   1.234 -31.936  1.00  0.00     0.013 A 
HETATM   16  C   UNL     1      -4.809  -1.275 -32.455  1.00  0.00     0.020 A 
HETATM   17  C   UNL     1      -5.054  -1.281 -33.812  1.00  0.00     0.117 A 
BRANCH   9  18
HETATM   18  O   UNL     1      -8.361   0.498 -35.489  1.00  0.00    -0.358 OA
HETATM   19  H   UNL     1      -7.479   0.544 -35.922  1.00  0.00     0.218 HD
ENDBRANCH   9  18
ENDBRANCH   1   8
BRANCH   1  20
HETATM   20  C   UNL     1     -10.412   3.406 -33.689  1.00  0.00    -0.031 A 
HETATM   21  C   UNL     1     -11.274   3.877 -32.680  1.00  0.00     0.009 A 
HETATM   22  C   UNL     1     -11.386   5.241 -32.406  1.00  0.00     0.001 A 
HETATM   23  C   UNL     1     -10.642   6.160 -33.140  1.00  0.00     0.000 A 
HETATM   24  C   UNL     1      -9.789   5.715 -34.146  1.00  0.00     0.001 A 
HETATM   25  C   UNL     1      -9.672   4.349 -34.420  1.00  0.00     0.009 A 
ENDBRANCH   1  20
TORSDOF 5
ENDMDL
MODEL 10
REMARK VINA RESULT:      -6.8      2.982      5.719
REMARK  5 active torsions:
REMARK  status: ('A' for Active; 'I' for Inactive)
REMARK    1  A    between atoms: C_2  and  C_3 
REMARK       I    between atoms: C_3  and  N_4 
REMARK    2  A    between atoms: N_4  and  C_5 
REMARK    3  A    between atoms: C_5  and  C_6 
REMARK    4  A    between atoms: C_5  and  C_17 
REMARK    5  A    between atoms: C_7  and  O_8 
ROOT
HETATM    1  C   UNL     1      -4.461   4.639 -31.959  1.00  0.00     0.154 C 
ENDROOT
BRANCH   1   2
HETATM    2  N   UNL     1      -4.471   4.853 -30.519  1.00  0.00    -0.348 N 
HETATM    3  C   UNL     1      -5.579   5.361 -29.886  1.00  0.00     0.218 C 
HETATM    4  O   UNL     1      -6.602   5.677 -30.490  1.00  0.00    -0.274 OA
HETATM    5  H   UNL     1      -3.840   4.291 -29.969  1.00  0.00     0.163 HD
BRANCH   3   6
HETATM    6  C   UNL     1      -5.490   5.425 -28.375  1.00  0.00     0.098 C 
HETATM    7  C   UNL     1      -5.737   6.812 -27.802  1.00  0.00     0.014 C 
ENDBRANCH   3   6
ENDBRANCH   1   2
BRANCH   1   8
HETATM    8  C   UNL     1      -4.553   3.145 -32.244  1.00  0.00     0.005 A 
HETATM    9  C   UNL     1      -3.592   2.241 -31.746  1.00  0.00     0.103 A 
HETATM   10  C   UNL     1      -3.650   0.855 -31.980  1.00  0.00     0.100 A 
HETATM   11  C   UNL     1      -4.714   0.378 -32.776  1.00  0.00    -0.004 A 
HETATM   12  N   UNL     1      -2.721   0.006 -31.481  1.00  0.00    -0.257 NA
HETATM   13  C   UNL     1      -5.666   1.264 -33.304  1.00  0.00     0.014 A 
HETATM   14  C   UNL     1      -4.797  -0.998 -33.031  1.00  0.00     0.015 A 
HETATM   15  C   UNL     1      -5.582   2.631 -33.046  1.00  0.00     0.013 A 
HETATM   16  C   UNL     1      -3.843  -1.860 -32.506  1.00  0.00     0.020 A 
HETATM   17  C   UNL     1      -2.833  -1.313 -31.744  1.00  0.00     0.117 A 
BRANCH   9  18
HETATM   18  O   UNL     1      -2.548   2.718 -30.982  1.00  0.00    -0.358 OA
HETATM   19  H   UNL     1      -2.451   2.139 -30.193  1.00  0.00     0.218 HD
ENDBRANCH   9  18
ENDBRANCH   1   8
BRANCH   1  20
HETATM   20  C   UNL     1      -3.290   5.329 -32.662  1.00  0.00    -0.031 A 
HETATM   21  C   UNL     1      -2.696   6.440 -32.033  1.00  0.00     0.009 A 
HETATM   22  C   UNL     1      -1.629   7.118 -32.624  1.00  0.00     0.001 A 
HETATM   23  C   UNL     1      -1.140   6.702 -33.858  1.00  0.00     0.000 A 
HETATM   24  C   UNL     1      -1.717   5.610 -34.501  1.00  0.00     0.001 A 
HETATM   25  C   UNL     1      -2.784   4.926 -33.909  1.00  0.00     0.009 A 
ENDBRANCH   1  20
TORSDOF 5
ENDMDL
