MODEL 1
REMARK VINA RESULT:      -8.0      0.000      0.000
REMARK  8 active torsions:
REMARK  status: ('A' for Active; 'I' for Inactive)
REMARK    1  A    between atoms: C_3  and  N_4 
REMARK       I    between atoms: N_4  and  C_5 
REMARK    2  A    between atoms: C_5  and  C_6 
REMARK    3  A    between atoms: C_6  and  C_7 
REMARK    4  A    between atoms: C_7  and  C_8 
REMARK    5  A    between atoms: C_8  and  O_9 
REMARK    6  A    between atoms: O_9  and  C_10 
REMARK    7  A    between atoms: C_18  and  C_19 
REMARK    8  A    between atoms: C_22  and  O_23 
ROOT
HETATM    1  N   UNL     1      -3.308   2.712 -32.455  1.00  0.00    -0.327 N 
HETATM    2  C   UNL     1      -4.126   2.316 -31.406  1.00  0.00     0.222 C 
HETATM    3  O   UNL     1      -4.719   3.054 -30.629  1.00  0.00    -0.273 OA
HETATM    4  H   UNL     1      -3.221   2.040 -33.205  1.00  0.00     0.169 HD
ENDROOT
BRANCH   1   5
HETATM    5  C   UNL     1      -2.943   4.041 -32.777  1.00  0.00     0.041 A 
HETATM    6  C   UNL     1      -3.606   4.866 -33.694  1.00  0.00    -0.033 A 
HETATM    7  C   UNL     1      -4.906   4.530 -34.371  1.00  0.00     0.050 C 
HETATM    8  C   UNL     1      -3.053   6.126 -33.979  1.00  0.00     0.046 A 
HETATM    9  C   UNL     1      -1.912   6.587 -33.324  1.00  0.00     0.072 A 
HETATM   10  C   UNL     1      -1.292   5.831 -32.321  1.00  0.00    -0.019 A 
HETATM   11  C   UNL     1      -1.837   4.556 -32.065  1.00  0.00     0.040 A 
BRANCH   9  12
HETATM   12  O   UNL     1      -1.473   7.818 -33.723  1.00  0.00    -0.360 OA
HETATM   13  H   UNL     1      -1.759   7.984 -34.633  1.00  0.00     0.217 HD
ENDBRANCH   9  12
BRANCH  10  14
HETATM   14  C   UNL     1      -0.097   6.366 -31.538  1.00  0.00     0.013 C 
HETATM   15  C   UNL     1      -0.559   7.298 -30.409  1.00  0.00     0.015 C 
HETATM   16  C   UNL     1       0.841   5.302 -30.946  1.00  0.00     0.015 C 
ENDBRANCH  10  14
ENDBRANCH   1   5
BRANCH   2  17
HETATM   17  C   UNL     1      -4.292   0.805 -31.365  1.00  0.00     0.105 C 
BRANCH  17  18
HETATM   18  C   UNL     1      -3.351   0.059 -32.309  1.00  0.00     0.036 C 
BRANCH  18  19
HETATM   19  C   UNL     1      -4.075  -0.698 -33.423  1.00  0.00     0.176 C 
BRANCH  19  20
HETATM   20  O   UNL     1      -3.768  -2.088 -33.266  1.00  0.00    -0.350 OA
BRANCH  20  21
HETATM   21  C   UNL     1      -4.602  -2.977 -33.878  1.00  0.00     0.086 A 
HETATM   22  C   UNL     1      -4.353  -4.319 -34.144  1.00  0.00     0.152 A 
HETATM   23  N   UNL     1      -5.236  -5.153 -34.749  1.00  0.00    -0.270 NA
HETATM   24  C   UNL     1      -6.420  -4.619 -35.116  1.00  0.00     0.116 A 
HETATM   25  C   UNL     1      -6.764  -3.294 -34.903  1.00  0.00     0.022 A 
HETATM   26  C   UNL     1      -5.837  -2.467 -34.273  1.00  0.00     0.039 A 
ENDBRANCH  20  21
ENDBRANCH  19  20
ENDBRANCH  18  19
ENDBRANCH  17  18
ENDBRANCH   2  17
TORSDOF 8
ENDMDL
MODEL 2
REMARK VINA RESULT:      -7.8      0.888      1.070
REMARK  8 active torsions:
REMARK  status: ('A' for Active; 'I' for Inactive)
REMARK    1  A    between atoms: C_3  and  N_4 
REMARK       I    between atoms: N_4  and  C_5 
REMARK    2  A    between atoms: C_5  and  C_6 
REMARK    3  A    between atoms: C_6  and  C_7 
REMARK    4  A    between atoms: C_7  and  C_8 
REMARK    5  A    between atoms: C_8  and  O_9 
REMARK    6  A    between atoms: O_9  and  C_10 
REMARK    7  A    between atoms: C_18  and  C_19 
REMARK    8  A    between atoms: C_22  and  O_23 
ROOT
HETATM    1  N   UNL     1      -3.328   2.720 -32.422  1.00  0.00    -0.327 N 
HETATM    2  C   UNL     1      -4.231   2.345 -31.437  1.00  0.00     0.222 C 
HETATM    3  O   UNL     1      -4.905   3.097 -30.745  1.00  0.00    -0.273 OA
HETATM    4  H   UNL     1      -3.161   2.023 -33.136  1.00  0.00     0.169 HD
ENDROOT
BRANCH   1   5
HETATM    5  C   UNL     1      -2.958   4.044 -32.759  1.00  0.00     0.041 A 
HETATM    6  C   UNL     1      -3.616   4.858 -33.690  1.00  0.00    -0.033 A 
HETATM    7  C   UNL     1      -4.912   4.516 -34.369  1.00  0.00     0.050 C 
HETATM    8  C   UNL     1      -3.058   6.113 -33.989  1.00  0.00     0.046 A 
HETATM    9  C   UNL     1      -1.919   6.580 -33.334  1.00  0.00     0.072 A 
HETATM   10  C   UNL     1      -1.307   5.837 -32.318  1.00  0.00    -0.019 A 
HETATM   11  C   UNL     1      -1.855   4.566 -32.048  1.00  0.00     0.040 A 
BRANCH   9  12
HETATM   12  O   UNL     1      -1.477   7.805 -33.747  1.00  0.00    -0.360 OA
HETATM   13  H   UNL     1      -2.124   8.483 -33.504  1.00  0.00     0.217 HD
ENDBRANCH   9  12
BRANCH  10  14
HETATM   14  C   UNL     1      -0.115   6.379 -31.536  1.00  0.00     0.013 C 
HETATM   15  C   UNL     1      -0.581   7.321 -30.417  1.00  0.00     0.015 C 
HETATM   16  C   UNL     1       0.822   5.322 -30.931  1.00  0.00     0.015 C 
ENDBRANCH  10  14
ENDBRANCH   1   5
BRANCH   2  17
HETATM   17  C   UNL     1      -4.373   0.833 -31.354  1.00  0.00     0.105 C 
BRANCH  17  18
HETATM   18  C   UNL     1      -5.819   0.359 -31.221  1.00  0.00     0.036 C 
BRANCH  18  19
HETATM   19  C   UNL     1      -6.435  -0.102 -32.542  1.00  0.00     0.176 C 
BRANCH  19  20
HETATM   20  O   UNL     1      -5.361  -0.515 -33.395  1.00  0.00    -0.350 OA
BRANCH  20  21
HETATM   21  C   UNL     1      -5.402  -1.796 -33.862  1.00  0.00     0.086 A 
HETATM   22  C   UNL     1      -4.349  -2.701 -33.926  1.00  0.00     0.152 A 
HETATM   23  N   UNL     1      -4.462  -3.970 -34.394  1.00  0.00    -0.270 NA
HETATM   24  C   UNL     1      -5.683  -4.350 -34.827  1.00  0.00     0.116 A 
HETATM   25  C   UNL     1      -6.794  -3.523 -34.810  1.00  0.00     0.022 A 
HETATM   26  C   UNL     1      -6.644  -2.229 -34.317  1.00  0.00     0.039 A 
ENDBRANCH  20  21
ENDBRANCH  19  20
ENDBRANCH  18  19
ENDBRANCH  17  18
ENDBRANCH   2  17
TORSDOF 8
ENDMDL
MODEL 3
REMARK VINA RESULT:      -7.6      2.750      8.087
REMARK  8 active torsions:
REMARK  status: ('A' for Active; 'I' for Inactive)
REMARK    1  A    between atoms: C_3  and  N_4 
REMARK       I    between atoms: N_4  and  C_5 
REMARK    2  A    between atoms: C_5  and  C_6 
REMARK    3  A    between atoms: C_6  and  C_7 
REMARK    4  A    between atoms: C_7  and  C_8 
REMARK    5  A    between atoms: C_8  and  O_9 
REMARK    6  A    between atoms: O_9  and  C_10 
REMARK    7  A    between atoms: C_18  and  C_19 
REMARK    8  A    between atoms: C_22  and  O_23 
ROOT
HETATM    1  N   UNL     1      -6.093   0.701 -32.648  1.00  0.00    -0.327 N 
HETATM    2  C   UNL     1      -6.689   0.795 -31.399  1.00  0.00     0.222 C 
HETATM    3  O   UNL     1      -7.153  -0.130 -30.744  1.00  0.00    -0.273 OA
HETATM    4  H   UNL     1      -5.440   1.442 -32.866  1.00  0.00     0.169 HD
ENDROOT
BRANCH   1   5
HETATM    5  C   UNL     1      -5.976  -0.470 -33.435  1.00  0.00     0.041 A 
HETATM    6  C   UNL     1      -6.790  -0.802 -34.525  1.00  0.00    -0.033 A 
HETATM    7  C   UNL     1      -7.823   0.104 -35.134  1.00  0.00     0.050 C 
HETATM    8  C   UNL     1      -6.610  -2.054 -35.135  1.00  0.00     0.046 A 
HETATM    9  C   UNL     1      -5.604  -2.928 -34.724  1.00  0.00     0.072 A 
HETATM   10  C   UNL     1      -4.702  -2.576 -33.713  1.00  0.00    -0.019 A 
HETATM   11  C   UNL     1      -4.911  -1.331 -33.086  1.00  0.00     0.040 A 
BRANCH   9  12
HETATM   12  O   UNL     1      -5.565  -4.120 -35.391  1.00  0.00    -0.360 OA
HETATM   13  H   UNL     1      -4.676  -4.266 -35.744  1.00  0.00     0.217 HD
ENDBRANCH   9  12
BRANCH  10  14
HETATM   14  C   UNL     1      -3.545  -3.489 -33.318  1.00  0.00     0.013 C 
HETATM   15  C   UNL     1      -3.049  -3.158 -31.904  1.00  0.00     0.015 C 
HETATM   16  C   UNL     1      -3.828  -4.997 -33.400  1.00  0.00     0.015 C 
ENDBRANCH  10  14
ENDBRANCH   1   5
BRANCH   2  17
HETATM   17  C   UNL     1      -6.634   2.216 -30.858  1.00  0.00     0.105 C 
BRANCH  17  18
HETATM   18  C   UNL     1      -5.332   2.543 -30.129  1.00  0.00     0.036 C 
BRANCH  18  19
HETATM   19  C   UNL     1      -4.388   3.435 -30.935  1.00  0.00     0.176 C 
BRANCH  19  20
HETATM   20  O   UNL     1      -4.986   3.641 -32.219  1.00  0.00    -0.350 OA
BRANCH  20  21
HETATM   21  C   UNL     1      -4.204   4.213 -33.180  1.00  0.00     0.086 A 
HETATM   22  C   UNL     1      -4.628   4.870 -34.329  1.00  0.00     0.152 A 
HETATM   23  N   UNL     1      -3.792   5.428 -35.241  1.00  0.00    -0.270 NA
HETATM   24  C   UNL     1      -2.469   5.317 -34.998  1.00  0.00     0.116 A 
HETATM   25  C   UNL     1      -1.944   4.679 -33.886  1.00  0.00     0.022 A 
HETATM   26  C   UNL     1      -2.831   4.122 -32.967  1.00  0.00     0.039 A 
ENDBRANCH  20  21
ENDBRANCH  19  20
ENDBRANCH  18  19
ENDBRANCH  17  18
ENDBRANCH   2  17
TORSDOF 8
ENDMDL
MODEL 4
REMARK VINA RESULT:      -7.5      2.348      8.653
REMARK  8 active torsions:
REMARK  status: ('A' for Active; 'I' for Inactive)
REMARK    1  A    between atoms: C_3  and  N_4 
REMARK       I    between atoms: N_4  and  C_5 
REMARK    2  A    between atoms: C_5  and  C_6 
REMARK    3  A    between atoms: C_6  and  C_7 
REMARK    4  A    between atoms: C_7  and  C_8 
REMARK    5  A    between atoms: C_8  and  O_9 
REMARK    6  A    between atoms: O_9  and  C_10 
REMARK    7  A    between atoms: C_18  and  C_19 
REMARK    8  A    between atoms: C_22  and  O_23 
ROOT
HETATM    1  N   UNL     1      -5.379   0.782 -32.978  1.00  0.00    -0.327 N 
HETATM    2  C   UNL     1      -6.119   1.219 -31.889  1.00  0.00     0.222 C 
HETATM    3  O   UNL     1      -6.965   0.575 -31.280  1.00  0.00    -0.273 OA
HETATM    4  H   UNL     1      -4.493   1.253 -33.108  1.00  0.00     0.169 HD
ENDROOT
BRANCH   1   5
HETATM    5  C   UNL     1      -5.514  -0.462 -33.639  1.00  0.00     0.041 A 
HETATM    6  C   UNL     1      -6.476  -0.765 -34.611  1.00  0.00    -0.033 A 
HETATM    7  C   UNL     1      -7.424   0.228 -35.223  1.00  0.00     0.050 C 
HETATM    8  C   UNL     1      -6.543  -2.083 -35.094  1.00  0.00     0.046 A 
HETATM    9  C   UNL     1      -5.638  -3.059 -34.679  1.00  0.00     0.072 A 
HETATM   10  C   UNL     1      -4.595  -2.757 -33.795  1.00  0.00    -0.019 A 
HETATM   11  C   UNL     1      -4.556  -1.441 -33.292  1.00  0.00     0.040 A 
BRANCH   9  12
HETATM   12  O   UNL     1      -5.842  -4.301 -35.213  1.00  0.00    -0.360 OA
HETATM   13  H   UNL     1      -6.672  -4.667 -34.874  1.00  0.00     0.217 HD
ENDBRANCH   9  12
BRANCH  10  14
HETATM   14  C   UNL     1      -3.549  -3.797 -33.405  1.00  0.00     0.013 C 
HETATM   15  C   UNL     1      -3.013  -3.526 -31.993  1.00  0.00     0.015 C 
HETATM   16  C   UNL     1      -4.003  -5.262 -33.487  1.00  0.00     0.015 C 
ENDBRANCH  10  14
ENDBRANCH   1   5
BRANCH   2  17
HETATM   17  C   UNL     1      -5.700   2.613 -31.448  1.00  0.00     0.105 C 
BRANCH  17  18
HETATM   18  C   UNL     1      -4.645   3.250 -32.352  1.00  0.00     0.036 C 
BRANCH  18  19
HETATM   19  C   UNL     1      -3.235   3.218 -31.763  1.00  0.00     0.176 C 
BRANCH  19  20
HETATM   20  O   UNL     1      -2.318   3.475 -32.832  1.00  0.00    -0.350 OA
BRANCH  20  21
HETATM   21  C   UNL     1      -1.928   4.769 -33.013  1.00  0.00     0.086 A 
HETATM   22  C   UNL     1      -2.089   5.545 -34.155  1.00  0.00     0.152 A 
HETATM   23  N   UNL     1      -1.686   6.837 -34.263  1.00  0.00    -0.270 NA
HETATM   24  C   UNL     1      -1.084   7.375 -33.181  1.00  0.00     0.116 A 
HETATM   25  C   UNL     1      -0.871   6.687 -31.999  1.00  0.00     0.022 A 
HETATM   26  C   UNL     1      -1.303   5.365 -31.920  1.00  0.00     0.039 A 
ENDBRANCH  20  21
ENDBRANCH  19  20
ENDBRANCH  18  19
ENDBRANCH  17  18
ENDBRANCH   2  17
TORSDOF 8
ENDMDL
MODEL 5
REMARK VINA RESULT:      -7.4      3.029      8.161
REMARK  8 active torsions:
REMARK  status: ('A' for Active; 'I' for Inactive)
REMARK    1  A    between atoms: C_3  and  N_4 
REMARK       I    between atoms: N_4  and  C_5 
REMARK    2  A    between atoms: C_5  and  C_6 
REMARK    3  A    between atoms: C_6  and  C_7 
REMARK    4  A    between atoms: C_7  and  C_8 
REMARK    5  A    between atoms: C_8  and  O_9 
REMARK    6  A    between atoms: O_9  and  C_10 
REMARK    7  A    between atoms: C_18  and  C_19 
REMARK    8  A    between atoms: C_22  and  O_23 
ROOT
HETATM    1  N   UNL     1      -3.901   4.098 -33.237  1.00  0.00    -0.327 N 
HETATM    2  C   UNL     1      -4.502   4.809 -34.266  1.00  0.00     0.222 C 
HETATM    3  O   UNL     1      -5.700   5.026 -34.396  1.00  0.00    -0.273 OA
HETATM    4  H   UNL     1      -2.933   4.335 -33.063  1.00  0.00     0.169 HD
ENDROOT
BRANCH   1   5
HETATM    5  C   UNL     1      -4.565   3.426 -32.183  1.00  0.00     0.041 A 
HETATM    6  C   UNL     1      -4.840   3.965 -30.920  1.00  0.00    -0.033 A 
HETATM    7  C   UNL     1      -4.611   5.398 -30.528  1.00  0.00     0.050 C 
HETATM    8  C   UNL     1      -5.414   3.129 -29.949  1.00  0.00     0.046 A 
HETATM    9  C   UNL     1      -5.772   1.812 -30.238  1.00  0.00     0.072 A 
HETATM   10  C   UNL     1      -5.615   1.281 -31.524  1.00  0.00    -0.019 A 
HETATM   11  C   UNL     1      -5.009   2.118 -32.483  1.00  0.00     0.040 A 
BRANCH   9  12
HETATM   12  O   UNL     1      -6.296   1.111 -29.189  1.00  0.00    -0.360 OA
HETATM   13  H   UNL     1      -6.027   1.526 -28.356  1.00  0.00     0.217 HD
ENDBRANCH   9  12
BRANCH  10  14
HETATM   14  C   UNL     1      -6.087  -0.128 -31.872  1.00  0.00     0.013 C 
HETATM   15  C   UNL     1      -7.402  -0.082 -32.661  1.00  0.00     0.015 C 
HETATM   16  C   UNL     1      -5.080  -0.996 -32.642  1.00  0.00     0.015 C 
ENDBRANCH  10  14
ENDBRANCH   1   5
BRANCH   2  17
HETATM   17  C   UNL     1      -3.471   5.393 -35.220  1.00  0.00     0.105 C 
BRANCH  17  18
HETATM   18  C   UNL     1      -2.027   5.141 -34.791  1.00  0.00     0.036 C 
BRANCH  18  19
HETATM   19  C   UNL     1      -1.335   6.378 -34.217  1.00  0.00     0.176 C 
BRANCH  19  20
HETATM   20  O   UNL     1      -1.910   6.632 -32.931  1.00  0.00    -0.350 OA
BRANCH  20  21
HETATM   21  C   UNL     1      -1.174   6.264 -31.843  1.00  0.00     0.086 A 
HETATM   22  C   UNL     1      -0.544   5.044 -31.627  1.00  0.00     0.152 A 
HETATM   23  N   UNL     1       0.186   4.748 -30.521  1.00  0.00    -0.270 NA
HETATM   24  C   UNL     1       0.281   5.712 -29.582  1.00  0.00     0.116 A 
HETATM   25  C   UNL     1      -0.313   6.958 -29.698  1.00  0.00     0.022 A 
HETATM   26  C   UNL     1      -1.049   7.231 -30.849  1.00  0.00     0.039 A 
ENDBRANCH  20  21
ENDBRANCH  19  20
ENDBRANCH  18  19
ENDBRANCH  17  18
ENDBRANCH   2  17
TORSDOF 8
ENDMDL
MODEL 6
REMARK VINA RESULT:      -7.3      2.286      3.767
REMARK  8 active torsions:
REMARK  status: ('A' for Active; 'I' for Inactive)
REMARK    1  A    between atoms: C_3  and  N_4 
REMARK       I    between atoms: N_4  and  C_5 
REMARK    2  A    between atoms: C_5  and  C_6 
REMARK    3  A    between atoms: C_6  and  C_7 
REMARK    4  A    between atoms: C_7  and  C_8 
REMARK    5  A    between atoms: C_8  and  O_9 
REMARK    6  A    between atoms: O_9  and  C_10 
REMARK    7  A    between atoms: C_18  and  C_19 
REMARK    8  A    between atoms: C_22  and  O_23 
ROOT
HETATM    1  N   UNL     1      -6.276   1.581 -33.494  1.00  0.00    -0.327 N 
HETATM    2  C   UNL     1      -7.550   1.517 -32.946  1.00  0.00     0.222 C 
HETATM    3  O   UNL     1      -7.891   1.940 -31.849  1.00  0.00    -0.273 OA
HETATM    4  H   UNL     1      -6.245   1.556 -34.505  1.00  0.00     0.169 HD
ENDROOT
BRANCH   1   5
HETATM    5  C   UNL     1      -5.114   2.079 -32.857  1.00  0.00     0.041 A 
HETATM    6  C   UNL     1      -4.395   1.422 -31.851  1.00  0.00    -0.033 A 
HETATM    7  C   UNL     1      -4.648   0.014 -31.391  1.00  0.00     0.050 C 
HETATM    8  C   UNL     1      -3.323   2.100 -31.247  1.00  0.00     0.046 A 
HETATM    9  C   UNL     1      -2.927   3.368 -31.674  1.00  0.00     0.072 A 
HETATM   10  C   UNL     1      -3.555   4.001 -32.754  1.00  0.00    -0.019 A 
HETATM   11  C   UNL     1      -4.650   3.326 -33.331  1.00  0.00     0.040 A 
BRANCH   9  12
HETATM   12  O   UNL     1      -1.887   3.914 -30.977  1.00  0.00    -0.360 OA
HETATM   13  H   UNL     1      -1.235   3.228 -30.777  1.00  0.00     0.217 HD
ENDBRANCH   9  12
BRANCH  10  14
HETATM   14  C   UNL     1      -3.072   5.347 -33.284  1.00  0.00     0.013 C 
HETATM   15  C   UNL     1      -3.273   5.438 -34.803  1.00  0.00     0.015 C 
HETATM   16  C   UNL     1      -3.702   6.586 -32.629  1.00  0.00     0.015 C 
ENDBRANCH  10  14
ENDBRANCH   1   5
BRANCH   2  17
HETATM   17  C   UNL     1      -8.550   0.917 -33.923  1.00  0.00     0.105 C 
BRANCH  17  18
HETATM   18  C   UNL     1      -7.910   0.023 -34.983  1.00  0.00     0.036 C 
BRANCH  18  19
HETATM   19  C   UNL     1      -7.444  -1.329 -34.442  1.00  0.00     0.176 C 
BRANCH  19  20
HETATM   20  O   UNL     1      -6.205  -1.644 -35.087  1.00  0.00    -0.350 OA
BRANCH  20  21
HETATM   21  C   UNL     1      -5.635  -2.844 -34.777  1.00  0.00     0.086 A 
HETATM   22  C   UNL     1      -6.092  -4.108 -35.131  1.00  0.00     0.152 A 
HETATM   23  N   UNL     1      -5.467  -5.266 -34.798  1.00  0.00    -0.270 NA
HETATM   24  C   UNL     1      -4.337  -5.156 -34.068  1.00  0.00     0.116 A 
HETATM   25  C   UNL     1      -3.801  -3.945 -33.661  1.00  0.00     0.022 A 
HETATM   26  C   UNL     1      -4.465  -2.776 -34.026  1.00  0.00     0.039 A 
ENDBRANCH  20  21
ENDBRANCH  19  20
ENDBRANCH  18  19
ENDBRANCH  17  18
ENDBRANCH   2  17
TORSDOF 8
ENDMDL
MODEL 7
REMARK VINA RESULT:      -7.2      5.650      8.437
REMARK  8 active torsions:
REMARK  status: ('A' for Active; 'I' for Inactive)
REMARK    1  A    between atoms: C_3  and  N_4 
REMARK       I    between atoms: N_4  and  C_5 
REMARK    2  A    between atoms: C_5  and  C_6 
REMARK    3  A    between atoms: C_6  and  C_7 
REMARK    4  A    between atoms: C_7  and  C_8 
REMARK    5  A    between atoms: C_8  and  O_9 
REMARK    6  A    between atoms: O_9  and  C_10 
REMARK    7  A    between atoms: C_18  and  C_19 
REMARK    8  A    between atoms: C_22  and  O_23 
ROOT
HETATM    1  N   UNL     1      -9.337   2.012 -34.709  1.00  0.00    -0.327 N 
HETATM    2  C   UNL     1      -8.260   1.996 -33.834  1.00  0.00     0.222 C 
HETATM    3  O   UNL     1      -8.279   2.319 -32.653  1.00  0.00    -0.273 OA
HETATM    4  H   UNL     1      -9.260   1.375 -35.491  1.00  0.00     0.169 HD
ENDROOT
BRANCH   1   5
HETATM    5  C   UNL     1     -10.643   2.475 -34.422  1.00  0.00     0.041 A 
HETATM    6  C   UNL     1     -11.050   3.816 -34.432  1.00  0.00    -0.033 A 
HETATM    7  C   UNL     1     -10.206   4.968 -34.899  1.00  0.00     0.050 C 
HETATM    8  C   UNL     1     -12.359   4.118 -34.020  1.00  0.00     0.046 A 
HETATM    9  C   UNL     1     -13.265   3.116 -33.674  1.00  0.00     0.072 A 
HETATM   10  C   UNL     1     -12.922   1.761 -33.764  1.00  0.00    -0.019 A 
HETATM   11  C   UNL     1     -11.597   1.470 -34.148  1.00  0.00     0.040 A 
BRANCH   9  12
HETATM   12  O   UNL     1     -14.492   3.560 -33.268  1.00  0.00    -0.360 OA
HETATM   13  H   UNL     1     -15.169   3.255 -33.889  1.00  0.00     0.217 HD
ENDBRANCH   9  12
BRANCH  10  14
HETATM   14  C   UNL     1     -13.934   0.658 -33.473  1.00  0.00     0.013 C 
HETATM   15  C   UNL     1     -15.129   0.748 -34.433  1.00  0.00     0.015 C 
HETATM   16  C   UNL     1     -13.384  -0.776 -33.506  1.00  0.00     0.015 C 
ENDBRANCH  10  14
ENDBRANCH   1   5
BRANCH   2  17
HETATM   17  C   UNL     1      -7.011   1.432 -34.493  1.00  0.00     0.105 C 
BRANCH  17  18
HETATM   18  C   UNL     1      -5.818   1.313 -33.546  1.00  0.00     0.036 C 
BRANCH  18  19
HETATM   19  C   UNL     1      -5.363  -0.128 -33.314  1.00  0.00     0.176 C 
BRANCH  19  20
HETATM   20  O   UNL     1      -6.182  -0.972 -34.130  1.00  0.00    -0.350 OA
BRANCH  20  21
HETATM   21  C   UNL     1      -5.776  -2.265 -34.282  1.00  0.00     0.086 A 
HETATM   22  C   UNL     1      -4.508  -2.783 -34.042  1.00  0.00     0.152 A 
HETATM   23  N   UNL     1      -4.174  -4.089 -34.204  1.00  0.00    -0.270 NA
HETATM   24  C   UNL     1      -5.151  -4.915 -34.635  1.00  0.00     0.116 A 
HETATM   25  C   UNL     1      -6.443  -4.499 -34.908  1.00  0.00     0.022 A 
HETATM   26  C   UNL     1      -6.754  -3.153 -34.725  1.00  0.00     0.039 A 
ENDBRANCH  20  21
ENDBRANCH  19  20
ENDBRANCH  18  19
ENDBRANCH  17  18
ENDBRANCH   2  17
TORSDOF 8
ENDMDL
MODEL 8
REMARK VINA RESULT:      -7.1      2.987      9.123
REMARK  8 active torsions:
REMARK  status: ('A' for Active; 'I' for Inactive)
REMARK    1  A    between atoms: C_3  and  N_4 
REMARK       I    between atoms: N_4  and  C_5 
REMARK    2  A    between atoms: C_5  and  C_6 
REMARK    3  A    between atoms: C_6  and  C_7 
REMARK    4  A    between atoms: C_7  and  C_8 
REMARK    5  A    between atoms: C_8  and  O_9 
REMARK    6  A    between atoms: O_9  and  C_10 
REMARK    7  A    between atoms: C_18  and  C_19 
REMARK    8  A    between atoms: C_22  and  O_23 
ROOT
HETATM    1  N   UNL     1      -4.592   3.109 -32.486  1.00  0.00    -0.327 N 
HETATM    2  C   UNL     1      -4.390   4.138 -33.394  1.00  0.00     0.222 C 
HETATM    3  O   UNL     1      -5.257   4.736 -34.020  1.00  0.00    -0.273 OA
HETATM    4  H   UNL     1      -3.861   3.000 -31.795  1.00  0.00     0.169 HD
ENDROOT
BRANCH   1   5
HETATM    5  C   UNL     1      -5.832   2.505 -32.166  1.00  0.00     0.041 A 
HETATM    6  C   UNL     1      -6.668   2.877 -31.106  1.00  0.00    -0.033 A 
HETATM    7  C   UNL     1      -6.461   4.078 -30.227  1.00  0.00     0.050 C 
HETATM    8  C   UNL     1      -7.816   2.106 -30.860  1.00  0.00     0.046 A 
HETATM    9  C   UNL     1      -8.166   1.036 -31.683  1.00  0.00     0.072 A 
HETATM   10  C   UNL     1      -7.412   0.711 -32.817  1.00  0.00    -0.019 A 
HETATM   11  C   UNL     1      -6.245   1.471 -33.037  1.00  0.00     0.040 A 
BRANCH   9  12
HETATM   12  O   UNL     1      -9.294   0.361 -31.307  1.00  0.00    -0.360 OA
HETATM   13  H   UNL     1      -9.055  -0.358 -30.703  1.00  0.00     0.217 HD
ENDBRANCH   9  12
BRANCH  10  14
HETATM   14  C   UNL     1      -7.837  -0.400 -33.772  1.00  0.00     0.013 C 
HETATM   15  C   UNL     1      -7.972   0.135 -35.204  1.00  0.00     0.015 C 
HETATM   16  C   UNL     1      -6.933  -1.642 -33.793  1.00  0.00     0.015 C 
ENDBRANCH  10  14
ENDBRANCH   1   5
BRANCH   2  17
HETATM   17  C   UNL     1      -2.922   4.529 -33.480  1.00  0.00     0.105 C 
BRANCH  17  18
HETATM   18  C   UNL     1      -2.645   5.656 -34.474  1.00  0.00     0.036 C 
BRANCH  18  19
HETATM   19  C   UNL     1      -1.216   6.195 -34.403  1.00  0.00     0.176 C 
BRANCH  19  20
HETATM   20  O   UNL     1      -1.284   7.521 -33.870  1.00  0.00    -0.350 OA
BRANCH  20  21
HETATM   21  C   UNL     1      -1.269   7.642 -32.511  1.00  0.00     0.086 A 
HETATM   22  C   UNL     1      -2.149   8.373 -31.721  1.00  0.00     0.152 A 
HETATM   23  N   UNL     1      -2.082   8.439 -30.367  1.00  0.00    -0.270 NA
HETATM   24  C   UNL     1      -1.083   7.751 -29.775  1.00  0.00     0.116 A 
HETATM   25  C   UNL     1      -0.153   6.998 -30.471  1.00  0.00     0.022 A 
HETATM   26  C   UNL     1      -0.254   6.945 -31.859  1.00  0.00     0.039 A 
ENDBRANCH  20  21
ENDBRANCH  19  20
ENDBRANCH  18  19
ENDBRANCH  17  18
ENDBRANCH   2  17
TORSDOF 8
ENDMDL
MODEL 9
REMARK VINA RESULT:      -6.9      3.002      9.257
REMARK  8 active torsions:
REMARK  status: ('A' for Active; 'I' for Inactive)
REMARK    1  A    between atoms: C_3  and  N_4 
REMARK       I    between atoms: N_4  and  C_5 
REMARK    2  A    between atoms: C_5  and  C_6 
REMARK    3  A    between atoms: C_6  and  C_7 
REMARK    4  A    between atoms: C_7  and  C_8 
REMARK    5  A    between atoms: C_8  and  O_9 
REMARK    6  A    between atoms: O_9  and  C_10 
REMARK    7  A    between atoms: C_18  and  C_19 
REMARK    8  A    between atoms: C_22  and  O_23 
ROOT
HETATM    1  N   UNL     1      -2.740   3.641 -31.776  1.00  0.00    -0.327 N 
HETATM    2  C   UNL     1      -2.765   4.533 -32.839  1.00  0.00     0.222 C 
HETATM    3  O   UNL     1      -3.727   4.784 -33.554  1.00  0.00    -0.273 OA
HETATM    4  H   UNL     1      -2.035   3.832 -31.076  1.00  0.00     0.169 HD
ENDROOT
BRANCH   1   5
HETATM    5  C   UNL     1      -3.800   2.798 -31.365  1.00  0.00     0.041 A 
HETATM    6  C   UNL     1      -4.896   3.191 -30.587  1.00  0.00    -0.033 A 
HETATM    7  C   UNL     1      -5.207   4.607 -30.192  1.00  0.00     0.050 C 
HETATM    8  C   UNL     1      -5.809   2.206 -30.176  1.00  0.00     0.046 A 
HETATM    9  C   UNL     1      -5.681   0.877 -30.580  1.00  0.00     0.072 A 
HETATM   10  C   UNL     1      -4.660   0.476 -31.450  1.00  0.00    -0.019 A 
HETATM   11  C   UNL     1      -3.731   1.466 -31.831  1.00  0.00     0.040 A 
BRANCH   9  12
HETATM   12  O   UNL     1      -6.627   0.027 -30.080  1.00  0.00    -0.360 OA
HETATM   13  H   UNL     1      -7.012  -0.490 -30.803  1.00  0.00     0.217 HD
ENDBRANCH   9  12
BRANCH  10  14
HETATM   14  C   UNL     1      -4.564  -0.956 -31.967  1.00  0.00     0.013 C 
HETATM   15  C   UNL     1      -5.086  -1.050 -33.408  1.00  0.00     0.015 C 
HETATM   16  C   UNL     1      -3.169  -1.595 -31.906  1.00  0.00     0.015 C 
ENDBRANCH  10  14
ENDBRANCH   1   5
BRANCH   2  17
HETATM   17  C   UNL     1      -1.440   5.267 -32.985  1.00  0.00     0.105 C 
BRANCH  17  18
HETATM   18  C   UNL     1      -0.517   5.113 -31.778  1.00  0.00     0.036 C 
BRANCH  18  19
HETATM   19  C   UNL     1      -0.650   6.244 -30.759  1.00  0.00     0.176 C 
BRANCH  19  20
HETATM   20  O   UNL     1      -0.468   5.673 -29.459  1.00  0.00    -0.350 OA
BRANCH  20  21
HETATM   21  C   UNL     1       0.077   6.477 -28.502  1.00  0.00     0.086 A 
HETATM   22  C   UNL     1       0.023   6.302 -27.124  1.00  0.00     0.152 A 
HETATM   23  N   UNL     1       0.600   7.139 -26.225  1.00  0.00    -0.270 NA
HETATM   24  C   UNL     1       1.254   8.208 -26.726  1.00  0.00     0.116 A 
HETATM   25  C   UNL     1       1.362   8.477 -28.080  1.00  0.00     0.022 A 
HETATM   26  C   UNL     1       0.763   7.593 -28.976  1.00  0.00     0.039 A 
ENDBRANCH  20  21
ENDBRANCH  19  20
ENDBRANCH  18  19
ENDBRANCH  17  18
ENDBRANCH   2  17
TORSDOF 8
ENDMDL
MODEL 10
REMARK VINA RESULT:      -6.9      2.806      8.739
REMARK  8 active torsions:
REMARK  status: ('A' for Active; 'I' for Inactive)
REMARK    1  A    between atoms: C_3  and  N_4 
REMARK       I    between atoms: N_4  and  C_5 
REMARK    2  A    between atoms: C_5  and  C_6 
REMARK    3  A    between atoms: C_6  and  C_7 
REMARK    4  A    between atoms: C_7  and  C_8 
REMARK    5  A    between atoms: C_8  and  O_9 
REMARK    6  A    between atoms: O_9  and  C_10 
REMARK    7  A    between atoms: C_18  and  C_19 
REMARK    8  A    between atoms: C_22  and  O_23 
ROOT
HETATM    1  N   UNL     1      -4.158   3.727 -32.650  1.00  0.00    -0.327 N 
HETATM    2  C   UNL     1      -2.846   4.076 -32.365  1.00  0.00     0.222 C 
HETATM    3  O   UNL     1      -2.133   3.580 -31.502  1.00  0.00    -0.273 OA
HETATM    4  H   UNL     1      -4.459   3.932 -33.594  1.00  0.00     0.169 HD
ENDROOT
BRANCH   1   5
HETATM    5  C   UNL     1      -4.946   2.783 -31.949  1.00  0.00     0.041 A 
HETATM    6  C   UNL     1      -5.549   2.994 -30.703  1.00  0.00    -0.033 A 
HETATM    7  C   UNL     1      -5.589   4.310 -29.978  1.00  0.00     0.050 C 
HETATM    8  C   UNL     1      -6.212   1.917 -30.091  1.00  0.00     0.046 A 
HETATM    9  C   UNL     1      -6.335   0.681 -30.726  1.00  0.00     0.072 A 
HETATM   10  C   UNL     1      -5.840   0.474 -32.019  1.00  0.00    -0.019 A 
HETATM   11  C   UNL     1      -5.150   1.551 -32.611  1.00  0.00     0.040 A 
BRANCH   9  12
HETATM   12  O   UNL     1      -6.981  -0.280 -30.000  1.00  0.00    -0.360 OA
HETATM   13  H   UNL     1      -6.342  -0.941 -29.695  1.00  0.00     0.217 HD
ENDBRANCH   9  12
BRANCH  10  14
HETATM   14  C   UNL     1      -6.048  -0.847 -32.754  1.00  0.00     0.013 C 
HETATM   15  C   UNL     1      -7.165  -0.717 -33.799  1.00  0.00     0.015 C 
HETATM   16  C   UNL     1      -4.803  -1.433 -33.436  1.00  0.00     0.015 C 
ENDBRANCH  10  14
ENDBRANCH   1   5
BRANCH   2  17
HETATM   17  C   UNL     1      -2.325   5.130 -33.330  1.00  0.00     0.105 C 
BRANCH  17  18
HETATM   18  C   UNL     1      -2.696   6.559 -32.937  1.00  0.00     0.036 C 
BRANCH  18  19
HETATM   19  C   UNL     1      -1.498   7.404 -32.503  1.00  0.00     0.176 C 
BRANCH  19  20
HETATM   20  O   UNL     1      -0.407   6.508 -32.262  1.00  0.00    -0.350 OA
BRANCH  20  21
HETATM   21  C   UNL     1      -0.040   6.319 -30.962  1.00  0.00     0.086 A 
HETATM   22  C   UNL     1       0.588   5.204 -30.418  1.00  0.00     0.152 A 
HETATM   23  N   UNL     1       0.937   5.087 -29.112  1.00  0.00    -0.270 NA
HETATM   24  C   UNL     1       0.637   6.130 -28.309  1.00  0.00     0.116 A 
HETATM   25  C   UNL     1       0.009   7.282 -28.749  1.00  0.00     0.022 A 
HETATM   26  C   UNL     1      -0.330   7.373 -30.098  1.00  0.00     0.039 A 
ENDBRANCH  20  21
ENDBRANCH  19  20
ENDBRANCH  18  19
ENDBRANCH  17  18
ENDBRANCH   2  17
TORSDOF 8
ENDMDL
