MODEL 1
REMARK VINA RESULT:      -8.0      0.000      0.000
REMARK  6 active torsions:
REMARK  status: ('A' for Active; 'I' for Inactive)
REMARK    1  A    between atoms: C_8  and  N_9 
REMARK       I    between atoms: N_9  and  C_10 
REMARK    2  A    between atoms: C_10  and  C_11 
REMARK    3  A    between atoms: C_11  and  N_12 
REMARK    4  A    between atoms: N_12  and  C_13 
REMARK    5  A    between atoms: C_13  and  C_14 
REMARK    6  A    between atoms: C_15  and  C_16 
ROOT
HETATM    1  N   UNL     1      -7.190   1.296 -32.623  1.00  0.00     0.100 N 
HETATM    2  H   UNL     1      -6.852   2.248 -32.465  1.00  0.00     0.317 HD
ENDROOT
BRANCH   1   3
HETATM    3  C   UNL     1      -8.575   1.220 -32.099  1.00  0.00     0.372 C 
BRANCH   3   4
HETATM    4  C   UNL     1      -9.593   1.225 -33.250  1.00  0.00     0.250 C 
HETATM    5  N   UNL     1     -10.815   1.736 -32.867  1.00  0.00    -0.322 N 
HETATM    6  H   UNL     1     -10.852   2.074 -31.908  1.00  0.00     0.169 HD
HETATM    7  O   UNL     1      -9.272   0.828 -34.365  1.00  0.00    -0.271 OA
BRANCH   5   8
HETATM    8  C   UNL     1     -11.976   1.819 -33.615  1.00  0.00     0.085 A 
HETATM    9  C   UNL     1     -12.367   3.002 -34.212  1.00  0.00     0.052 A 
HETATM   10  C   UNL     1     -11.759   4.353 -34.244  1.00  0.00     0.072 C 
HETATM   11  N   UNL     1     -13.543   2.731 -34.849  1.00  0.00    -0.280 N 
HETATM   12  H   UNL     1     -14.121   3.361 -35.393  1.00  0.00     0.189 HD
HETATM   13  N   UNL     1     -13.954   1.468 -34.708  1.00  0.00    -0.177 NA
HETATM   14  C   UNL     1     -13.005   0.890 -33.955  1.00  0.00     0.079 A 
HETATM   15  C   UNL     1     -13.171  -0.543 -33.606  1.00  0.00     0.075 C 
ENDBRANCH   5   8
ENDBRANCH   3   4
ENDBRANCH   1   3
BRANCH   1  16
HETATM   16  C   UNL     1      -6.253   0.372 -31.958  1.00  0.00     0.250 C 
HETATM   17  C   UNL     1      -6.758  -0.020 -30.559  1.00  0.00     0.048 C 
BRANCH  16  18
HETATM   18  C   UNL     1      -5.814  -0.777 -32.865  1.00  0.00    -0.011 A 
HETATM   19  C   UNL     1      -4.453  -1.184 -32.931  1.00  0.00     0.056 A 
HETATM   20  C   UNL     1      -4.094  -2.238 -33.797  1.00  0.00     0.017 A 
HETATM   21  C   UNL     1      -5.042  -2.885 -34.586  1.00  0.00     0.001 A 
HETATM   22  C   UNL     1      -6.370  -2.484 -34.530  1.00  0.00     0.001 A 
HETATM   23  C   UNL     1      -6.749  -1.442 -33.683  1.00  0.00     0.010 A 
BRANCH  19  24
HETATM   24  C   UNL     1      -3.355  -0.512 -32.127  1.00  0.00     0.418 C 
HETATM   25  F   UNL     1      -2.134  -1.100 -32.273  1.00  0.00    -0.166 F 
HETATM   26  F   UNL     1      -3.157   0.792 -32.486  1.00  0.00    -0.166 F 
HETATM   27  F   UNL     1      -3.606  -0.475 -30.787  1.00  0.00    -0.166 F 
ENDBRANCH  19  24
ENDBRANCH  16  18
ENDBRANCH   1  16
TORSDOF 6
ENDMDL
MODEL 2
REMARK VINA RESULT:      -8.0      1.959      2.647
REMARK  6 active torsions:
REMARK  status: ('A' for Active; 'I' for Inactive)
REMARK    1  A    between atoms: C_8  and  N_9 
REMARK       I    between atoms: N_9  and  C_10 
REMARK    2  A    between atoms: C_10  and  C_11 
REMARK    3  A    between atoms: C_11  and  N_12 
REMARK    4  A    between atoms: N_12  and  C_13 
REMARK    5  A    between atoms: C_13  and  C_14 
REMARK    6  A    between atoms: C_15  and  C_16 
ROOT
HETATM    1  N   UNL     1      -7.541   1.360 -32.028  1.00  0.00     0.100 N 
HETATM    2  H   UNL     1      -7.043   1.214 -31.147  1.00  0.00     0.317 HD
ENDROOT
BRANCH   1   3
HETATM    3  C   UNL     1      -8.684   0.417 -32.058  1.00  0.00     0.372 C 
BRANCH   3   4
HETATM    4  C   UNL     1      -9.605   0.716 -33.251  1.00  0.00     0.250 C 
HETATM    5  N   UNL     1     -10.823   1.228 -32.859  1.00  0.00    -0.322 N 
HETATM    6  H   UNL     1     -10.918   1.376 -31.857  1.00  0.00     0.169 HD
HETATM    7  O   UNL     1      -9.218   0.522 -34.399  1.00  0.00    -0.271 OA
BRANCH   5   8
HETATM    8  C   UNL     1     -11.914   1.536 -33.652  1.00  0.00     0.085 A 
HETATM    9  C   UNL     1     -12.023   2.759 -34.286  1.00  0.00     0.052 A 
HETATM   10  C   UNL     1     -11.140   3.949 -34.321  1.00  0.00     0.072 C 
HETATM   11  N   UNL     1     -13.208   2.727 -34.962  1.00  0.00    -0.280 N 
HETATM   12  H   UNL     1     -13.620   3.451 -35.541  1.00  0.00     0.189 HD
HETATM   13  N   UNL     1     -13.883   1.585 -34.813  1.00  0.00    -0.177 NA
HETATM   14  C   UNL     1     -13.105   0.838 -34.014  1.00  0.00     0.079 A 
HETATM   15  C   UNL     1     -13.585  -0.516 -33.643  1.00  0.00     0.075 C 
ENDBRANCH   5   8
ENDBRANCH   3   4
ENDBRANCH   1   3
BRANCH   1  16
HETATM   16  C   UNL     1      -6.576   1.157 -33.126  1.00  0.00     0.250 C 
HETATM   17  C   UNL     1      -6.173   2.497 -33.766  1.00  0.00     0.048 C 
BRANCH  16  18
HETATM   18  C   UNL     1      -5.431   0.221 -32.740  1.00  0.00    -0.011 A 
HETATM   19  C   UNL     1      -5.255  -1.031 -33.389  1.00  0.00     0.056 A 
HETATM   20  C   UNL     1      -4.193  -1.870 -32.985  1.00  0.00     0.017 A 
HETATM   21  C   UNL     1      -3.321  -1.495 -31.967  1.00  0.00     0.001 A 
HETATM   22  C   UNL     1      -3.497  -0.278 -31.324  1.00  0.00     0.001 A 
HETATM   23  C   UNL     1      -4.540   0.567 -31.704  1.00  0.00     0.010 A 
BRANCH  19  24
HETATM   24  C   UNL     1      -6.178  -1.525 -34.488  1.00  0.00     0.418 C 
HETATM   25  F   UNL     1      -6.438  -0.588 -35.444  1.00  0.00    -0.166 F 
HETATM   26  F   UNL     1      -5.664  -2.588 -35.175  1.00  0.00    -0.166 F 
HETATM   27  F   UNL     1      -7.389  -1.952 -34.030  1.00  0.00    -0.166 F 
ENDBRANCH  19  24
ENDBRANCH  16  18
ENDBRANCH   1  16
TORSDOF 6
ENDMDL
MODEL 3
REMARK VINA RESULT:      -8.0      4.458      7.029
REMARK  6 active torsions:
REMARK  status: ('A' for Active; 'I' for Inactive)
REMARK    1  A    between atoms: C_8  and  N_9 
REMARK       I    between atoms: N_9  and  C_10 
REMARK    2  A    between atoms: C_10  and  C_11 
REMARK    3  A    between atoms: C_11  and  N_12 
REMARK    4  A    between atoms: N_12  and  C_13 
REMARK    5  A    between atoms: C_13  and  C_14 
REMARK    6  A    between atoms: C_15  and  C_16 
ROOT
HETATM    1  N   UNL     1      -5.056   1.653 -32.295  1.00  0.00     0.100 N 
HETATM    2  H   UNL     1      -4.587   1.432 -33.176  1.00  0.00     0.317 HD
ENDROOT
BRANCH   1   3
HETATM    3  C   UNL     1      -4.035   2.204 -31.370  1.00  0.00     0.372 C 
BRANCH   3   4
HETATM    4  C   UNL     1      -3.742   3.675 -31.698  1.00  0.00     0.250 C 
HETATM    5  N   UNL     1      -2.822   3.813 -32.716  1.00  0.00    -0.322 N 
HETATM    6  H   UNL     1      -2.511   2.936 -33.128  1.00  0.00     0.169 HD
HETATM    7  O   UNL     1      -4.321   4.573 -31.097  1.00  0.00    -0.271 OA
BRANCH   5   8
HETATM    8  C   UNL     1      -2.270   4.979 -33.214  1.00  0.00     0.085 A 
HETATM    9  C   UNL     1      -2.757   5.576 -34.362  1.00  0.00     0.052 A 
HETATM   10  C   UNL     1      -3.860   5.216 -35.284  1.00  0.00     0.072 C 
HETATM   11  N   UNL     1      -1.984   6.682 -34.567  1.00  0.00    -0.280 N 
HETATM   12  H   UNL     1      -2.050   7.363 -35.315  1.00  0.00     0.189 HD
HETATM   13  N   UNL     1      -1.028   6.850 -33.649  1.00  0.00    -0.177 NA
HETATM   14  C   UNL     1      -1.188   5.816 -32.808  1.00  0.00     0.079 A 
HETATM   15  C   UNL     1      -0.257   5.707 -31.658  1.00  0.00     0.075 C 
ENDBRANCH   5   8
ENDBRANCH   3   4
ENDBRANCH   1   3
BRANCH   1  16
HETATM   16  C   UNL     1      -5.694   0.417 -31.805  1.00  0.00     0.250 C 
HETATM   17  C   UNL     1      -7.044   0.719 -31.131  1.00  0.00     0.048 C 
BRANCH  16  18
HETATM   18  C   UNL     1      -5.694  -0.700 -32.848  1.00  0.00    -0.011 A 
HETATM   19  C   UNL     1      -4.581  -1.573 -32.990  1.00  0.00     0.056 A 
HETATM   20  C   UNL     1      -4.619  -2.578 -33.980  1.00  0.00     0.017 A 
HETATM   21  C   UNL     1      -5.722  -2.730 -34.817  1.00  0.00     0.001 A 
HETATM   22  C   UNL     1      -6.806  -1.874 -34.686  1.00  0.00     0.001 A 
HETATM   23  C   UNL     1      -6.791  -0.871 -33.716  1.00  0.00     0.010 A 
BRANCH  19  24
HETATM   24  C   UNL     1      -3.330  -1.455 -32.138  1.00  0.00     0.418 C 
HETATM   25  F   UNL     1      -2.659  -2.632 -31.988  1.00  0.00    -0.166 F 
HETATM   26  F   UNL     1      -2.407  -0.595 -32.667  1.00  0.00    -0.166 F 
HETATM   27  F   UNL     1      -3.570  -0.986 -30.881  1.00  0.00    -0.166 F 
ENDBRANCH  19  24
ENDBRANCH  16  18
ENDBRANCH   1  16
TORSDOF 6
ENDMDL
MODEL 4
REMARK VINA RESULT:      -8.0      4.788      7.503
REMARK  6 active torsions:
REMARK  status: ('A' for Active; 'I' for Inactive)
REMARK    1  A    between atoms: C_8  and  N_9 
REMARK       I    between atoms: N_9  and  C_10 
REMARK    2  A    between atoms: C_10  and  C_11 
REMARK    3  A    between atoms: C_11  and  N_12 
REMARK    4  A    between atoms: N_12  and  C_13 
REMARK    5  A    between atoms: C_13  and  C_14 
REMARK    6  A    between atoms: C_15  and  C_16 
ROOT
HETATM    1  N   UNL     1      -3.754   1.464 -32.346  1.00  0.00     0.100 N 
HETATM    2  H   UNL     1      -2.952   0.871 -32.575  1.00  0.00     0.317 HD
ENDROOT
BRANCH   1   3
HETATM    3  C   UNL     1      -3.334   2.389 -31.267  1.00  0.00     0.372 C 
BRANCH   3   4
HETATM    4  C   UNL     1      -3.404   3.848 -31.744  1.00  0.00     0.250 C 
HETATM    5  N   UNL     1      -2.336   4.190 -32.545  1.00  0.00    -0.322 N 
HETATM    6  H   UNL     1      -1.691   3.428 -32.740  1.00  0.00     0.169 HD
HETATM    7  O   UNL     1      -4.351   4.560 -31.428  1.00  0.00    -0.271 OA
BRANCH   5   8
HETATM    8  C   UNL     1      -2.036   5.429 -33.082  1.00  0.00     0.085 A 
HETATM    9  C   UNL     1      -2.642   5.880 -34.240  1.00  0.00     0.052 A 
HETATM   10  C   UNL     1      -3.656   5.276 -35.137  1.00  0.00     0.072 C 
HETATM   11  N   UNL     1      -2.112   7.113 -34.486  1.00  0.00    -0.280 N 
HETATM   12  H   UNL     1      -2.321   7.744 -35.251  1.00  0.00     0.189 HD
HETATM   13  N   UNL     1      -1.204   7.499 -33.586  1.00  0.00    -0.177 NA
HETATM   14  C   UNL     1      -1.144   6.480 -32.714  1.00  0.00     0.079 A 
HETATM   15  C   UNL     1      -0.202   6.597 -31.574  1.00  0.00     0.075 C 
ENDBRANCH   5   8
ENDBRANCH   3   4
ENDBRANCH   1   3
BRANCH   1  16
HETATM   16  C   UNL     1      -4.870   0.578 -31.966  1.00  0.00     0.250 C 
HETATM   17  C   UNL     1      -5.434   0.956 -30.585  1.00  0.00     0.048 C 
BRANCH  16  18
HETATM   18  C   UNL     1      -5.893   0.402 -33.088  1.00  0.00    -0.011 A 
HETATM   19  C   UNL     1      -5.804  -0.685 -34.000  1.00  0.00     0.056 A 
HETATM   20  C   UNL     1      -6.761  -0.794 -35.032  1.00  0.00     0.017 A 
HETATM   21  C   UNL     1      -7.785   0.138 -35.173  1.00  0.00     0.001 A 
HETATM   22  C   UNL     1      -7.869   1.206 -34.290  1.00  0.00     0.001 A 
HETATM   23  C   UNL     1      -6.933   1.337 -33.263  1.00  0.00     0.010 A 
BRANCH  19  24
HETATM   24  C   UNL     1      -4.702  -1.726 -33.933  1.00  0.00     0.418 C 
HETATM   25  F   UNL     1      -4.676  -2.418 -32.759  1.00  0.00    -0.166 F 
HETATM   26  F   UNL     1      -4.820  -2.687 -34.899  1.00  0.00    -0.166 F 
HETATM   27  F   UNL     1      -3.452  -1.208 -34.100  1.00  0.00    -0.166 F 
ENDBRANCH  19  24
ENDBRANCH  16  18
ENDBRANCH   1  16
TORSDOF 6
ENDMDL
MODEL 5
REMARK VINA RESULT:      -7.9      2.090      3.165
REMARK  6 active torsions:
REMARK  status: ('A' for Active; 'I' for Inactive)
REMARK    1  A    between atoms: C_8  and  N_9 
REMARK       I    between atoms: N_9  and  C_10 
REMARK    2  A    between atoms: C_10  and  C_11 
REMARK    3  A    between atoms: C_11  and  N_12 
REMARK    4  A    between atoms: N_12  and  C_13 
REMARK    5  A    between atoms: C_13  and  C_14 
REMARK    6  A    between atoms: C_15  and  C_16 
ROOT
HETATM    1  N   UNL     1      -7.499   1.109 -31.659  1.00  0.00     0.100 N 
HETATM    2  H   UNL     1      -7.020   0.656 -30.878  1.00  0.00     0.317 HD
ENDROOT
BRANCH   1   3
HETATM    3  C   UNL     1      -8.822   0.457 -31.813  1.00  0.00     0.372 C 
BRANCH   3   4
HETATM    4  C   UNL     1      -9.857   1.449 -32.363  1.00  0.00     0.250 C 
HETATM    5  N   UNL     1     -10.721   0.862 -33.262  1.00  0.00    -0.322 N 
HETATM    6  H   UNL     1     -10.581  -0.137 -33.394  1.00  0.00     0.169 HD
HETATM    7  O   UNL     1      -9.868   2.613 -31.977  1.00  0.00    -0.271 OA
BRANCH   5   8
HETATM    8  C   UNL     1     -11.719   1.467 -34.005  1.00  0.00     0.085 A 
HETATM    9  C   UNL     1     -12.977   0.906 -34.117  1.00  0.00     0.052 A 
HETATM   10  C   UNL     1     -13.572  -0.331 -33.559  1.00  0.00     0.072 C 
HETATM   11  N   UNL     1     -13.693   1.747 -34.919  1.00  0.00    -0.280 N 
HETATM   12  H   UNL     1     -14.657   1.656 -35.220  1.00  0.00     0.189 HD
HETATM   13  N   UNL     1     -13.001   2.806 -35.345  1.00  0.00    -0.177 NA
HETATM   14  C   UNL     1     -11.786   2.655 -34.793  1.00  0.00     0.079 A 
HETATM   15  C   UNL     1     -10.758   3.685 -35.084  1.00  0.00     0.075 C 
ENDBRANCH   5   8
ENDBRANCH   3   4
ENDBRANCH   1   3
BRANCH   1  16
HETATM   16  C   UNL     1      -6.634   0.983 -32.848  1.00  0.00     0.250 C 
HETATM   17  C   UNL     1      -6.317   2.362 -33.452  1.00  0.00     0.048 C 
BRANCH  16  18
HETATM   18  C   UNL     1      -5.441   0.057 -32.614  1.00  0.00    -0.011 A 
HETATM   19  C   UNL     1      -5.286  -1.144 -33.359  1.00  0.00     0.056 A 
HETATM   20  C   UNL     1      -4.177  -1.977 -33.095  1.00  0.00     0.017 A 
HETATM   21  C   UNL     1      -3.238  -1.646 -32.122  1.00  0.00     0.001 A 
HETATM   22  C   UNL     1      -3.392  -0.479 -31.386  1.00  0.00     0.001 A 
HETATM   23  C   UNL     1      -4.481   0.359 -31.628  1.00  0.00     0.010 A 
BRANCH  19  24
HETATM   24  C   UNL     1      -6.280  -1.590 -34.416  1.00  0.00     0.418 C 
HETATM   25  F   UNL     1      -6.526  -0.645 -35.367  1.00  0.00    -0.166 F 
HETATM   26  F   UNL     1      -5.854  -2.684 -35.116  1.00  0.00    -0.166 F 
HETATM   27  F   UNL     1      -7.493  -1.947 -33.906  1.00  0.00    -0.166 F 
ENDBRANCH  19  24
ENDBRANCH  16  18
ENDBRANCH   1  16
TORSDOF 6
ENDMDL
MODEL 6
REMARK VINA RESULT:      -7.7      3.761      5.903
REMARK  6 active torsions:
REMARK  status: ('A' for Active; 'I' for Inactive)
REMARK    1  A    between atoms: C_8  and  N_9 
REMARK       I    between atoms: N_9  and  C_10 
REMARK    2  A    between atoms: C_10  and  C_11 
REMARK    3  A    between atoms: C_11  and  N_12 
REMARK    4  A    between atoms: N_12  and  C_13 
REMARK    5  A    between atoms: C_13  and  C_14 
REMARK    6  A    between atoms: C_15  and  C_16 
ROOT
HETATM    1  N   UNL     1      -5.990   0.647 -34.223  1.00  0.00     0.100 N 
HETATM    2  H   UNL     1      -5.115   0.977 -33.810  1.00  0.00     0.317 HD
ENDROOT
BRANCH   1   3
HETATM    3  C   UNL     1      -6.907   1.808 -34.319  1.00  0.00     0.372 C 
BRANCH   3   4
HETATM    4  C   UNL     1      -6.269   3.057 -33.692  1.00  0.00     0.250 C 
HETATM    5  N   UNL     1      -5.114   2.765 -33.000  1.00  0.00    -0.322 N 
HETATM    6  H   UNL     1      -4.829   1.789 -33.042  1.00  0.00     0.169 HD
HETATM    7  O   UNL     1      -6.775   4.162 -33.856  1.00  0.00    -0.271 OA
BRANCH   5   8
HETATM    8  C   UNL     1      -4.328   3.624 -32.252  1.00  0.00     0.085 A 
HETATM    9  C   UNL     1      -4.647   3.941 -30.945  1.00  0.00     0.052 A 
HETATM   10  C   UNL     1      -5.760   3.524 -30.059  1.00  0.00     0.072 C 
HETATM   11  N   UNL     1      -3.681   4.807 -30.523  1.00  0.00    -0.280 N 
HETATM   12  H   UNL     1      -3.590   5.250 -29.615  1.00  0.00     0.189 HD
HETATM   13  N   UNL     1      -2.762   5.086 -31.451  1.00  0.00    -0.177 NA
HETATM   14  C   UNL     1      -3.139   4.367 -32.520  1.00  0.00     0.079 A 
HETATM   15  C   UNL     1      -2.313   4.463 -33.749  1.00  0.00     0.075 C 
ENDBRANCH   5   8
ENDBRANCH   3   4
ENDBRANCH   1   3
BRANCH   1  16
HETATM   16  C   UNL     1      -6.503  -0.445 -33.373  1.00  0.00     0.250 C 
HETATM   17  C   UNL     1      -8.023  -0.323 -33.169  1.00  0.00     0.048 C 
BRANCH  16  18
HETATM   18  C   UNL     1      -5.987  -1.818 -33.802  1.00  0.00    -0.011 A 
HETATM   19  C   UNL     1      -4.688  -2.263 -33.434  1.00  0.00     0.056 A 
HETATM   20  C   UNL     1      -4.248  -3.532 -33.869  1.00  0.00     0.017 A 
HETATM   21  C   UNL     1      -5.059  -4.352 -34.649  1.00  0.00     0.001 A 
HETATM   22  C   UNL     1      -6.324  -3.916 -35.017  1.00  0.00     0.001 A 
HETATM   23  C   UNL     1      -6.780  -2.665 -34.601  1.00  0.00     0.010 A 
BRANCH  19  24
HETATM   24  C   UNL     1      -3.732  -1.418 -32.611  1.00  0.00     0.418 C 
HETATM   25  F   UNL     1      -4.314  -0.841 -31.522  1.00  0.00    -0.166 F 
HETATM   26  F   UNL     1      -2.688  -2.140 -32.104  1.00  0.00    -0.166 F 
HETATM   27  F   UNL     1      -3.153  -0.406 -33.318  1.00  0.00    -0.166 F 
ENDBRANCH  19  24
ENDBRANCH  16  18
ENDBRANCH   1  16
TORSDOF 6
ENDMDL
MODEL 7
REMARK VINA RESULT:      -7.5      2.341      3.176
REMARK  6 active torsions:
REMARK  status: ('A' for Active; 'I' for Inactive)
REMARK    1  A    between atoms: C_8  and  N_9 
REMARK       I    between atoms: N_9  and  C_10 
REMARK    2  A    between atoms: C_10  and  C_11 
REMARK    3  A    between atoms: C_11  and  N_12 
REMARK    4  A    between atoms: N_12  and  C_13 
REMARK    5  A    between atoms: C_13  and  C_14 
REMARK    6  A    between atoms: C_15  and  C_16 
ROOT
HETATM    1  N   UNL     1      -7.501   1.164 -31.894  1.00  0.00     0.100 N 
HETATM    2  H   UNL     1      -7.131   0.644 -31.096  1.00  0.00     0.317 HD
ENDROOT
BRANCH   1   3
HETATM    3  C   UNL     1      -8.943   0.840 -32.010  1.00  0.00     0.372 C 
BRANCH   3   4
HETATM    4  C   UNL     1      -9.773   2.117 -32.214  1.00  0.00     0.250 C 
HETATM    5  N   UNL     1     -11.061   1.847 -32.622  1.00  0.00    -0.322 N 
HETATM    6  H   UNL     1     -11.288   0.857 -32.684  1.00  0.00     0.169 HD
HETATM    7  O   UNL     1      -9.282   3.219 -31.990  1.00  0.00    -0.271 OA
BRANCH   5   8
HETATM    8  C   UNL     1     -12.051   2.747 -32.972  1.00  0.00     0.085 A 
HETATM    9  C   UNL     1     -12.581   2.777 -34.248  1.00  0.00     0.052 A 
HETATM   10  C   UNL     1     -12.307   1.974 -35.463  1.00  0.00     0.072 C 
HETATM   11  N   UNL     1     -13.510   3.778 -34.245  1.00  0.00    -0.280 N 
HETATM   12  H   UNL     1     -14.100   4.088 -35.009  1.00  0.00     0.189 HD
HETATM   13  N   UNL     1     -13.621   4.407 -33.073  1.00  0.00    -0.177 NA
HETATM   14  C   UNL     1     -12.735   3.789 -32.276  1.00  0.00     0.079 A 
HETATM   15  C   UNL     1     -12.607   4.266 -30.877  1.00  0.00     0.075 C 
ENDBRANCH   5   8
ENDBRANCH   3   4
ENDBRANCH   1   3
BRANCH   1  16
HETATM   16  C   UNL     1      -6.711   0.785 -33.081  1.00  0.00     0.250 C 
HETATM   17  C   UNL     1      -6.458   2.000 -33.991  1.00  0.00     0.048 C 
BRANCH  16  18
HETATM   18  C   UNL     1      -5.489  -0.063 -32.730  1.00  0.00    -0.011 A 
HETATM   19  C   UNL     1      -5.248  -1.307 -33.374  1.00  0.00     0.056 A 
HETATM   20  C   UNL     1      -4.115  -2.063 -33.002  1.00  0.00     0.017 A 
HETATM   21  C   UNL     1      -3.234  -1.616 -32.021  1.00  0.00     0.001 A 
HETATM   22  C   UNL     1      -3.473  -0.406 -31.384  1.00  0.00     0.001 A 
HETATM   23  C   UNL     1      -4.586   0.358 -31.732  1.00  0.00     0.010 A 
BRANCH  19  24
HETATM   24  C   UNL     1      -6.174  -1.878 -34.431  1.00  0.00     0.418 C 
HETATM   25  F   UNL     1      -6.444  -1.010 -35.447  1.00  0.00    -0.166 F 
HETATM   26  F   UNL     1      -5.657  -2.983 -35.048  1.00  0.00    -0.166 F 
HETATM   27  F   UNL     1      -7.380  -2.280 -33.939  1.00  0.00    -0.166 F 
ENDBRANCH  19  24
ENDBRANCH  16  18
ENDBRANCH   1  16
TORSDOF 6
ENDMDL
MODEL 8
REMARK VINA RESULT:      -7.5      4.657      6.082
REMARK  6 active torsions:
REMARK  status: ('A' for Active; 'I' for Inactive)
REMARK    1  A    between atoms: C_8  and  N_9 
REMARK       I    between atoms: N_9  and  C_10 
REMARK    2  A    between atoms: C_10  and  C_11 
REMARK    3  A    between atoms: C_11  and  N_12 
REMARK    4  A    between atoms: N_12  and  C_13 
REMARK    5  A    between atoms: C_13  and  C_14 
REMARK    6  A    between atoms: C_15  and  C_16 
ROOT
HETATM    1  N   UNL     1      -5.060  -0.494 -31.795  1.00  0.00     0.100 N 
HETATM    2  H   UNL     1      -5.991  -0.136 -32.021  1.00  0.00     0.317 HD
ENDROOT
BRANCH   1   3
HETATM    3  C   UNL     1      -4.371   0.534 -30.979  1.00  0.00     0.372 C 
BRANCH   3   4
HETATM    4  C   UNL     1      -4.880   1.940 -31.332  1.00  0.00     0.250 C 
HETATM    5  N   UNL     1      -4.195   2.495 -32.393  1.00  0.00    -0.322 N 
HETATM    6  H   UNL     1      -3.496   1.886 -32.811  1.00  0.00     0.169 HD
HETATM    7  O   UNL     1      -5.814   2.437 -30.713  1.00  0.00    -0.271 OA
BRANCH   5   8
HETATM    8  C   UNL     1      -4.332   3.764 -32.925  1.00  0.00     0.085 A 
HETATM    9  C   UNL     1      -3.289   4.671 -32.907  1.00  0.00     0.052 A 
HETATM   10  C   UNL     1      -1.901   4.586 -32.396  1.00  0.00     0.072 C 
HETATM   11  N   UNL     1      -3.768   5.805 -33.495  1.00  0.00    -0.280 N 
HETATM   12  H   UNL     1      -3.283   6.681 -33.656  1.00  0.00     0.189 HD
HETATM   13  N   UNL     1      -5.042   5.714 -33.887  1.00  0.00    -0.177 NA
HETATM   14  C   UNL     1      -5.407   4.467 -33.548  1.00  0.00     0.079 A 
HETATM   15  C   UNL     1      -6.796   4.044 -33.849  1.00  0.00     0.075 C 
ENDBRANCH   5   8
ENDBRANCH   3   4
ENDBRANCH   1   3
BRANCH   1  16
HETATM   16  C   UNL     1      -4.377  -0.798 -33.066  1.00  0.00     0.250 C 
HETATM   17  C   UNL     1      -2.848  -0.767 -32.896  1.00  0.00     0.048 C 
BRANCH  16  18
HETATM   18  C   UNL     1      -4.955  -2.027 -33.767  1.00  0.00    -0.011 A 
HETATM   19  C   UNL     1      -6.199  -1.965 -34.453  1.00  0.00     0.056 A 
HETATM   20  C   UNL     1      -6.700  -3.131 -35.070  1.00  0.00     0.017 A 
HETATM   21  C   UNL     1      -6.003  -4.336 -35.019  1.00  0.00     0.001 A 
HETATM   22  C   UNL     1      -4.793  -4.401 -34.342  1.00  0.00     0.001 A 
HETATM   23  C   UNL     1      -4.278  -3.262 -33.723  1.00  0.00     0.010 A 
BRANCH  19  24
HETATM   24  C   UNL     1      -7.033  -0.699 -34.529  1.00  0.00     0.418 C 
HETATM   25  F   UNL     1      -7.723  -0.431 -33.385  1.00  0.00    -0.166 F 
HETATM   26  F   UNL     1      -6.280   0.420 -34.750  1.00  0.00    -0.166 F 
HETATM   27  F   UNL     1      -7.951  -0.713 -35.537  1.00  0.00    -0.166 F 
ENDBRANCH  19  24
ENDBRANCH  16  18
ENDBRANCH   1  16
TORSDOF 6
ENDMDL
MODEL 9
REMARK VINA RESULT:      -7.4      3.318      4.363
REMARK  6 active torsions:
REMARK  status: ('A' for Active; 'I' for Inactive)
REMARK    1  A    between atoms: C_8  and  N_9 
REMARK       I    between atoms: N_9  and  C_10 
REMARK    2  A    between atoms: C_10  and  C_11 
REMARK    3  A    between atoms: C_11  and  N_12 
REMARK    4  A    between atoms: N_12  and  C_13 
REMARK    5  A    between atoms: C_13  and  C_14 
REMARK    6  A    between atoms: C_15  and  C_16 
ROOT
HETATM    1  N   UNL     1      -5.768   0.328 -31.384  1.00  0.00     0.100 N 
HETATM    2  H   UNL     1      -6.722   0.077 -31.652  1.00  0.00     0.317 HD
ENDROOT
BRANCH   1   3
HETATM    3  C   UNL     1      -5.825   1.646 -30.706  1.00  0.00     0.372 C 
BRANCH   3   4
HETATM    4  C   UNL     1      -6.996   2.483 -31.244  1.00  0.00     0.250 C 
HETATM    5  N   UNL     1      -6.667   3.166 -32.395  1.00  0.00    -0.322 N 
HETATM    6  H   UNL     1      -5.729   2.985 -32.744  1.00  0.00     0.169 HD
HETATM    7  O   UNL     1      -8.081   2.472 -30.674  1.00  0.00    -0.271 OA
BRANCH   5   8
HETATM    8  C   UNL     1      -7.443   4.068 -33.102  1.00  0.00     0.085 A 
HETATM    9  C   UNL     1      -7.116   5.410 -33.162  1.00  0.00     0.052 A 
HETATM   10  C   UNL     1      -6.000   6.193 -32.582  1.00  0.00     0.072 C 
HETATM   11  N   UNL     1      -8.086   5.999 -33.920  1.00  0.00    -0.280 N 
HETATM   12  H   UNL     1      -8.174   6.975 -34.178  1.00  0.00     0.189 HD
HETATM   13  N   UNL     1      -9.023   5.150 -34.352  1.00  0.00    -0.177 NA
HETATM   14  C   UNL     1      -8.645   3.959 -33.863  1.00  0.00     0.079 A 
HETATM   15  C   UNL     1      -9.497   2.782 -34.164  1.00  0.00     0.075 C 
ENDBRANCH   5   8
ENDBRANCH   3   4
ENDBRANCH   1   3
BRANCH   1  16
HETATM   16  C   UNL     1      -4.944   0.327 -32.608  1.00  0.00     0.250 C 
HETATM   17  C   UNL     1      -3.516   0.820 -32.317  1.00  0.00     0.048 C 
BRANCH  16  18
HETATM   18  C   UNL     1      -5.062  -0.977 -33.396  1.00  0.00    -0.011 A 
HETATM   19  C   UNL     1      -6.120  -1.183 -34.323  1.00  0.00     0.056 A 
HETATM   20  C   UNL     1      -6.197  -2.412 -35.014  1.00  0.00     0.017 A 
HETATM   21  C   UNL     1      -5.261  -3.421 -34.805  1.00  0.00     0.001 A 
HETATM   22  C   UNL     1      -4.232  -3.226 -33.895  1.00  0.00     0.001 A 
HETATM   23  C   UNL     1      -4.136  -2.021 -33.198  1.00  0.00     0.010 A 
BRANCH  19  24
HETATM   24  C   UNL     1      -7.197  -0.146 -34.585  1.00  0.00     0.418 C 
HETATM   25  F   UNL     1      -8.022   0.064 -33.521  1.00  0.00    -0.166 F 
HETATM   26  F   UNL     1      -6.684   1.088 -34.876  1.00  0.00    -0.166 F 
HETATM   27  F   UNL     1      -8.002  -0.453 -35.641  1.00  0.00    -0.166 F 
ENDBRANCH  19  24
ENDBRANCH  16  18
ENDBRANCH   1  16
TORSDOF 6
ENDMDL
MODEL 10
REMARK VINA RESULT:      -7.4      4.768      7.537
REMARK  6 active torsions:
REMARK  status: ('A' for Active; 'I' for Inactive)
REMARK    1  A    between atoms: C_8  and  N_9 
REMARK       I    between atoms: N_9  and  C_10 
REMARK    2  A    between atoms: C_10  and  C_11 
REMARK    3  A    between atoms: C_11  and  N_12 
REMARK    4  A    between atoms: N_12  and  C_13 
REMARK    5  A    between atoms: C_13  and  C_14 
REMARK    6  A    between atoms: C_15  and  C_16 
ROOT
HETATM    1  N   UNL     1      -4.678   1.939 -32.376  1.00  0.00     0.100 N 
HETATM    2  H   UNL     1      -4.259   1.646 -33.262  1.00  0.00     0.317 HD
ENDROOT
BRANCH   1   3
HETATM    3  C   UNL     1      -3.578   2.364 -31.478  1.00  0.00     0.372 C 
BRANCH   3   4
HETATM    4  C   UNL     1      -2.897   3.633 -32.014  1.00  0.00     0.250 C 
HETATM    5  N   UNL     1      -2.697   4.577 -31.030  1.00  0.00    -0.322 N 
HETATM    6  H   UNL     1      -2.980   4.285 -30.098  1.00  0.00     0.169 HD
HETATM    7  O   UNL     1      -2.572   3.712 -33.194  1.00  0.00    -0.271 OA
BRANCH   5   8
HETATM    8  C   UNL     1      -2.187   5.855 -31.167  1.00  0.00     0.085 A 
HETATM    9  C   UNL     1      -0.826   6.097 -31.134  1.00  0.00     0.052 A 
HETATM   10  C   UNL     1       0.344   5.202 -30.973  1.00  0.00     0.072 C 
HETATM   11  N   UNL     1      -0.681   7.446 -31.285  1.00  0.00    -0.280 N 
HETATM   12  H   UNL     1       0.177   7.985 -31.309  1.00  0.00     0.189 HD
HETATM   13  N   UNL     1      -1.838   8.103 -31.404  1.00  0.00    -0.177 NA
HETATM   14  C   UNL     1      -2.775   7.145 -31.337  1.00  0.00     0.079 A 
HETATM   15  C   UNL     1      -4.197   7.556 -31.433  1.00  0.00     0.075 C 
ENDBRANCH   5   8
ENDBRANCH   3   4
ENDBRANCH   1   3
BRANCH   1  16
HETATM   16  C   UNL     1      -5.464   0.804 -31.855  1.00  0.00     0.250 C 
HETATM   17  C   UNL     1      -6.751   1.289 -31.167  1.00  0.00     0.048 C 
BRANCH  16  18
HETATM   18  C   UNL     1      -5.626  -0.320 -32.879  1.00  0.00    -0.011 A 
HETATM   19  C   UNL     1      -4.642  -1.336 -33.016  1.00  0.00     0.056 A 
HETATM   20  C   UNL     1      -4.827  -2.343 -33.989  1.00  0.00     0.017 A 
HETATM   21  C   UNL     1      -5.950  -2.358 -34.812  1.00  0.00     0.001 A 
HETATM   22  C   UNL     1      -6.908  -1.361 -34.686  1.00  0.00     0.001 A 
HETATM   23  C   UNL     1      -6.746  -0.355 -33.734  1.00  0.00     0.010 A 
BRANCH  19  24
HETATM   24  C   UNL     1      -3.377  -1.375 -32.179  1.00  0.00     0.418 C 
HETATM   25  F   UNL     1      -2.822  -2.616 -32.085  1.00  0.00    -0.166 F 
HETATM   26  F   UNL     1      -2.381  -0.587 -32.686  1.00  0.00    -0.166 F 
HETATM   27  F   UNL     1      -3.557  -0.936 -30.901  1.00  0.00    -0.166 F 
ENDBRANCH  19  24
ENDBRANCH  16  18
ENDBRANCH   1  16
TORSDOF 6
ENDMDL
