MODEL 1
REMARK VINA RESULT:      -8.0      0.000      0.000
REMARK  6 active torsions:
REMARK  status: ('A' for Active; 'I' for Inactive)
REMARK    1  A    between atoms: C_3  and  O_4 
REMARK    2  A    between atoms: O_4  and  C_5 
REMARK    3  A    between atoms: C_13  and  N_14 
REMARK       I    between atoms: N_14  and  C_15 
REMARK       I    between atoms: C_15  and  N_16 
REMARK    4  A    between atoms: N_16  and  C_17 
REMARK    5  A    between atoms: C_17  and  C_18 
REMARK    6  A    between atoms: C_18  and  C_19 
ROOT
HETATM    1  N   UNL     1      -9.183   0.963 -33.712  1.00  0.00    -0.308 N 
HETATM    2  C   UNL     1      -9.466   2.254 -34.100  1.00  0.00     0.320 C 
HETATM    3  N   UNL     1     -10.685   2.305 -34.748  1.00  0.00    -0.342 N 
HETATM    4  O   UNL     1      -8.796   3.256 -33.886  1.00  0.00    -0.247 OA
HETATM    5  H   UNL     1      -9.971   0.340 -33.778  1.00  0.00     0.170 HD
HETATM    6  H   UNL     1     -10.891   1.511 -35.344  1.00  0.00     0.164 HD
ENDROOT
BRANCH   1   7
HETATM    7  C   UNL     1      -8.039   0.491 -33.025  1.00  0.00     0.045 A 
HETATM    8  C   UNL     1      -7.027  -0.181 -33.753  1.00  0.00    -0.002 A 
HETATM    9  C   UNL     1      -7.133  -0.372 -35.245  1.00  0.00     0.053 C 
HETATM   10  C   UNL     1      -5.932  -0.726 -33.052  1.00  0.00     0.077 A 
HETATM   11  C   UNL     1      -5.783  -0.518 -31.680  1.00  0.00     0.037 A 
HETATM   12  C   UNL     1      -6.758   0.181 -30.979  1.00  0.00     0.005 A 
HETATM   13  C   UNL     1      -7.882   0.673 -31.646  1.00  0.00     0.030 A 
BRANCH  10  14
HETATM   14  O   UNL     1      -4.997  -1.429 -33.771  1.00  0.00    -0.345 OA
BRANCH  14  15
HETATM   15  C   UNL     1      -5.025  -2.842 -33.567  1.00  0.00     0.129 C 
HETATM   16  C   UNL     1      -5.314  -3.650 -34.832  1.00  0.00     0.032 C 
HETATM   17  C   UNL     1      -4.782  -5.031 -34.488  1.00  0.00     0.002 C 
HETATM   18  C   UNL     1      -3.531  -4.770 -33.655  1.00  0.00     0.002 C 
HETATM   19  C   UNL     1      -3.616  -3.315 -33.198  1.00  0.00     0.032 C 
ENDBRANCH  14  15
ENDBRANCH  10  14
ENDBRANCH   1   7
BRANCH   3  20
HETATM   20  C   UNL     1     -11.196   3.573 -35.251  1.00  0.00     0.132 C 
BRANCH  20  21
HETATM   21  C   UNL     1     -12.709   3.716 -35.085  1.00  0.00     0.102 C 
BRANCH  21  22
HETATM   22  C   UNL     1     -13.310   2.567 -34.353  1.00  0.00     0.148 A 
HETATM   23  N   UNL     1     -13.430   2.542 -33.019  1.00  0.00    -0.158 NA
HETATM   24  N   UNL     1     -14.019   1.352 -32.822  1.00  0.00    -0.270 N 
HETATM   25  H   UNL     1     -14.246   1.059 -31.878  1.00  0.00     0.190 HD
HETATM   26  C   UNL     1     -14.220   0.703 -33.999  1.00  0.00     0.227 A 
HETATM   27  N   UNL     1     -13.781   1.441 -34.990  1.00  0.00    -0.226 NA
ENDBRANCH  21  22
ENDBRANCH  20  21
ENDBRANCH   3  20
TORSDOF 6
ENDMDL
MODEL 2
REMARK VINA RESULT:      -8.0      1.521      2.229
REMARK  6 active torsions:
REMARK  status: ('A' for Active; 'I' for Inactive)
REMARK    1  A    between atoms: C_3  and  O_4 
REMARK    2  A    between atoms: O_4  and  C_5 
REMARK    3  A    between atoms: C_13  and  N_14 
REMARK       I    between atoms: N_14  and  C_15 
REMARK       I    between atoms: C_15  and  N_16 
REMARK    4  A    between atoms: N_16  and  C_17 
REMARK    5  A    between atoms: C_17  and  C_18 
REMARK    6  A    between atoms: C_18  and  C_19 
ROOT
HETATM    1  N   UNL     1      -9.327   0.734 -32.972  1.00  0.00    -0.308 N 
HETATM    2  C   UNL     1     -10.504   0.019 -32.935  1.00  0.00     0.320 C 
HETATM    3  N   UNL     1     -11.538   0.768 -33.463  1.00  0.00    -0.342 N 
HETATM    4  O   UNL     1     -10.660  -1.132 -32.549  1.00  0.00    -0.247 OA
HETATM    5  H   UNL     1      -9.377   1.564 -33.541  1.00  0.00     0.170 HD
HETATM    6  H   UNL     1     -11.509   1.758 -33.246  1.00  0.00     0.164 HD
ENDROOT
BRANCH   1   7
HETATM    7  C   UNL     1      -8.046   0.326 -32.530  1.00  0.00     0.045 A 
HETATM    8  C   UNL     1      -7.180  -0.328 -33.441  1.00  0.00    -0.002 A 
HETATM    9  C   UNL     1      -7.586  -0.565 -34.874  1.00  0.00     0.053 C 
HETATM   10  C   UNL     1      -5.940  -0.810 -32.974  1.00  0.00     0.077 A 
HETATM   11  C   UNL     1      -5.518  -0.558 -31.668  1.00  0.00     0.037 A 
HETATM   12  C   UNL     1      -6.354   0.123 -30.793  1.00  0.00     0.005 A 
HETATM   13  C   UNL     1      -7.613   0.552 -31.219  1.00  0.00     0.030 A 
BRANCH  10  14
HETATM   14  O   UNL     1      -5.146  -1.498 -33.859  1.00  0.00    -0.345 OA
BRANCH  14  15
HETATM   15  C   UNL     1      -5.122  -2.913 -33.665  1.00  0.00     0.129 C 
HETATM   16  C   UNL     1      -5.438  -3.721 -34.923  1.00  0.00     0.032 C 
HETATM   17  C   UNL     1      -4.848  -5.086 -34.612  1.00  0.00     0.002 C 
HETATM   18  C   UNL     1      -3.572  -4.791 -33.831  1.00  0.00     0.002 C 
HETATM   19  C   UNL     1      -3.684  -3.342 -33.359  1.00  0.00     0.032 C 
ENDBRANCH  14  15
ENDBRANCH  10  14
ENDBRANCH   1   7
BRANCH   3  20
HETATM   20  C   UNL     1     -12.885   0.216 -33.529  1.00  0.00     0.132 C 
BRANCH  20  21
HETATM   21  C   UNL     1     -13.840   1.069 -34.364  1.00  0.00     0.102 C 
BRANCH  21  22
HETATM   22  C   UNL     1     -13.147   2.200 -35.040  1.00  0.00     0.148 A 
HETATM   23  N   UNL     1     -12.556   2.076 -36.236  1.00  0.00    -0.158 NA
HETATM   24  N   UNL     1     -12.091   3.319 -36.438  1.00  0.00    -0.270 N 
HETATM   25  H   UNL     1     -11.591   3.530 -37.295  1.00  0.00     0.190 HD
HETATM   26  C   UNL     1     -12.387   4.131 -35.390  1.00  0.00     0.227 A 
HETATM   27  N   UNL     1     -13.054   3.456 -34.484  1.00  0.00    -0.226 NA
ENDBRANCH  21  22
ENDBRANCH  20  21
ENDBRANCH   3  20
TORSDOF 6
ENDMDL
MODEL 3
REMARK VINA RESULT:      -7.6      6.636      8.990
REMARK  6 active torsions:
REMARK  status: ('A' for Active; 'I' for Inactive)
REMARK    1  A    between atoms: C_3  and  O_4 
REMARK    2  A    between atoms: O_4  and  C_5 
REMARK    3  A    between atoms: C_13  and  N_14 
REMARK       I    between atoms: N_14  and  C_15 
REMARK       I    between atoms: C_15  and  N_16 
REMARK    4  A    between atoms: N_16  and  C_17 
REMARK    5  A    between atoms: C_17  and  C_18 
REMARK    6  A    between atoms: C_18  and  C_19 
ROOT
HETATM    1  N   UNL     1      -3.065   3.702 -31.275  1.00  0.00    -0.308 N 
HETATM    2  C   UNL     1      -2.019   4.387 -31.854  1.00  0.00     0.320 C 
HETATM    3  N   UNL     1      -1.151   4.849 -30.883  1.00  0.00    -0.342 N 
HETATM    4  O   UNL     1      -1.812   4.551 -33.049  1.00  0.00    -0.247 OA
HETATM    5  H   UNL     1      -2.917   3.485 -30.302  1.00  0.00     0.170 HD
HETATM    6  H   UNL     1      -1.592   5.170 -30.028  1.00  0.00     0.164 HD
ENDROOT
BRANCH   1   7
HETATM    7  C   UNL     1      -4.159   3.077 -31.919  1.00  0.00     0.045 A 
HETATM    8  C   UNL     1      -4.307   1.672 -31.817  1.00  0.00    -0.002 A 
HETATM    9  C   UNL     1      -3.341   0.841 -31.010  1.00  0.00     0.053 C 
HETATM   10  C   UNL     1      -5.347   1.043 -32.532  1.00  0.00     0.077 A 
HETATM   11  C   UNL     1      -6.285   1.793 -33.242  1.00  0.00     0.037 A 
HETATM   12  C   UNL     1      -6.160   3.175 -33.301  1.00  0.00     0.005 A 
HETATM   13  C   UNL     1      -5.099   3.810 -32.653  1.00  0.00     0.030 A 
BRANCH  10  14
HETATM   14  O   UNL     1      -5.430  -0.327 -32.469  1.00  0.00    -0.345 OA
BRANCH  14  15
HETATM   15  C   UNL     1      -5.522  -0.978 -33.737  1.00  0.00     0.129 C 
HETATM   16  C   UNL     1      -4.545  -2.141 -33.913  1.00  0.00     0.032 C 
HETATM   17  C   UNL     1      -5.175  -2.951 -35.034  1.00  0.00     0.002 C 
HETATM   18  C   UNL     1      -6.677  -2.851 -34.792  1.00  0.00     0.002 C 
HETATM   19  C   UNL     1      -6.879  -1.680 -33.832  1.00  0.00     0.032 C 
ENDBRANCH  14  15
ENDBRANCH  10  14
ENDBRANCH   1   7
BRANCH   3  20
HETATM   20  C   UNL     1       0.035   5.605 -31.259  1.00  0.00     0.132 C 
BRANCH  20  21
HETATM   21  C   UNL     1       0.285   6.813 -30.356  1.00  0.00     0.102 C 
BRANCH  21  22
HETATM   22  C   UNL     1      -0.245   6.612 -28.979  1.00  0.00     0.148 A 
HETATM   23  N   UNL     1       0.319   5.769 -28.104  1.00  0.00    -0.158 NA
HETATM   24  N   UNL     1      -0.471   5.925 -27.030  1.00  0.00    -0.270 N 
HETATM   25  H   UNL     1      -0.272   5.401 -26.185  1.00  0.00     0.190 HD
HETATM   26  C   UNL     1      -1.467   6.816 -27.279  1.00  0.00     0.227 A 
HETATM   27  N   UNL     1      -1.356   7.269 -28.505  1.00  0.00    -0.226 NA
ENDBRANCH  21  22
ENDBRANCH  20  21
ENDBRANCH   3  20
TORSDOF 6
ENDMDL
MODEL 4
REMARK VINA RESULT:      -7.4      6.354      9.501
REMARK  6 active torsions:
REMARK  status: ('A' for Active; 'I' for Inactive)
REMARK    1  A    between atoms: C_3  and  O_4 
REMARK    2  A    between atoms: O_4  and  C_5 
REMARK    3  A    between atoms: C_13  and  N_14 
REMARK       I    between atoms: N_14  and  C_15 
REMARK       I    between atoms: C_15  and  N_16 
REMARK    4  A    between atoms: N_16  and  C_17 
REMARK    5  A    between atoms: C_17  and  C_18 
REMARK    6  A    between atoms: C_18  and  C_19 
ROOT
HETATM    1  N   UNL     1      -3.177   3.122 -31.107  1.00  0.00    -0.308 N 
HETATM    2  C   UNL     1      -2.635   3.902 -32.105  1.00  0.00     0.320 C 
HETATM    3  N   UNL     1      -1.835   4.889 -31.563  1.00  0.00    -0.342 N 
HETATM    4  O   UNL     1      -2.769   3.758 -33.313  1.00  0.00    -0.247 OA
HETATM    5  H   UNL     1      -2.751   3.268 -30.205  1.00  0.00     0.170 HD
HETATM    6  H   UNL     1      -2.173   5.291 -30.696  1.00  0.00     0.164 HD
ENDROOT
BRANCH   1   7
HETATM    7  C   UNL     1      -4.045   2.012 -31.242  1.00  0.00     0.045 A 
HETATM    8  C   UNL     1      -5.443   2.217 -31.149  1.00  0.00    -0.002 A 
HETATM    9  C   UNL     1      -6.020   3.595 -30.942  1.00  0.00     0.053 C 
HETATM   10  C   UNL     1      -6.299   1.098 -31.198  1.00  0.00     0.077 A 
HETATM   11  C   UNL     1      -5.796  -0.180 -31.442  1.00  0.00     0.037 A 
HETATM   12  C   UNL     1      -4.426  -0.368 -31.577  1.00  0.00     0.005 A 
HETATM   13  C   UNL     1      -3.557   0.720 -31.468  1.00  0.00     0.030 A 
BRANCH  10  14
HETATM   14  O   UNL     1      -7.646   1.315 -31.040  1.00  0.00    -0.345 OA
BRANCH  14  15
HETATM   15  C   UNL     1      -8.413   1.209 -32.241  1.00  0.00     0.129 C 
HETATM   16  C   UNL     1      -9.468   0.104 -32.213  1.00  0.00     0.032 C 
HETATM   17  C   UNL     1     -10.440   0.528 -33.300  1.00  0.00     0.002 C 
HETATM   18  C   UNL     1     -10.491   2.050 -33.207  1.00  0.00     0.002 C 
HETATM   19  C   UNL     1      -9.270   2.469 -32.389  1.00  0.00     0.032 C 
ENDBRANCH  14  15
ENDBRANCH  10  14
ENDBRANCH   1   7
BRANCH   3  20
HETATM   20  C   UNL     1      -1.154   5.840 -32.431  1.00  0.00     0.132 C 
BRANCH  20  21
HETATM   21  C   UNL     1       0.034   6.523 -31.753  1.00  0.00     0.102 C 
BRANCH  21  22
HETATM   22  C   UNL     1       0.429   5.848 -30.485  1.00  0.00     0.148 A 
HETATM   23  N   UNL     1       0.996   4.634 -30.458  1.00  0.00    -0.158 NA
HETATM   24  N   UNL     1       1.177   4.449 -29.141  1.00  0.00    -0.270 N 
HETATM   25  H   UNL     1       1.609   3.593 -28.814  1.00  0.00     0.190 HD
HETATM   26  C   UNL     1       0.718   5.512 -28.429  1.00  0.00     0.227 A 
HETATM   27  N   UNL     1       0.235   6.416 -29.247  1.00  0.00    -0.226 NA
ENDBRANCH  21  22
ENDBRANCH  20  21
ENDBRANCH   3  20
TORSDOF 6
ENDMDL
MODEL 5
REMARK VINA RESULT:      -7.3      5.188      8.213
REMARK  6 active torsions:
REMARK  status: ('A' for Active; 'I' for Inactive)
REMARK    1  A    between atoms: C_3  and  O_4 
REMARK    2  A    between atoms: O_4  and  C_5 
REMARK    3  A    between atoms: C_13  and  N_14 
REMARK       I    between atoms: N_14  and  C_15 
REMARK       I    between atoms: C_15  and  N_16 
REMARK    4  A    between atoms: N_16  and  C_17 
REMARK    5  A    between atoms: C_17  and  C_18 
REMARK    6  A    between atoms: C_18  and  C_19 
ROOT
HETATM    1  N   UNL     1      -6.095   0.740 -33.169  1.00  0.00    -0.308 N 
HETATM    2  C   UNL     1      -6.557  -0.125 -34.137  1.00  0.00     0.320 C 
HETATM    3  N   UNL     1      -6.488  -1.430 -33.688  1.00  0.00    -0.342 N 
HETATM    4  O   UNL     1      -7.019   0.166 -35.232  1.00  0.00    -0.247 OA
HETATM    5  H   UNL     1      -5.985   0.312 -32.264  1.00  0.00     0.170 HD
HETATM    6  H   UNL     1      -5.676  -1.649 -33.120  1.00  0.00     0.164 HD
ENDROOT
BRANCH   1   7
HETATM    7  C   UNL     1      -6.002   2.151 -33.235  1.00  0.00     0.045 A 
HETATM    8  C   UNL     1      -4.834   2.787 -32.749  1.00  0.00    -0.002 A 
HETATM    9  C   UNL     1      -3.680   1.988 -32.196  1.00  0.00     0.053 C 
HETATM   10  C   UNL     1      -4.781   4.196 -32.736  1.00  0.00     0.077 A 
HETATM   11  C   UNL     1      -5.811   4.957 -33.289  1.00  0.00     0.037 A 
HETATM   12  C   UNL     1      -6.935   4.324 -33.805  1.00  0.00     0.005 A 
HETATM   13  C   UNL     1      -7.033   2.932 -33.768  1.00  0.00     0.030 A 
BRANCH  10  14
HETATM   14  O   UNL     1      -3.665   4.790 -32.200  1.00  0.00    -0.345 OA
BRANCH  14  15
HETATM   15  C   UNL     1      -2.998   5.705 -33.072  1.00  0.00     0.129 C 
HETATM   16  C   UNL     1      -1.847   6.466 -32.417  1.00  0.00     0.032 C 
HETATM   17  C   UNL     1      -1.016   6.922 -33.604  1.00  0.00     0.002 C 
HETATM   18  C   UNL     1      -1.098   5.773 -34.603  1.00  0.00     0.002 C 
HETATM   19  C   UNL     1      -2.277   4.907 -34.163  1.00  0.00     0.032 C 
ENDBRANCH  14  15
ENDBRANCH  10  14
ENDBRANCH   1   7
BRANCH   3  20
HETATM   20  C   UNL     1      -6.924  -2.524 -34.543  1.00  0.00     0.132 C 
BRANCH  20  21
HETATM   21  C   UNL     1      -5.780  -3.158 -35.335  1.00  0.00     0.102 C 
BRANCH  21  22
HETATM   22  C   UNL     1      -4.872  -3.963 -34.473  1.00  0.00     0.148 A 
HETATM   23  N   UNL     1      -4.884  -5.303 -34.462  1.00  0.00    -0.158 NA
HETATM   24  N   UNL     1      -3.919  -5.576 -33.571  1.00  0.00    -0.270 N 
HETATM   25  H   UNL     1      -3.694  -6.542 -33.360  1.00  0.00     0.190 HD
HETATM   26  C   UNL     1      -3.376  -4.435 -33.071  1.00  0.00     0.227 A 
HETATM   27  N   UNL     1      -3.956  -3.394 -33.618  1.00  0.00    -0.226 NA
ENDBRANCH  21  22
ENDBRANCH  20  21
ENDBRANCH   3  20
TORSDOF 6
ENDMDL
MODEL 6
REMARK VINA RESULT:      -7.1      5.895      7.920
REMARK  6 active torsions:
REMARK  status: ('A' for Active; 'I' for Inactive)
REMARK    1  A    between atoms: C_3  and  O_4 
REMARK    2  A    between atoms: O_4  and  C_5 
REMARK    3  A    between atoms: C_13  and  N_14 
REMARK       I    between atoms: N_14  and  C_15 
REMARK       I    between atoms: C_15  and  N_16 
REMARK    4  A    between atoms: N_16  and  C_17 
REMARK    5  A    between atoms: C_17  and  C_18 
REMARK    6  A    between atoms: C_18  and  C_19 
ROOT
HETATM    1  N   UNL     1      -4.309   4.174 -30.374  1.00  0.00    -0.308 N 
HETATM    2  C   UNL     1      -4.186   5.507 -30.700  1.00  0.00     0.320 C 
HETATM    3  N   UNL     1      -3.140   6.078 -30.001  1.00  0.00    -0.342 N 
HETATM    4  O   UNL     1      -4.846   6.134 -31.518  1.00  0.00    -0.247 OA
HETATM    5  H   UNL     1      -3.522   3.809 -29.862  1.00  0.00     0.170 HD
HETATM    6  H   UNL     1      -3.027   5.749 -29.048  1.00  0.00     0.164 HD
ENDROOT
BRANCH   1   7
HETATM    7  C   UNL     1      -5.250   3.240 -30.868  1.00  0.00     0.045 A 
HETATM    8  C   UNL     1      -4.885   2.401 -31.949  1.00  0.00    -0.002 A 
HETATM    9  C   UNL     1      -3.506   2.464 -32.557  1.00  0.00     0.053 C 
HETATM   10  C   UNL     1      -5.853   1.533 -32.495  1.00  0.00     0.077 A 
HETATM   11  C   UNL     1      -7.118   1.417 -31.920  1.00  0.00     0.037 A 
HETATM   12  C   UNL     1      -7.456   2.211 -30.830  1.00  0.00     0.005 A 
HETATM   13  C   UNL     1      -6.531   3.123 -30.316  1.00  0.00     0.030 A 
BRANCH  10  14
HETATM   14  O   UNL     1      -5.494   0.777 -33.584  1.00  0.00    -0.345 OA
BRANCH  14  15
HETATM   15  C   UNL     1      -5.861  -0.601 -33.502  1.00  0.00     0.129 C 
HETATM   16  C   UNL     1      -6.766  -1.075 -34.638  1.00  0.00     0.032 C 
HETATM   17  C   UNL     1      -6.573  -2.582 -34.627  1.00  0.00     0.002 C 
HETATM   18  C   UNL     1      -5.100  -2.783 -34.285  1.00  0.00     0.002 C 
HETATM   19  C   UNL     1      -4.608  -1.457 -33.709  1.00  0.00     0.032 C 
ENDBRANCH  14  15
ENDBRANCH  10  14
ENDBRANCH   1   7
BRANCH   3  20
HETATM   20  C   UNL     1      -2.818   7.487 -30.183  1.00  0.00     0.132 C 
BRANCH  20  21
HETATM   21  C   UNL     1      -1.495   7.708 -30.917  1.00  0.00     0.102 C 
BRANCH  21  22
HETATM   22  C   UNL     1      -1.529   7.193 -32.314  1.00  0.00     0.148 A 
HETATM   23  N   UNL     1      -1.800   7.976 -33.367  1.00  0.00    -0.158 NA
HETATM   24  N   UNL     1      -1.710   7.104 -34.384  1.00  0.00    -0.270 N 
HETATM   25  H   UNL     1      -1.862   7.428 -35.332  1.00  0.00     0.190 HD
HETATM   26  C   UNL     1      -1.412   5.857 -33.935  1.00  0.00     0.227 A 
HETATM   27  N   UNL     1      -1.293   5.875 -32.629  1.00  0.00    -0.226 NA
ENDBRANCH  21  22
ENDBRANCH  20  21
ENDBRANCH   3  20
TORSDOF 6
ENDMDL
MODEL 7
REMARK VINA RESULT:      -7.1      2.422      3.064
REMARK  6 active torsions:
REMARK  status: ('A' for Active; 'I' for Inactive)
REMARK    1  A    between atoms: C_3  and  O_4 
REMARK    2  A    between atoms: O_4  and  C_5 
REMARK    3  A    between atoms: C_13  and  N_14 
REMARK       I    between atoms: N_14  and  C_15 
REMARK       I    between atoms: C_15  and  N_16 
REMARK    4  A    between atoms: N_16  and  C_17 
REMARK    5  A    between atoms: C_17  and  C_18 
REMARK    6  A    between atoms: C_18  and  C_19 
ROOT
HETATM    1  N   UNL     1      -9.732   2.632 -30.526  1.00  0.00    -0.308 N 
HETATM    2  C   UNL     1     -10.445   3.807 -30.630  1.00  0.00     0.320 C 
HETATM    3  N   UNL     1     -11.750   3.615 -30.219  1.00  0.00    -0.342 N 
HETATM    4  O   UNL     1     -10.024   4.901 -30.982  1.00  0.00    -0.247 OA
HETATM    5  H   UNL     1     -10.206   1.919 -29.995  1.00  0.00     0.170 HD
HETATM    6  H   UNL     1     -12.155   2.720 -30.471  1.00  0.00     0.164 HD
ENDROOT
BRANCH   1   7
HETATM    7  C   UNL     1      -8.372   2.408 -30.845  1.00  0.00     0.045 A 
HETATM    8  C   UNL     1      -8.046   1.806 -32.084  1.00  0.00    -0.002 A 
HETATM    9  C   UNL     1      -9.117   1.432 -33.078  1.00  0.00     0.053 C 
HETATM   10  C   UNL     1      -6.696   1.506 -32.361  1.00  0.00     0.077 A 
HETATM   11  C   UNL     1      -5.682   1.888 -31.484  1.00  0.00     0.037 A 
HETATM   12  C   UNL     1      -6.005   2.520 -30.289  1.00  0.00     0.005 A 
HETATM   13  C   UNL     1      -7.341   2.768 -29.969  1.00  0.00     0.030 A 
BRANCH  10  14
HETATM   14  O   UNL     1      -6.412   0.863 -33.542  1.00  0.00    -0.345 OA
BRANCH  14  15
HETATM   15  C   UNL     1      -6.305  -0.558 -33.437  1.00  0.00     0.129 C 
HETATM   16  C   UNL     1      -6.999  -1.321 -34.565  1.00  0.00     0.032 C 
HETATM   17  C   UNL     1      -6.320  -2.679 -34.531  1.00  0.00     0.002 C 
HETATM   18  C   UNL     1      -4.864  -2.379 -34.188  1.00  0.00     0.002 C 
HETATM   19  C   UNL     1      -4.839  -0.956 -33.633  1.00  0.00     0.032 C 
ENDBRANCH  14  15
ENDBRANCH  10  14
ENDBRANCH   1   7
BRANCH   3  20
HETATM   20  C   UNL     1     -12.696   4.722 -30.240  1.00  0.00     0.132 C 
BRANCH  20  21
HETATM   21  C   UNL     1     -13.532   4.769 -31.520  1.00  0.00     0.102 C 
BRANCH  21  22
HETATM   22  C   UNL     1     -13.717   3.422 -32.126  1.00  0.00     0.148 A 
HETATM   23  N   UNL     1     -14.662   2.566 -31.713  1.00  0.00    -0.158 NA
HETATM   24  N   UNL     1     -14.460   1.523 -32.532  1.00  0.00    -0.270 N 
HETATM   25  H   UNL     1     -15.054   0.705 -32.452  1.00  0.00     0.190 HD
HETATM   26  C   UNL     1     -13.426   1.758 -33.381  1.00  0.00     0.227 A 
HETATM   27  N   UNL     1     -12.929   2.950 -33.151  1.00  0.00    -0.226 NA
ENDBRANCH  21  22
ENDBRANCH  20  21
ENDBRANCH   3  20
TORSDOF 6
ENDMDL
MODEL 8
REMARK VINA RESULT:      -7.0      6.384      8.643
REMARK  6 active torsions:
REMARK  status: ('A' for Active; 'I' for Inactive)
REMARK    1  A    between atoms: C_3  and  O_4 
REMARK    2  A    between atoms: O_4  and  C_5 
REMARK    3  A    between atoms: C_13  and  N_14 
REMARK       I    between atoms: N_14  and  C_15 
REMARK       I    between atoms: C_15  and  N_16 
REMARK    4  A    between atoms: N_16  and  C_17 
REMARK    5  A    between atoms: C_17  and  C_18 
REMARK    6  A    between atoms: C_18  and  C_19 
ROOT
HETATM    1  N   UNL     1      -4.424   4.409 -30.169  1.00  0.00    -0.308 N 
HETATM    2  C   UNL     1      -4.282   5.745 -30.474  1.00  0.00     0.320 C 
HETATM    3  N   UNL     1      -3.251   6.299 -29.741  1.00  0.00    -0.342 N 
HETATM    4  O   UNL     1      -4.916   6.388 -31.301  1.00  0.00    -0.247 OA
HETATM    5  H   UNL     1      -3.653   4.031 -29.642  1.00  0.00     0.170 HD
HETATM    6  H   UNL     1      -3.164   5.956 -28.790  1.00  0.00     0.164 HD
ENDROOT
BRANCH   1   7
HETATM    7  C   UNL     1      -5.360   3.489 -30.700  1.00  0.00     0.045 A 
HETATM    8  C   UNL     1      -4.985   2.687 -31.805  1.00  0.00    -0.002 A 
HETATM    9  C   UNL     1      -3.602   2.774 -32.402  1.00  0.00     0.053 C 
HETATM   10  C   UNL     1      -5.947   1.835 -32.386  1.00  0.00     0.077 A 
HETATM   11  C   UNL     1      -7.216   1.697 -31.822  1.00  0.00     0.037 A 
HETATM   12  C   UNL     1      -7.562   2.454 -30.710  1.00  0.00     0.005 A 
HETATM   13  C   UNL     1      -6.643   3.351 -30.160  1.00  0.00     0.030 A 
BRANCH  10  14
HETATM   14  O   UNL     1      -5.579   1.116 -33.497  1.00  0.00    -0.345 OA
BRANCH  14  15
HETATM   15  C   UNL     1      -5.955  -0.261 -33.468  1.00  0.00     0.129 C 
HETATM   16  C   UNL     1      -6.717  -0.727 -34.709  1.00  0.00     0.032 C 
HETATM   17  C   UNL     1      -6.528  -2.234 -34.683  1.00  0.00     0.002 C 
HETATM   18  C   UNL     1      -5.107  -2.441 -34.168  1.00  0.00     0.002 C 
HETATM   19  C   UNL     1      -4.687  -1.118 -33.528  1.00  0.00     0.032 C 
ENDBRANCH  14  15
ENDBRANCH  10  14
ENDBRANCH   1   7
BRANCH   3  20
HETATM   20  C   UNL     1      -2.913   7.707 -29.897  1.00  0.00     0.132 C 
BRANCH  20  21
HETATM   21  C   UNL     1      -1.435   8.000 -29.636  1.00  0.00     0.102 C 
BRANCH  21  22
HETATM   22  C   UNL     1      -0.626   6.757 -29.502  1.00  0.00     0.148 A 
HETATM   23  N   UNL     1      -0.227   6.279 -28.315  1.00  0.00    -0.158 NA
HETATM   24  N   UNL     1       0.443   5.174 -28.680  1.00  0.00    -0.270 N 
HETATM   25  H   UNL     1       0.861   4.588 -27.967  1.00  0.00     0.190 HD
HETATM   26  C   UNL     1       0.444   5.025 -30.031  1.00  0.00     0.227 A 
HETATM   27  N   UNL     1      -0.221   6.011 -30.584  1.00  0.00    -0.226 NA
ENDBRANCH  21  22
ENDBRANCH  20  21
ENDBRANCH   3  20
TORSDOF 6
ENDMDL
MODEL 9
REMARK VINA RESULT:      -7.0      1.810      2.233
REMARK  6 active torsions:
REMARK  status: ('A' for Active; 'I' for Inactive)
REMARK    1  A    between atoms: C_3  and  O_4 
REMARK    2  A    between atoms: O_4  and  C_5 
REMARK    3  A    between atoms: C_13  and  N_14 
REMARK       I    between atoms: N_14  and  C_15 
REMARK       I    between atoms: C_15  and  N_16 
REMARK    4  A    between atoms: N_16  and  C_17 
REMARK    5  A    between atoms: C_17  and  C_18 
REMARK    6  A    between atoms: C_18  and  C_19 
ROOT
HETATM    1  N   UNL     1      -7.427   2.675 -32.358  1.00  0.00    -0.308 N 
HETATM    2  C   UNL     1      -8.708   2.693 -31.850  1.00  0.00     0.320 C 
HETATM    3  N   UNL     1      -9.356   3.855 -32.219  1.00  0.00    -0.342 N 
HETATM    4  O   UNL     1      -9.260   1.813 -31.201  1.00  0.00    -0.247 OA
HETATM    5  H   UNL     1      -7.260   3.384 -33.054  1.00  0.00     0.170 HD
HETATM    6  H   UNL     1      -8.776   4.687 -32.233  1.00  0.00     0.164 HD
ENDROOT
BRANCH   1   7
HETATM    7  C   UNL     1      -6.445   1.667 -32.209  1.00  0.00     0.045 A 
HETATM    8  C   UNL     1      -6.176   0.802 -33.297  1.00  0.00    -0.002 A 
HETATM    9  C   UNL     1      -6.891   0.957 -34.615  1.00  0.00     0.053 C 
HETATM   10  C   UNL     1      -5.260  -0.255 -33.116  1.00  0.00     0.077 A 
HETATM   11  C   UNL     1      -4.546  -0.389 -31.925  1.00  0.00     0.037 A 
HETATM   12  C   UNL     1      -4.783   0.491 -30.876  1.00  0.00     0.005 A 
HETATM   13  C   UNL     1      -5.733   1.505 -31.015  1.00  0.00     0.030 A 
BRANCH  10  14
HETATM   14  O   UNL     1      -5.064  -1.119 -34.165  1.00  0.00    -0.345 OA
BRANCH  14  15
HETATM   15  C   UNL     1      -5.543  -2.446 -33.943  1.00  0.00     0.129 C 
HETATM   16  C   UNL     1      -6.770  -2.815 -34.776  1.00  0.00     0.032 C 
HETATM   17  C   UNL     1      -6.747  -4.334 -34.770  1.00  0.00     0.002 C 
HETATM   18  C   UNL     1      -5.268  -4.702 -34.833  1.00  0.00     0.002 C 
HETATM   19  C   UNL     1      -4.496  -3.440 -34.454  1.00  0.00     0.032 C 
ENDBRANCH  14  15
ENDBRANCH  10  14
ENDBRANCH   1   7
BRANCH   3  20
HETATM   20  C   UNL     1     -10.728   4.098 -31.796  1.00  0.00     0.132 C 
BRANCH  20  21
HETATM   21  C   UNL     1     -11.678   4.358 -32.965  1.00  0.00     0.102 C 
BRANCH  21  22
HETATM   22  C   UNL     1     -11.824   3.170 -33.852  1.00  0.00     0.148 A 
HETATM   23  N   UNL     1     -10.950   2.882 -34.825  1.00  0.00    -0.158 NA
HETATM   24  N   UNL     1     -11.471   1.754 -35.332  1.00  0.00    -0.270 N 
HETATM   25  H   UNL     1     -11.001   1.290 -36.101  1.00  0.00     0.190 HD
HETATM   26  C   UNL     1     -12.615   1.408 -34.686  1.00  0.00     0.227 A 
HETATM   27  N   UNL     1     -12.871   2.284 -33.743  1.00  0.00    -0.226 NA
ENDBRANCH  21  22
ENDBRANCH  20  21
ENDBRANCH   3  20
TORSDOF 6
ENDMDL
MODEL 10
REMARK VINA RESULT:      -7.0      7.065      9.469
REMARK  6 active torsions:
REMARK  status: ('A' for Active; 'I' for Inactive)
REMARK    1  A    between atoms: C_3  and  O_4 
REMARK    2  A    between atoms: O_4  and  C_5 
REMARK    3  A    between atoms: C_13  and  N_14 
REMARK       I    between atoms: N_14  and  C_15 
REMARK       I    between atoms: C_15  and  N_16 
REMARK    4  A    between atoms: N_16  and  C_17 
REMARK    5  A    between atoms: C_17  and  C_18 
REMARK    6  A    between atoms: C_18  and  C_19 
ROOT
HETATM    1  N   UNL     1      -3.240   5.016 -31.141  1.00  0.00    -0.308 N 
HETATM    2  C   UNL     1      -1.863   5.002 -31.179  1.00  0.00     0.320 C 
HETATM    3  N   UNL     1      -1.345   5.534 -30.014  1.00  0.00    -0.342 N 
HETATM    4  O   UNL     1      -1.150   4.552 -32.066  1.00  0.00    -0.247 OA
HETATM    5  H   UNL     1      -3.617   5.210 -30.227  1.00  0.00     0.170 HD
HETATM    6  H   UNL     1      -1.860   6.319 -29.631  1.00  0.00     0.164 HD
ENDROOT
BRANCH   1   7
HETATM    7  C   UNL     1      -4.143   4.561 -32.131  1.00  0.00     0.045 A 
HETATM    8  C   UNL     1      -4.890   3.382 -31.893  1.00  0.00    -0.002 A 
HETATM    9  C   UNL     1      -4.765   2.626 -30.594  1.00  0.00     0.053 C 
HETATM   10  C   UNL     1      -5.723   2.885 -32.916  1.00  0.00     0.077 A 
HETATM   11  C   UNL     1      -5.897   3.592 -34.106  1.00  0.00     0.037 A 
HETATM   12  C   UNL     1      -5.195   4.773 -34.316  1.00  0.00     0.005 A 
HETATM   13  C   UNL     1      -4.316   5.247 -33.339  1.00  0.00     0.030 A 
BRANCH  10  14
HETATM   14  O   UNL     1      -6.387   1.706 -32.685  1.00  0.00    -0.345 OA
BRANCH  14  15
HETATM   15  C   UNL     1      -6.164   0.692 -33.666  1.00  0.00     0.129 C 
HETATM   16  C   UNL     1      -5.128  -0.355 -33.258  1.00  0.00     0.032 C 
HETATM   17  C   UNL     1      -5.456  -1.533 -34.160  1.00  0.00     0.002 C 
HETATM   18  C   UNL     1      -6.977  -1.529 -34.272  1.00  0.00     0.002 C 
HETATM   19  C   UNL     1      -7.437  -0.150 -33.802  1.00  0.00     0.032 C 
ENDBRANCH  14  15
ENDBRANCH  10  14
ENDBRANCH   1   7
BRANCH   3  20
HETATM   20  C   UNL     1       0.097   5.624 -29.825  1.00  0.00     0.132 C 
BRANCH  20  21
HETATM   21  C   UNL     1       0.498   6.639 -28.755  1.00  0.00     0.102 C 
BRANCH  21  22
HETATM   22  C   UNL     1      -0.566   6.834 -27.731  1.00  0.00     0.148 A 
HETATM   23  N   UNL     1      -1.494   7.795 -27.827  1.00  0.00    -0.158 NA
HETATM   24  N   UNL     1      -2.220   7.583 -26.718  1.00  0.00    -0.270 N 
HETATM   25  H   UNL     1      -3.021   8.174 -26.526  1.00  0.00     0.190 HD
HETATM   26  C   UNL     1      -1.721   6.544 -25.997  1.00  0.00     0.227 A 
HETATM   27  N   UNL     1      -0.672   6.047 -26.607  1.00  0.00    -0.226 NA
ENDBRANCH  21  22
ENDBRANCH  20  21
ENDBRANCH   3  20
TORSDOF 6
ENDMDL
