MODEL 1
REMARK VINA RESULT:      -9.2      0.000      0.000
REMARK  8 active torsions:
REMARK  status: ('A' for Active; 'I' for Inactive)
REMARK    1  A    between atoms: O_2  and  C_3 
REMARK    2  A    between atoms: C_7  and  C_8 
REMARK       I    between atoms: C_8  and  N_9 
REMARK    3  A    between atoms: N_9  and  C_10 
REMARK    4  A    between atoms: C_10  and  N_11 
REMARK    5  A    between atoms: N_11  and  C_12 
REMARK    6  A    between atoms: C_15  and  N_16 
REMARK    7  A    between atoms: N_19  and  C_21 
REMARK    8  A    between atoms: C_21  and  C_22 
ROOT
HETATM    1  C   UNL     1      -7.564   3.387 -33.590  1.00  0.00     0.034 A 
HETATM    2  C   UNL     1      -6.300   3.231 -34.155  1.00  0.00     0.032 A 
HETATM    3  C   UNL     1      -5.179   3.798 -33.541  1.00  0.00     0.031 A 
HETATM    4  C   UNL     1      -5.288   4.534 -32.351  1.00  0.00     0.030 A 
HETATM    5  C   UNL     1      -6.562   4.671 -31.787  1.00  0.00     0.031 A 
HETATM    6  C   UNL     1      -7.691   4.094 -32.394  1.00  0.00     0.032 A 
ENDROOT
BRANCH   1   7
HETATM    7  N   UNL     1      -8.662   2.812 -34.274  1.00  0.00    -0.333 N 
HETATM    8  H   UNL     1      -9.229   3.494 -34.765  1.00  0.00     0.168 HD
BRANCH   7   9
HETATM    9  C   UNL     1      -9.373   1.745 -33.814  1.00  0.00     0.179 C 
HETATM   10  S   UNL     1     -11.021   1.833 -33.543  1.00  0.00    -0.040 SA
BRANCH   9  11
HETATM   11  N   UNL     1      -8.770   0.511 -33.806  1.00  0.00    -0.299 N 
HETATM   12  C   UNL     1      -7.889  -0.006 -32.865  1.00  0.00     0.257 C 
HETATM   13  O   UNL     1      -7.911   0.287 -31.673  1.00  0.00    -0.267 OA
HETATM   14  H   UNL     1      -8.847   0.062 -34.704  1.00  0.00     0.171 HD
BRANCH  12  15
HETATM   15  C   UNL     1      -6.891  -1.023 -33.335  1.00  0.00     0.034 A 
HETATM   16  C   UNL     1      -7.202  -2.134 -34.129  1.00  0.00     0.044 A 
HETATM   17  C   UNL     1      -6.197  -3.024 -34.569  1.00  0.00     0.068 A 
HETATM   18  C   UNL     1      -4.857  -2.807 -34.222  1.00  0.00     0.089 A 
HETATM   19 CL   UNL     1      -6.774  -4.359 -35.505  1.00  0.00    -0.081 Cl
HETATM   20  C   UNL     1      -4.559  -1.702 -33.412  1.00  0.00     0.039 A 
HETATM   21  C   UNL     1      -5.555  -0.824 -32.974  1.00  0.00     0.020 A 
BRANCH  18  22
HETATM   22  O   UNL     1      -3.732  -3.520 -34.520  1.00  0.00    -0.354 OA
HETATM   23  C   UNL     1      -3.452  -4.742 -33.860  1.00  0.00     0.210 C 
ENDBRANCH  18  22
ENDBRANCH  12  15
ENDBRANCH   9  11
ENDBRANCH   7   9
ENDBRANCH   1   7
BRANCH   4  24
HETATM   24  N   UNL     1      -4.121   5.081 -31.804  1.00  0.00    -0.378 N 
HETATM   25  C   UNL     1      -4.235   5.905 -30.592  1.00  0.00     0.150 C 
HETATM   26  C   UNL     1      -2.945   6.745 -30.434  1.00  0.00     0.255 C 
HETATM   27  N   UNL     1      -1.695   5.856 -30.428  1.00  0.00    -0.064 N 
HETATM   28  H   UNL     1      -1.732   5.284 -29.573  1.00  0.00     0.280 HD
HETATM   29  C   UNL     1      -1.674   4.902 -31.626  1.00  0.00     0.255 C 
HETATM   30  C   UNL     1      -2.997   4.126 -31.770  1.00  0.00     0.150 C 
BRANCH  27  31
HETATM   31  C   UNL     1      -0.408   6.647 -30.376  1.00  0.00     0.276 C 
BRANCH  31  32
HETATM   32  C   UNL     1      -0.060   7.218 -29.036  1.00  0.00     0.006 A 
HETATM   33  C   UNL     1       0.683   6.461 -28.126  1.00  0.00     0.124 A 
HETATM   34  F   UNL     1       1.016   5.203 -28.449  1.00  0.00    -0.206 F 
HETATM   35  C   UNL     1       1.066   6.977 -26.892  1.00  0.00     0.043 A 
HETATM   36  C   UNL     1       0.700   8.277 -26.552  1.00  0.00     0.003 A 
HETATM   37  C   UNL     1      -0.046   9.048 -27.443  1.00  0.00     0.001 A 
HETATM   38  C   UNL     1      -0.424   8.525 -28.682  1.00  0.00     0.012 A 
ENDBRANCH  31  32
ENDBRANCH  27  31
ENDBRANCH   4  24
TORSDOF 8
ENDMDL
MODEL 2
REMARK VINA RESULT:      -9.0      1.431      1.709
REMARK  8 active torsions:
REMARK  status: ('A' for Active; 'I' for Inactive)
REMARK    1  A    between atoms: O_2  and  C_3 
REMARK    2  A    between atoms: C_7  and  C_8 
REMARK       I    between atoms: C_8  and  N_9 
REMARK    3  A    between atoms: N_9  and  C_10 
REMARK    4  A    between atoms: C_10  and  N_11 
REMARK    5  A    between atoms: N_11  and  C_12 
REMARK    6  A    between atoms: C_15  and  N_16 
REMARK    7  A    between atoms: N_19  and  C_21 
REMARK    8  A    between atoms: C_21  and  C_22 
ROOT
HETATM    1  C   UNL     1      -8.296   3.017 -31.298  1.00  0.00     0.034 A 
HETATM    2  C   UNL     1      -7.592   3.016 -30.095  1.00  0.00     0.032 A 
HETATM    3  C   UNL     1      -6.523   3.896 -29.903  1.00  0.00     0.031 A 
HETATM    4  C   UNL     1      -6.126   4.798 -30.903  1.00  0.00     0.030 A 
HETATM    5  C   UNL     1      -6.850   4.798 -32.101  1.00  0.00     0.031 A 
HETATM    6  C   UNL     1      -7.933   3.923 -32.296  1.00  0.00     0.032 A 
ENDROOT
BRANCH   1   7
HETATM    7  N   UNL     1      -9.350   2.083 -31.440  1.00  0.00    -0.333 N 
HETATM    8  H   UNL     1      -9.825   1.881 -30.568  1.00  0.00     0.168 HD
BRANCH   7   9
HETATM    9  C   UNL     1      -9.323   1.028 -32.302  1.00  0.00     0.179 C 
HETATM   10  S   UNL     1     -10.606   0.684 -33.317  1.00  0.00    -0.040 SA
BRANCH   9  11
HETATM   11  N   UNL     1      -8.127   0.387 -32.512  1.00  0.00    -0.299 N 
HETATM   12  C   UNL     1      -7.375   0.338 -33.679  1.00  0.00     0.257 C 
HETATM   13  O   UNL     1      -7.344   1.240 -34.512  1.00  0.00    -0.267 OA
HETATM   14  H   UNL     1      -7.931  -0.270 -31.775  1.00  0.00     0.171 HD
BRANCH  12  15
HETATM   15  C   UNL     1      -6.511  -0.870 -33.897  1.00  0.00     0.034 A 
HETATM   16  C   UNL     1      -6.935  -2.047 -34.525  1.00  0.00     0.044 A 
HETATM   17  C   UNL     1      -6.047  -3.126 -34.733  1.00  0.00     0.068 A 
HETATM   18  C   UNL     1      -4.712  -3.036 -34.317  1.00  0.00     0.089 A 
HETATM   19 CL   UNL     1      -6.758  -4.512 -35.485  1.00  0.00    -0.081 Cl
HETATM   20  C   UNL     1      -4.303  -1.859 -33.673  1.00  0.00     0.039 A 
HETATM   21  C   UNL     1      -5.184  -0.794 -33.465  1.00  0.00     0.020 A 
BRANCH  18  22
HETATM   22  O   UNL     1      -3.688  -3.934 -34.403  1.00  0.00    -0.354 OA
HETATM   23  C   UNL     1      -3.518  -4.938 -33.417  1.00  0.00     0.210 C 
ENDBRANCH  18  22
ENDBRANCH  12  15
ENDBRANCH   9  11
ENDBRANCH   7   9
ENDBRANCH   1   7
BRANCH   4  24
HETATM   24  N   UNL     1      -5.038   5.638 -30.639  1.00  0.00    -0.378 N 
HETATM   25  C   UNL     1      -4.895   6.196 -29.287  1.00  0.00     0.150 C 
HETATM   26  C   UNL     1      -3.930   7.405 -29.343  1.00  0.00     0.255 C 
HETATM   27  N   UNL     1      -2.584   7.018 -29.967  1.00  0.00    -0.064 N 
HETATM   28  H   UNL     1      -2.127   6.359 -29.323  1.00  0.00     0.280 HD
HETATM   29  C   UNL     1      -2.767   6.306 -31.311  1.00  0.00     0.255 C 
HETATM   30  C   UNL     1      -3.773   5.142 -31.215  1.00  0.00     0.150 C 
BRANCH  27  31
HETATM   31  C   UNL     1      -1.650   8.196 -30.132  1.00  0.00     0.276 C 
BRANCH  31  32
HETATM   32  C   UNL     1      -0.762   8.479 -28.959  1.00  0.00     0.006 A 
HETATM   33  C   UNL     1       0.422   7.756 -28.789  1.00  0.00     0.124 A 
HETATM   34  F   UNL     1       0.710   6.770 -29.652  1.00  0.00    -0.206 F 
HETATM   35  C   UNL     1       1.294   8.025 -27.740  1.00  0.00     0.043 A 
HETATM   36  C   UNL     1       0.981   9.037 -26.833  1.00  0.00     0.003 A 
HETATM   37  C   UNL     1      -0.198   9.766 -26.982  1.00  0.00     0.001 A 
HETATM   38  C   UNL     1      -1.067   9.493 -28.041  1.00  0.00     0.012 A 
ENDBRANCH  31  32
ENDBRANCH  27  31
ENDBRANCH   4  24
TORSDOF 8
ENDMDL
MODEL 3
REMARK VINA RESULT:      -9.0      1.509      1.824
REMARK  8 active torsions:
REMARK  status: ('A' for Active; 'I' for Inactive)
REMARK    1  A    between atoms: O_2  and  C_3 
REMARK    2  A    between atoms: C_7  and  C_8 
REMARK       I    between atoms: C_8  and  N_9 
REMARK    3  A    between atoms: N_9  and  C_10 
REMARK    4  A    between atoms: C_10  and  N_11 
REMARK    5  A    between atoms: N_11  and  C_12 
REMARK    6  A    between atoms: C_15  and  N_16 
REMARK    7  A    between atoms: N_19  and  C_21 
REMARK    8  A    between atoms: C_21  and  C_22 
ROOT
HETATM    1  C   UNL     1      -8.387   3.717 -32.821  1.00  0.00     0.034 A 
HETATM    2  C   UNL     1      -7.719   4.386 -33.846  1.00  0.00     0.032 A 
HETATM    3  C   UNL     1      -6.386   4.771 -33.685  1.00  0.00     0.031 A 
HETATM    4  C   UNL     1      -5.681   4.500 -32.501  1.00  0.00     0.030 A 
HETATM    5  C   UNL     1      -6.359   3.815 -31.485  1.00  0.00     0.031 A 
HETATM    6  C   UNL     1      -7.698   3.416 -31.646  1.00  0.00     0.032 A 
ENDROOT
BRANCH   1   7
HETATM    7  N   UNL     1      -9.745   3.379 -33.036  1.00  0.00    -0.333 N 
HETATM    8  H   UNL     1     -10.328   3.530 -32.221  1.00  0.00     0.168 HD
BRANCH   7   9
HETATM    9  C   UNL     1     -10.157   2.339 -33.813  1.00  0.00     0.179 C 
HETATM   10  S   UNL     1     -11.568   2.410 -34.707  1.00  0.00    -0.040 SA
BRANCH   9  11
HETATM   11  N   UNL     1      -9.276   1.314 -34.056  1.00  0.00    -0.299 N 
HETATM   12  C   UNL     1      -9.076   0.160 -33.308  1.00  0.00     0.257 C 
HETATM   13  O   UNL     1      -9.956  -0.394 -32.657  1.00  0.00    -0.267 OA
HETATM   14  H   UNL     1      -8.586   1.580 -34.740  1.00  0.00     0.171 HD
BRANCH  12  15
HETATM   15  C   UNL     1      -7.712  -0.466 -33.351  1.00  0.00     0.034 A 
HETATM   16  C   UNL     1      -7.362  -1.552 -34.163  1.00  0.00     0.044 A 
HETATM   17  C   UNL     1      -6.043  -2.057 -34.179  1.00  0.00     0.068 A 
HETATM   18  C   UNL     1      -5.050  -1.471 -33.383  1.00  0.00     0.089 A 
HETATM   19 CL   UNL     1      -5.807  -3.427 -35.208  1.00  0.00    -0.081 Cl
HETATM   20  C   UNL     1      -5.416  -0.396 -32.562  1.00  0.00     0.039 A 
HETATM   21  C   UNL     1      -6.722   0.101 -32.543  1.00  0.00     0.020 A 
BRANCH  18  22
HETATM   22  O   UNL     1      -3.730  -1.783 -33.231  1.00  0.00    -0.354 OA
HETATM   23  C   UNL     1      -3.184  -2.023 -31.945  1.00  0.00     0.210 C 
ENDBRANCH  18  22
ENDBRANCH  12  15
ENDBRANCH   9  11
ENDBRANCH   7   9
ENDBRANCH   1   7
BRANCH   4  24
HETATM   24  N   UNL     1      -4.352   4.928 -32.411  1.00  0.00    -0.378 N 
HETATM   25  C   UNL     1      -3.299   3.915 -32.247  1.00  0.00     0.150 C 
HETATM   26  C   UNL     1      -2.014   4.606 -31.731  1.00  0.00     0.255 C 
HETATM   27  N   UNL     1      -1.588   5.755 -32.654  1.00  0.00    -0.064 N 
HETATM   28  H   UNL     1      -1.309   5.338 -33.552  1.00  0.00     0.280 HD
HETATM   29  C   UNL     1      -2.746   6.719 -32.928  1.00  0.00     0.255 C 
HETATM   30  C   UNL     1      -4.017   5.979 -33.390  1.00  0.00     0.150 C 
BRANCH  27  31
HETATM   31  C   UNL     1      -0.394   6.520 -32.130  1.00  0.00     0.276 C 
BRANCH  31  32
HETATM   32  C   UNL     1      -0.264   6.563 -30.638  1.00  0.00     0.006 A 
HETATM   33  C   UNL     1       0.556   5.642 -29.981  1.00  0.00     0.124 A 
HETATM   34  F   UNL     1       1.164   4.687 -30.701  1.00  0.00    -0.206 F 
HETATM   35  C   UNL     1       0.738   5.683 -28.603  1.00  0.00     0.043 A 
HETATM   36  C   UNL     1       0.087   6.663 -27.856  1.00  0.00     0.003 A 
HETATM   37  C   UNL     1      -0.740   7.589 -28.492  1.00  0.00     0.001 A 
HETATM   38  C   UNL     1      -0.915   7.544 -29.877  1.00  0.00     0.012 A 
ENDBRANCH  31  32
ENDBRANCH  27  31
ENDBRANCH   4  24
TORSDOF 8
ENDMDL
MODEL 4
REMARK VINA RESULT:      -8.8      8.144     13.771
REMARK  8 active torsions:
REMARK  status: ('A' for Active; 'I' for Inactive)
REMARK    1  A    between atoms: O_2  and  C_3 
REMARK    2  A    between atoms: C_7  and  C_8 
REMARK       I    between atoms: C_8  and  N_9 
REMARK    3  A    between atoms: N_9  and  C_10 
REMARK    4  A    between atoms: C_10  and  N_11 
REMARK    5  A    between atoms: N_11  and  C_12 
REMARK    6  A    between atoms: C_15  and  N_16 
REMARK    7  A    between atoms: N_19  and  C_21 
REMARK    8  A    between atoms: C_21  and  C_22 
ROOT
HETATM    1  C   UNL     1       1.334   9.635 -25.636  1.00  0.00     0.034 A 
HETATM    2  C   UNL     1       0.421  10.056 -26.601  1.00  0.00     0.032 A 
HETATM    3  C   UNL     1       0.092   9.221 -27.673  1.00  0.00     0.031 A 
HETATM    4  C   UNL     1       0.664   7.947 -27.812  1.00  0.00     0.030 A 
HETATM    5  C   UNL     1       1.569   7.531 -26.829  1.00  0.00     0.031 A 
HETATM    6  C   UNL     1       1.895   8.362 -25.743  1.00  0.00     0.032 A 
ENDROOT
BRANCH   1   7
HETATM    7  N   UNL     1       1.645  10.537 -24.591  1.00  0.00    -0.333 N 
HETATM    8  H   UNL     1       2.423  11.150 -24.810  1.00  0.00     0.168 HD
BRANCH   7   9
HETATM    9  C   UNL     1       1.551  10.231 -23.266  1.00  0.00     0.179 C 
HETATM   10  S   UNL     1       0.104  10.342 -22.436  1.00  0.00    -0.040 SA
BRANCH   9  11
HETATM   11  N   UNL     1       2.606   9.588 -22.667  1.00  0.00    -0.299 N 
HETATM   12  C   UNL     1       3.946   9.957 -22.666  1.00  0.00     0.257 C 
HETATM   13  O   UNL     1       4.335  11.120 -22.715  1.00  0.00    -0.267 OA
HETATM   14  H   UNL     1       2.356   8.652 -22.395  1.00  0.00     0.171 HD
BRANCH  12  15
HETATM   15  C   UNL     1       4.966   8.863 -22.543  1.00  0.00     0.034 A 
HETATM   16  C   UNL     1       6.298   8.969 -22.960  1.00  0.00     0.044 A 
HETATM   17  C   UNL     1       7.211   7.907 -22.769  1.00  0.00     0.068 A 
HETATM   18  C   UNL     1       6.799   6.722 -22.147  1.00  0.00     0.089 A 
HETATM   19 CL   UNL     1       8.800   8.201 -23.385  1.00  0.00    -0.081 Cl
HETATM   20  C   UNL     1       5.458   6.620 -21.749  1.00  0.00     0.039 A 
HETATM   21  C   UNL     1       4.555   7.669 -21.943  1.00  0.00     0.020 A 
BRANCH  18  22
HETATM   22  O   UNL     1       7.486   5.577 -21.863  1.00  0.00    -0.354 OA
HETATM   23  C   UNL     1       7.818   4.656 -22.887  1.00  0.00     0.210 C 
ENDBRANCH  18  22
ENDBRANCH  12  15
ENDBRANCH   9  11
ENDBRANCH   7   9
ENDBRANCH   1   7
BRANCH   4  24
HETATM   24  N   UNL     1       0.293   7.175 -28.919  1.00  0.00    -0.378 N 
HETATM   25  C   UNL     1       0.384   5.711 -28.815  1.00  0.00     0.150 C 
HETATM   26  C   UNL     1       0.367   5.105 -30.240  1.00  0.00     0.255 C 
HETATM   27  N   UNL     1      -0.866   5.565 -31.028  1.00  0.00    -0.064 N 
HETATM   28  H   UNL     1      -1.691   5.157 -30.569  1.00  0.00     0.280 HD
HETATM   29  C   UNL     1      -1.021   7.088 -30.998  1.00  0.00     0.255 C 
HETATM   30  C   UNL     1      -0.947   7.648 -29.564  1.00  0.00     0.150 C 
BRANCH  27  31
HETATM   31  C   UNL     1      -0.867   5.075 -32.458  1.00  0.00     0.276 C 
BRANCH  31  32
HETATM   32  C   UNL     1      -2.207   5.058 -33.129  1.00  0.00     0.006 A 
HETATM   33  C   UNL     1      -2.301   5.269 -34.507  1.00  0.00     0.124 A 
HETATM   34  F   UNL     1      -1.186   5.549 -35.197  1.00  0.00    -0.206 F 
HETATM   35  C   UNL     1      -3.522   5.212 -35.169  1.00  0.00     0.043 A 
HETATM   36  C   UNL     1      -4.681   4.940 -34.445  1.00  0.00     0.003 A 
HETATM   37  C   UNL     1      -4.610   4.732 -33.068  1.00  0.00     0.001 A 
HETATM   38  C   UNL     1      -3.380   4.787 -32.409  1.00  0.00     0.012 A 
ENDBRANCH  31  32
ENDBRANCH  27  31
ENDBRANCH   4  24
TORSDOF 8
ENDMDL
MODEL 5
REMARK VINA RESULT:      -8.6      1.867      2.342
REMARK  8 active torsions:
REMARK  status: ('A' for Active; 'I' for Inactive)
REMARK    1  A    between atoms: O_2  and  C_3 
REMARK    2  A    between atoms: C_7  and  C_8 
REMARK       I    between atoms: C_8  and  N_9 
REMARK    3  A    between atoms: N_9  and  C_10 
REMARK    4  A    between atoms: C_10  and  N_11 
REMARK    5  A    between atoms: N_11  and  C_12 
REMARK    6  A    between atoms: C_15  and  N_16 
REMARK    7  A    between atoms: N_19  and  C_21 
REMARK    8  A    between atoms: C_21  and  C_22 
ROOT
HETATM    1  C   UNL     1      -9.489   3.808 -33.188  1.00  0.00     0.034 A 
HETATM    2  C   UNL     1      -8.617   4.336 -34.139  1.00  0.00     0.032 A 
HETATM    3  C   UNL     1      -7.374   4.842 -33.752  1.00  0.00     0.031 A 
HETATM    4  C   UNL     1      -6.965   4.836 -32.409  1.00  0.00     0.030 A 
HETATM    5  C   UNL     1      -7.845   4.291 -31.466  1.00  0.00     0.031 A 
HETATM    6  C   UNL     1      -9.093   3.771 -31.851  1.00  0.00     0.032 A 
ENDROOT
BRANCH   1   7
HETATM    7  N   UNL     1     -10.745   3.337 -33.642  1.00  0.00    -0.333 N 
HETATM    8  H   UNL     1     -11.521   3.656 -33.073  1.00  0.00     0.168 HD
BRANCH   7   9
HETATM    9  C   UNL     1     -10.944   2.105 -34.189  1.00  0.00     0.179 C 
HETATM   10  S   UNL     1     -12.371   1.703 -34.961  1.00  0.00    -0.040 SA
BRANCH   9  11
HETATM   11  N   UNL     1      -9.864   1.267 -34.324  1.00  0.00    -0.299 N 
HETATM   12  C   UNL     1      -9.418   0.295 -33.437  1.00  0.00     0.257 C 
HETATM   13  O   UNL     1     -10.157  -0.339 -32.689  1.00  0.00    -0.267 OA
HETATM   14  H   UNL     1      -9.251   1.577 -35.059  1.00  0.00     0.171 HD
BRANCH  12  15
HETATM   15  C   UNL     1      -7.952  -0.028 -33.442  1.00  0.00     0.034 A 
HETATM   16  C   UNL     1      -7.389  -1.153 -34.056  1.00  0.00     0.044 A 
HETATM   17  C   UNL     1      -5.992  -1.364 -34.055  1.00  0.00     0.068 A 
HETATM   18  C   UNL     1      -5.136  -0.440 -33.441  1.00  0.00     0.089 A 
HETATM   19 CL   UNL     1      -5.482  -2.828 -34.823  1.00  0.00    -0.081 Cl
HETATM   20  C   UNL     1      -5.713   0.674 -32.815  1.00  0.00     0.039 A 
HETATM   21  C   UNL     1      -7.095   0.880 -32.813  1.00  0.00     0.020 A 
BRANCH  18  22
HETATM   22  O   UNL     1      -3.778  -0.433 -33.310  1.00  0.00    -0.354 OA
HETATM   23  C   UNL     1      -3.148  -1.113 -32.238  1.00  0.00     0.210 C 
ENDBRANCH  18  22
ENDBRANCH  12  15
ENDBRANCH   9  11
ENDBRANCH   7   9
ENDBRANCH   1   7
BRANCH   4  24
HETATM   24  N   UNL     1      -5.710   5.372 -32.098  1.00  0.00    -0.378 N 
HETATM   25  C   UNL     1      -5.176   5.166 -30.744  1.00  0.00     0.150 C 
HETATM   26  C   UNL     1      -4.040   6.187 -30.492  1.00  0.00     0.255 C 
HETATM   27  N   UNL     1      -2.957   6.095 -31.574  1.00  0.00    -0.064 N 
HETATM   28  H   UNL     1      -2.501   5.178 -31.472  1.00  0.00     0.280 HD
HETATM   29  C   UNL     1      -3.555   6.165 -32.982  1.00  0.00     0.255 C 
HETATM   30  C   UNL     1      -4.714   5.166 -33.167  1.00  0.00     0.150 C 
BRANCH  27  31
HETATM   31  C   UNL     1      -1.879   7.144 -31.420  1.00  0.00     0.276 C 
BRANCH  31  32
HETATM   32  C   UNL     1      -0.944   6.939 -30.267  1.00  0.00     0.006 A 
HETATM   33  C   UNL     1      -0.816   7.928 -29.288  1.00  0.00     0.124 A 
HETATM   34  F   UNL     1      -1.490   9.078 -29.435  1.00  0.00    -0.206 F 
HETATM   35  C   UNL     1       0.005   7.751 -28.179  1.00  0.00     0.043 A 
HETATM   36  C   UNL     1       0.720   6.563 -28.040  1.00  0.00     0.003 A 
HETATM   37  C   UNL     1       0.611   5.566 -29.010  1.00  0.00     0.001 A 
HETATM   38  C   UNL     1      -0.219   5.748 -30.118  1.00  0.00     0.012 A 
ENDBRANCH  31  32
ENDBRANCH  27  31
ENDBRANCH   4  24
TORSDOF 8
ENDMDL
MODEL 6
REMARK VINA RESULT:      -8.6      2.269      2.761
REMARK  8 active torsions:
REMARK  status: ('A' for Active; 'I' for Inactive)
REMARK    1  A    between atoms: O_2  and  C_3 
REMARK    2  A    between atoms: C_7  and  C_8 
REMARK       I    between atoms: C_8  and  N_9 
REMARK    3  A    between atoms: N_9  and  C_10 
REMARK    4  A    between atoms: C_10  and  N_11 
REMARK    5  A    between atoms: N_11  and  C_12 
REMARK    6  A    between atoms: C_15  and  N_16 
REMARK    7  A    between atoms: N_19  and  C_21 
REMARK    8  A    between atoms: C_21  and  C_22 
ROOT
HETATM    1  C   UNL     1      -9.480   3.460 -31.619  1.00  0.00     0.034 A 
HETATM    2  C   UNL     1      -8.985   4.661 -32.126  1.00  0.00     0.032 A 
HETATM    3  C   UNL     1      -7.934   5.318 -31.481  1.00  0.00     0.031 A 
HETATM    4  C   UNL     1      -7.348   4.799 -30.316  1.00  0.00     0.030 A 
HETATM    5  C   UNL     1      -7.845   3.586 -29.826  1.00  0.00     0.031 A 
HETATM    6  C   UNL     1      -8.896   2.914 -30.476  1.00  0.00     0.032 A 
ENDROOT
BRANCH   1   7
HETATM    7  N   UNL     1     -10.564   2.859 -32.303  1.00  0.00    -0.333 N 
HETATM    8  H   UNL     1     -11.151   2.292 -31.701  1.00  0.00     0.168 HD
BRANCH   7   9
HETATM    9  C   UNL     1     -10.497   2.400 -33.584  1.00  0.00     0.179 C 
HETATM   10  S   UNL     1     -11.290   3.168 -34.839  1.00  0.00    -0.040 SA
BRANCH   9  11
HETATM   11  N   UNL     1      -9.566   1.437 -33.885  1.00  0.00    -0.299 N 
HETATM   12  C   UNL     1      -9.307   0.253 -33.206  1.00  0.00     0.257 C 
HETATM   13  O   UNL     1     -10.157  -0.382 -32.589  1.00  0.00    -0.267 OA
HETATM   14  H   UNL     1      -8.892   1.777 -34.552  1.00  0.00     0.171 HD
BRANCH  12  15
HETATM   15  C   UNL     1      -7.914  -0.300 -33.284  1.00  0.00     0.034 A 
HETATM   16  C   UNL     1      -6.916  -0.078 -32.327  1.00  0.00     0.044 A 
HETATM   17  C   UNL     1      -5.640  -0.672 -32.450  1.00  0.00     0.068 A 
HETATM   18  C   UNL     1      -5.348  -1.507 -33.536  1.00  0.00     0.089 A 
HETATM   19 CL   UNL     1      -4.524  -0.250 -31.198  1.00  0.00    -0.081 Cl
HETATM   20  C   UNL     1      -6.349  -1.708 -34.498  1.00  0.00     0.039 A 
HETATM   21  C   UNL     1      -7.610  -1.117 -34.377  1.00  0.00     0.020 A 
BRANCH  18  22
HETATM   22  O   UNL     1      -4.205  -2.176 -33.866  1.00  0.00    -0.354 OA
HETATM   23  C   UNL     1      -4.251  -3.524 -34.297  1.00  0.00     0.210 C 
ENDBRANCH  18  22
ENDBRANCH  12  15
ENDBRANCH   9  11
ENDBRANCH   7   9
ENDBRANCH   1   7
BRANCH   4  24
HETATM   24  N   UNL     1      -6.307   5.521 -29.722  1.00  0.00    -0.378 N 
HETATM   25  C   UNL     1      -6.053   5.332 -28.287  1.00  0.00     0.150 C 
HETATM   26  C   UNL     1      -5.200   6.516 -27.768  1.00  0.00     0.255 C 
HETATM   27  N   UNL     1      -3.909   6.672 -28.580  1.00  0.00    -0.064 N 
HETATM   28  H   UNL     1      -3.329   5.841 -28.396  1.00  0.00     0.280 HD
HETATM   29  C   UNL     1      -4.189   6.719 -30.085  1.00  0.00     0.255 C 
HETATM   30  C   UNL     1      -5.082   5.550 -30.544  1.00  0.00     0.150 C 
BRANCH  27  31
HETATM   31  C   UNL     1      -3.096   7.879 -28.170  1.00  0.00     0.276 C 
BRANCH  31  32
HETATM   32  C   UNL     1      -1.637   7.623 -27.946  1.00  0.00     0.006 A 
HETATM   33  C   UNL     1      -1.209   6.990 -26.776  1.00  0.00     0.124 A 
HETATM   34  F   UNL     1      -2.118   6.679 -25.838  1.00  0.00    -0.206 F 
HETATM   35  C   UNL     1       0.131   6.694 -26.557  1.00  0.00     0.043 A 
HETATM   36  C   UNL     1       1.074   7.037 -27.524  1.00  0.00     0.003 A 
HETATM   37  C   UNL     1       0.670   7.675 -28.696  1.00  0.00     0.001 A 
HETATM   38  C   UNL     1      -0.679   7.966 -28.911  1.00  0.00     0.012 A 
ENDBRANCH  31  32
ENDBRANCH  27  31
ENDBRANCH   4  24
TORSDOF 8
ENDMDL
MODEL 7
REMARK VINA RESULT:      -8.5      1.487      1.894
REMARK  8 active torsions:
REMARK  status: ('A' for Active; 'I' for Inactive)
REMARK    1  A    between atoms: O_2  and  C_3 
REMARK    2  A    between atoms: C_7  and  C_8 
REMARK       I    between atoms: C_8  and  N_9 
REMARK    3  A    between atoms: N_9  and  C_10 
REMARK    4  A    between atoms: C_10  and  N_11 
REMARK    5  A    between atoms: N_11  and  C_12 
REMARK    6  A    between atoms: C_15  and  N_16 
REMARK    7  A    between atoms: N_19  and  C_21 
REMARK    8  A    between atoms: C_21  and  C_22 
ROOT
HETATM    1  C   UNL     1      -8.423   3.490 -33.382  1.00  0.00     0.034 A 
HETATM    2  C   UNL     1      -7.274   3.397 -34.166  1.00  0.00     0.032 A 
HETATM    3  C   UNL     1      -6.037   3.800 -33.655  1.00  0.00     0.031 A 
HETATM    4  C   UNL     1      -5.911   4.306 -32.352  1.00  0.00     0.030 A 
HETATM    5  C   UNL     1      -7.070   4.382 -31.571  1.00  0.00     0.031 A 
HETATM    6  C   UNL     1      -8.316   3.967 -32.076  1.00  0.00     0.032 A 
ENDROOT
BRANCH   1   7
HETATM    7  N   UNL     1      -9.648   3.091 -33.968  1.00  0.00    -0.333 N 
HETATM    8  H   UNL     1     -10.346   3.826 -33.973  1.00  0.00     0.168 HD
BRANCH   7   9
HETATM    9  C   UNL     1     -10.177   1.841 -33.852  1.00  0.00     0.179 C 
HETATM   10  S   UNL     1     -11.824   1.568 -33.931  1.00  0.00    -0.040 SA
BRANCH   9  11
HETATM   11  N   UNL     1      -9.328   0.764 -33.917  1.00  0.00    -0.299 N 
HETATM   12  C   UNL     1      -8.563   0.212 -32.897  1.00  0.00     0.257 C 
HETATM   13  O   UNL     1      -8.893   0.221 -31.714  1.00  0.00    -0.267 OA
HETATM   14  H   UNL     1      -9.118   0.521 -34.872  1.00  0.00     0.171 HD
BRANCH  12  15
HETATM   15  C   UNL     1      -7.289  -0.481 -33.282  1.00  0.00     0.034 A 
HETATM   16  C   UNL     1      -6.006  -0.016 -32.968  1.00  0.00     0.044 A 
HETATM   17  C   UNL     1      -4.854  -0.751 -33.329  1.00  0.00     0.068 A 
HETATM   18  C   UNL     1      -4.974  -1.970 -34.007  1.00  0.00     0.089 A 
HETATM   19 CL   UNL     1      -3.356  -0.002 -32.895  1.00  0.00    -0.081 Cl
HETATM   20  C   UNL     1      -6.263  -2.417 -34.332  1.00  0.00     0.039 A 
HETATM   21  C   UNL     1      -7.402  -1.688 -33.978  1.00  0.00     0.020 A 
BRANCH  18  22
HETATM   22  O   UNL     1      -4.022  -2.839 -34.456  1.00  0.00    -0.354 OA
HETATM   23  C   UNL     1      -4.149  -4.233 -34.237  1.00  0.00     0.210 C 
ENDBRANCH  18  22
ENDBRANCH  12  15
ENDBRANCH   9  11
ENDBRANCH   7   9
ENDBRANCH   1   7
BRANCH   4  24
HETATM   24  N   UNL     1      -4.641   4.700 -31.916  1.00  0.00    -0.378 N 
HETATM   25  C   UNL     1      -4.531   5.437 -30.649  1.00  0.00     0.150 C 
HETATM   26  C   UNL     1      -3.154   6.141 -30.595  1.00  0.00     0.255 C 
HETATM   27  N   UNL     1      -2.008   5.142 -30.798  1.00  0.00    -0.064 N 
HETATM   28  H   UNL     1      -2.003   4.513 -29.983  1.00  0.00     0.280 HD
HETATM   29  C   UNL     1      -2.219   4.284 -32.048  1.00  0.00     0.255 C 
HETATM   30  C   UNL     1      -3.622   3.646 -32.080  1.00  0.00     0.150 C 
BRANCH  27  31
HETATM   31  C   UNL     1      -0.650   5.805 -30.852  1.00  0.00     0.276 C 
BRANCH  31  32
HETATM   32  C   UNL     1      -0.230   6.511 -29.599  1.00  0.00     0.006 A 
HETATM   33  C   UNL     1      -0.580   7.849 -29.399  1.00  0.00     0.124 A 
HETATM   34  F   UNL     1      -1.236   8.499 -30.372  1.00  0.00    -0.206 F 
HETATM   35  C   UNL     1      -0.250   8.520 -28.227  1.00  0.00     0.043 A 
HETATM   36  C   UNL     1       0.449   7.847 -27.228  1.00  0.00     0.003 A 
HETATM   37  C   UNL     1       0.814   6.513 -27.409  1.00  0.00     0.001 A 
HETATM   38  C   UNL     1       0.475   5.843 -28.587  1.00  0.00     0.012 A 
ENDBRANCH  31  32
ENDBRANCH  27  31
ENDBRANCH   4  24
TORSDOF 8
ENDMDL
MODEL 8
REMARK VINA RESULT:      -8.4      4.361      6.783
REMARK  8 active torsions:
REMARK  status: ('A' for Active; 'I' for Inactive)
REMARK    1  A    between atoms: O_2  and  C_3 
REMARK    2  A    between atoms: C_7  and  C_8 
REMARK       I    between atoms: C_8  and  N_9 
REMARK    3  A    between atoms: N_9  and  C_10 
REMARK    4  A    between atoms: C_10  and  N_11 
REMARK    5  A    between atoms: N_11  and  C_12 
REMARK    6  A    between atoms: C_15  and  N_16 
REMARK    7  A    between atoms: N_19  and  C_21 
REMARK    8  A    between atoms: C_21  and  C_22 
ROOT
HETATM    1  C   UNL     1      -9.897   0.871 -33.071  1.00  0.00     0.034 A 
HETATM    2  C   UNL     1      -9.139   0.819 -34.240  1.00  0.00     0.032 A 
HETATM    3  C   UNL     1      -7.922   1.502 -34.322  1.00  0.00     0.031 A 
HETATM    4  C   UNL     1      -7.428   2.253 -33.244  1.00  0.00     0.030 A 
HETATM    5  C   UNL     1      -8.192   2.286 -32.072  1.00  0.00     0.031 A 
HETATM    6  C   UNL     1      -9.412   1.592 -31.980  1.00  0.00     0.032 A 
ENDROOT
BRANCH   1   7
HETATM    7  N   UNL     1     -11.133   0.180 -33.061  1.00  0.00    -0.333 N 
HETATM    8  H   UNL     1     -11.032  -0.821 -33.182  1.00  0.00     0.168 HD
BRANCH   7   9
HETATM    9  C   UNL     1     -12.287   0.678 -33.586  1.00  0.00     0.179 C 
HETATM   10  S   UNL     1     -13.660  -0.263 -33.749  1.00  0.00    -0.040 SA
BRANCH   9  11
HETATM   11  N   UNL     1     -12.397   2.036 -33.756  1.00  0.00    -0.299 N 
HETATM   12  C   UNL     1     -12.304   2.762 -34.937  1.00  0.00     0.257 C 
HETATM   13  O   UNL     1     -12.640   2.328 -36.035  1.00  0.00    -0.267 OA
HETATM   14  H   UNL     1     -12.327   2.521 -32.876  1.00  0.00     0.171 HD
BRANCH  12  15
HETATM   15  C   UNL     1     -11.815   4.178 -34.843  1.00  0.00     0.034 A 
HETATM   16  C   UNL     1     -10.693   4.584 -34.110  1.00  0.00     0.044 A 
HETATM   17  C   UNL     1     -10.269   5.932 -34.108  1.00  0.00     0.068 A 
HETATM   18  C   UNL     1     -10.964   6.894 -34.851  1.00  0.00     0.089 A 
HETATM   19 CL   UNL     1      -8.892   6.254 -33.112  1.00  0.00    -0.081 Cl
HETATM   20  C   UNL     1     -12.096   6.480 -35.567  1.00  0.00     0.039 A 
HETATM   21  C   UNL     1     -12.517   5.147 -35.566  1.00  0.00     0.020 A 
BRANCH  18  22
HETATM   22  O   UNL     1     -10.751   8.235 -34.996  1.00  0.00    -0.354 OA
HETATM   23  C   UNL     1     -10.816   8.846 -36.272  1.00  0.00     0.210 C 
ENDBRANCH  18  22
ENDBRANCH  12  15
ENDBRANCH   9  11
ENDBRANCH   7   9
ENDBRANCH   1   7
BRANCH   4  24
HETATM   24  N   UNL     1      -6.208   2.918 -33.408  1.00  0.00    -0.378 N 
HETATM   25  C   UNL     1      -6.214   4.256 -34.019  1.00  0.00     0.150 C 
HETATM   26  C   UNL     1      -4.783   4.594 -34.501  1.00  0.00     0.255 C 
HETATM   27  N   UNL     1      -3.765   4.472 -33.360  1.00  0.00    -0.064 N 
HETATM   28  H   UNL     1      -3.984   5.209 -32.676  1.00  0.00     0.280 HD
HETATM   29  C   UNL     1      -3.878   3.123 -32.643  1.00  0.00     0.255 C 
HETATM   30  C   UNL     1      -5.329   2.809 -32.228  1.00  0.00     0.150 C 
BRANCH  27  31
HETATM   31  C   UNL     1      -2.341   4.696 -33.814  1.00  0.00     0.276 C 
BRANCH  31  32
HETATM   32  C   UNL     1      -1.492   5.509 -32.885  1.00  0.00     0.006 A 
HETATM   33  C   UNL     1      -1.499   6.904 -32.972  1.00  0.00     0.124 A 
HETATM   34  F   UNL     1      -2.223   7.489 -33.938  1.00  0.00    -0.206 F 
HETATM   35  C   UNL     1      -0.762   7.691 -32.095  1.00  0.00     0.043 A 
HETATM   36  C   UNL     1       0.005   7.078 -31.106  1.00  0.00     0.003 A 
HETATM   37  C   UNL     1       0.031   5.687 -31.005  1.00  0.00     0.001 A 
HETATM   38  C   UNL     1      -0.716   4.903 -31.887  1.00  0.00     0.012 A 
ENDBRANCH  31  32
ENDBRANCH  27  31
ENDBRANCH   4  24
TORSDOF 8
ENDMDL
MODEL 9
REMARK VINA RESULT:      -8.2      4.446      6.763
REMARK  8 active torsions:
REMARK  status: ('A' for Active; 'I' for Inactive)
REMARK    1  A    between atoms: O_2  and  C_3 
REMARK    2  A    between atoms: C_7  and  C_8 
REMARK       I    between atoms: C_8  and  N_9 
REMARK    3  A    between atoms: N_9  and  C_10 
REMARK    4  A    between atoms: C_10  and  N_11 
REMARK    5  A    between atoms: N_11  and  C_12 
REMARK    6  A    between atoms: C_15  and  N_16 
REMARK    7  A    between atoms: N_19  and  C_21 
REMARK    8  A    between atoms: C_21  and  C_22 
ROOT
HETATM    1  C   UNL     1     -10.016   1.555 -33.137  1.00  0.00     0.034 A 
HETATM    2  C   UNL     1      -9.885   2.536 -32.157  1.00  0.00     0.032 A 
HETATM    3  C   UNL     1      -8.755   3.358 -32.128  1.00  0.00     0.031 A 
HETATM    4  C   UNL     1      -7.727   3.225 -33.073  1.00  0.00     0.030 A 
HETATM    5  C   UNL     1      -7.876   2.245 -34.061  1.00  0.00     0.031 A 
HETATM    6  C   UNL     1      -9.016   1.422 -34.101  1.00  0.00     0.032 A 
ENDROOT
BRANCH   1   7
HETATM    7  N   UNL     1     -11.170   0.737 -33.096  1.00  0.00    -0.333 N 
HETATM    8  H   UNL     1     -10.958  -0.254 -33.096  1.00  0.00     0.168 HD
BRANCH   7   9
HETATM    9  C   UNL     1     -12.343   1.041 -33.719  1.00  0.00     0.179 C 
HETATM   10  S   UNL     1     -13.635  -0.019 -33.736  1.00  0.00    -0.040 SA
BRANCH   9  11
HETATM   11  N   UNL     1     -12.550   2.336 -34.126  1.00  0.00    -0.299 N 
HETATM   12  C   UNL     1     -12.397   2.869 -35.400  1.00  0.00     0.257 C 
HETATM   13  O   UNL     1     -12.578   2.232 -36.434  1.00  0.00    -0.267 OA
HETATM   14  H   UNL     1     -12.613   2.961 -33.339  1.00  0.00     0.171 HD
BRANCH  12  15
HETATM   15  C   UNL     1     -12.042   4.323 -35.506  1.00  0.00     0.034 A 
HETATM   16  C   UNL     1     -12.967   5.353 -35.720  1.00  0.00     0.044 A 
HETATM   17  C   UNL     1     -12.559   6.705 -35.763  1.00  0.00     0.068 A 
HETATM   18  C   UNL     1     -11.212   7.045 -35.584  1.00  0.00     0.089 A 
HETATM   19 CL   UNL     1     -13.832   7.833 -36.079  1.00  0.00    -0.081 Cl
HETATM   20  C   UNL     1     -10.293   6.004 -35.388  1.00  0.00     0.039 A 
HETATM   21  C   UNL     1     -10.696   4.667 -35.350  1.00  0.00     0.020 A 
BRANCH  18  22
HETATM   22  O   UNL     1     -10.590   8.260 -35.590  1.00  0.00    -0.354 OA
HETATM   23  C   UNL     1     -10.429   8.987 -36.795  1.00  0.00     0.210 C 
ENDBRANCH  18  22
ENDBRANCH  12  15
ENDBRANCH   9  11
ENDBRANCH   7   9
ENDBRANCH   1   7
BRANCH   4  24
HETATM   24  N   UNL     1      -6.622   4.078 -32.971  1.00  0.00    -0.378 N 
HETATM   25  C   UNL     1      -6.757   5.308 -32.178  1.00  0.00     0.150 C 
HETATM   26  C   UNL     1      -5.616   6.281 -32.563  1.00  0.00     0.255 C 
HETATM   27  N   UNL     1      -4.241   5.622 -32.400  1.00  0.00    -0.064 N 
HETATM   28  H   UNL     1      -4.100   5.452 -31.395  1.00  0.00     0.280 HD
HETATM   29  C   UNL     1      -4.173   4.270 -33.115  1.00  0.00     0.255 C 
HETATM   30  C   UNL     1      -5.356   3.357 -32.738  1.00  0.00     0.150 C 
BRANCH  27  31
HETATM   31  C   UNL     1      -3.105   6.507 -32.862  1.00  0.00     0.276 C 
BRANCH  31  32
HETATM   32  C   UNL     1      -1.974   6.659 -31.891  1.00  0.00     0.006 A 
HETATM   33  C   UNL     1      -0.803   5.915 -32.059  1.00  0.00     0.124 A 
HETATM   34  F   UNL     1      -0.740   5.024 -33.060  1.00  0.00    -0.206 F 
HETATM   35  C   UNL     1       0.284   6.066 -31.206  1.00  0.00     0.043 A 
HETATM   36  C   UNL     1       0.206   6.978 -30.155  1.00  0.00     0.003 A 
HETATM   37  C   UNL     1      -0.956   7.726 -29.965  1.00  0.00     0.001 A 
HETATM   38  C   UNL     1      -2.042   7.572 -30.829  1.00  0.00     0.012 A 
ENDBRANCH  31  32
ENDBRANCH  27  31
ENDBRANCH   4  24
TORSDOF 8
ENDMDL
MODEL 10
REMARK VINA RESULT:      -8.2      5.951      9.272
REMARK  8 active torsions:
REMARK  status: ('A' for Active; 'I' for Inactive)
REMARK    1  A    between atoms: O_2  and  C_3 
REMARK    2  A    between atoms: C_7  and  C_8 
REMARK       I    between atoms: C_8  and  N_9 
REMARK    3  A    between atoms: N_9  and  C_10 
REMARK    4  A    between atoms: C_10  and  N_11 
REMARK    5  A    between atoms: N_11  and  C_12 
REMARK    6  A    between atoms: C_15  and  N_16 
REMARK    7  A    between atoms: N_19  and  C_21 
REMARK    8  A    between atoms: C_21  and  C_22 
ROOT
HETATM    1  C   UNL     1      -9.185   5.104 -30.133  1.00  0.00     0.034 A 
HETATM    2  C   UNL     1      -7.898   5.309 -30.629  1.00  0.00     0.032 A 
HETATM    3  C   UNL     1      -7.163   4.238 -31.146  1.00  0.00     0.031 A 
HETATM    4  C   UNL     1      -7.689   2.937 -31.184  1.00  0.00     0.030 A 
HETATM    5  C   UNL     1      -8.987   2.748 -30.695  1.00  0.00     0.031 A 
HETATM    6  C   UNL     1      -9.735   3.823 -30.184  1.00  0.00     0.032 A 
ENDROOT
BRANCH   1   7
HETATM    7  N   UNL     1      -9.866   6.223 -29.598  1.00  0.00    -0.333 N 
HETATM    8  H   UNL     1     -10.096   6.119 -28.617  1.00  0.00     0.168 HD
BRANCH   7   9
HETATM    9  C   UNL     1     -10.771   6.968 -30.292  1.00  0.00     0.179 C 
HETATM   10  S   UNL     1     -10.668   8.635 -30.371  1.00  0.00    -0.040 SA
BRANCH   9  11
HETATM   11  N   UNL     1     -11.636   6.322 -31.140  1.00  0.00    -0.299 N 
HETATM   12  C   UNL     1     -12.807   5.646 -30.818  1.00  0.00     0.257 C 
HETATM   13  O   UNL     1     -13.533   5.946 -29.875  1.00  0.00    -0.267 OA
HETATM   14  H   UNL     1     -11.220   6.175 -32.045  1.00  0.00     0.171 HD
BRANCH  12  15
HETATM   15  C   UNL     1     -13.227   4.519 -31.717  1.00  0.00     0.034 A 
HETATM   16  C   UNL     1     -12.645   4.235 -32.959  1.00  0.00     0.044 A 
HETATM   17  C   UNL     1     -13.068   3.127 -33.728  1.00  0.00     0.068 A 
HETATM   18  C   UNL     1     -14.080   2.281 -33.256  1.00  0.00     0.089 A 
HETATM   19 CL   UNL     1     -12.266   2.958 -35.251  1.00  0.00    -0.081 Cl
HETATM   20  C   UNL     1     -14.667   2.586 -32.019  1.00  0.00     0.039 A 
HETATM   21  C   UNL     1     -14.251   3.684 -31.261  1.00  0.00     0.020 A 
BRANCH  18  22
HETATM   22  O   UNL     1     -14.648   1.173 -33.813  1.00  0.00    -0.354 OA
HETATM   23  C   UNL     1     -13.944  -0.055 -33.869  1.00  0.00     0.210 C 
ENDBRANCH  18  22
ENDBRANCH  12  15
ENDBRANCH   9  11
ENDBRANCH   7   9
ENDBRANCH   1   7
BRANCH   4  24
HETATM   24  N   UNL     1      -6.887   1.916 -31.706  1.00  0.00    -0.378 N 
HETATM   25  C   UNL     1      -6.486   0.815 -30.818  1.00  0.00     0.150 C 
HETATM   26  C   UNL     1      -5.281   0.075 -31.447  1.00  0.00     0.255 C 
HETATM   27  N   UNL     1      -5.599  -0.401 -32.870  1.00  0.00    -0.064 N 
HETATM   28  H   UNL     1      -6.329  -1.122 -32.795  1.00  0.00     0.280 HD
HETATM   29  C   UNL     1      -6.154   0.734 -33.736  1.00  0.00     0.255 C 
HETATM   30  C   UNL     1      -7.318   1.472 -33.045  1.00  0.00     0.150 C 
BRANCH  27  31
HETATM   31  C   UNL     1      -4.414  -1.040 -33.557  1.00  0.00     0.276 C 
BRANCH  31  32
HETATM   32  C   UNL     1      -4.524  -2.517 -33.785  1.00  0.00     0.006 A 
HETATM   33  C   UNL     1      -5.521  -3.022 -34.623  1.00  0.00     0.124 A 
HETATM   34  F   UNL     1      -6.408  -2.171 -35.161  1.00  0.00    -0.206 F 
HETATM   35  C   UNL     1      -5.622  -4.381 -34.896  1.00  0.00     0.043 A 
HETATM   36  C   UNL     1      -4.712  -5.264 -34.319  1.00  0.00     0.003 A 
HETATM   37  C   UNL     1      -3.712  -4.782 -33.474  1.00  0.00     0.001 A 
HETATM   38  C   UNL     1      -3.614  -3.414 -33.208  1.00  0.00     0.012 A 
ENDBRANCH  31  32
ENDBRANCH  27  31
ENDBRANCH   4  24
TORSDOF 8
ENDMDL
