MODEL 1
REMARK VINA RESULT:      -9.2      0.000      0.000
REMARK  6 active torsions:
REMARK  status: ('A' for Active; 'I' for Inactive)
REMARK    1  A    between atoms: O_2  and  C_3 
REMARK    2  A    between atoms: C_6  and  C_7 
REMARK       I    between atoms: C_7  and  N_8 
REMARK    3  A    between atoms: N_8  and  N_9 
REMARK    4  A    between atoms: N_13  and  C_14 
REMARK    5  A    between atoms: C_14  and  C_15 
REMARK    6  A    between atoms: C_15  and  C_16 
ROOT
HETATM    1  N   UNL     1      -6.502   4.498 -32.825  1.00  0.00    -0.166 NA
HETATM    2  C   UNL     1      -6.668   3.216 -32.863  1.00  0.00     0.157 A 
HETATM    3  C   UNL     1      -5.706   2.116 -32.420  1.00  0.00     0.279 A 
HETATM    4  O   UNL     1      -4.589   2.325 -31.992  1.00  0.00    -0.265 OA
HETATM    5  N   UNL     1      -6.384   0.925 -32.621  1.00  0.00    -0.311 N 
HETATM    6  C   UNL     1      -7.866   2.539 -33.339  1.00  0.00     0.027 A 
HETATM    7  C   UNL     1      -7.658   1.169 -33.170  1.00  0.00     0.050 A 
HETATM    8  C   UNL     1      -8.640   0.272 -33.544  1.00  0.00     0.031 A 
HETATM    9  C   UNL     1      -9.823   0.783 -34.099  1.00  0.00     0.002 A 
HETATM   10  C   UNL     1     -10.011   2.168 -34.268  1.00  0.00     0.001 A 
HETATM   11  C   UNL     1      -9.020   3.070 -33.880  1.00  0.00     0.016 A 
ENDROOT
BRANCH   1  12
HETATM   12  N   UNL     1      -5.304   4.955 -32.353  1.00  0.00    -0.242 N 
HETATM   13  C   UNL     1      -4.385   5.498 -33.238  1.00  0.00     0.271 C 
HETATM   14  O   UNL     1      -4.580   5.627 -34.444  1.00  0.00    -0.266 OA
HETATM   15  H   UNL     1      -5.095   4.825 -31.365  1.00  0.00     0.192 HD
BRANCH  13  16
HETATM   16  C   UNL     1      -3.066   5.920 -32.669  1.00  0.00     0.033 A 
HETATM   17  C   UNL     1      -2.753   7.243 -32.334  1.00  0.00     0.020 A 
HETATM   18  C   UNL     1      -1.499   7.548 -31.790  1.00  0.00     0.038 A 
HETATM   19  C   UNL     1      -0.543   6.551 -31.577  1.00  0.00     0.068 A 
HETATM   20  C   UNL     1      -0.843   5.237 -31.931  1.00  0.00     0.038 A 
HETATM   21  C   UNL     1      -2.095   4.927 -32.473  1.00  0.00     0.020 A 
BRANCH  19  22
HETATM   22  O   UNL     1       0.632   6.988 -31.032  1.00  0.00    -0.356 OA
HETATM   23  C   UNL     1       0.638   7.233 -29.631  1.00  0.00     0.210 C 
ENDBRANCH  19  22
ENDBRANCH  13  16
ENDBRANCH   1  12
BRANCH   5  24
HETATM   24  C   UNL     1      -5.827  -0.381 -32.337  1.00  0.00     0.137 C 
BRANCH  24  25
HETATM   25  C   UNL     1      -4.862  -0.854 -33.432  1.00  0.00     0.059 C 
BRANCH  25  26
HETATM   26  C   UNL     1      -5.216  -2.230 -33.940  1.00  0.00    -0.057 A 
HETATM   27  C   UNL     1      -4.273  -3.267 -33.917  1.00  0.00     0.007 A 
HETATM   28  C   UNL     1      -4.600  -4.532 -34.410  1.00  0.00     0.001 A 
HETATM   29  C   UNL     1      -5.873  -4.775 -34.923  1.00  0.00     0.000 A 
HETATM   30  C   UNL     1      -6.822  -3.754 -34.941  1.00  0.00     0.001 A 
HETATM   31  C   UNL     1      -6.495  -2.487 -34.453  1.00  0.00     0.007 A 
ENDBRANCH  25  26
ENDBRANCH  24  25
ENDBRANCH   5  24
TORSDOF 6
ENDMDL
MODEL 2
REMARK VINA RESULT:      -9.1      1.539      2.390
REMARK  6 active torsions:
REMARK  status: ('A' for Active; 'I' for Inactive)
REMARK    1  A    between atoms: O_2  and  C_3 
REMARK    2  A    between atoms: C_6  and  C_7 
REMARK       I    between atoms: C_7  and  N_8 
REMARK    3  A    between atoms: N_8  and  N_9 
REMARK    4  A    between atoms: N_13  and  C_14 
REMARK    5  A    between atoms: C_14  and  C_15 
REMARK    6  A    between atoms: C_15  and  C_16 
ROOT
HETATM    1  N   UNL     1      -7.183   5.211 -33.836  1.00  0.00    -0.166 NA
HETATM    2  C   UNL     1      -7.863   4.120 -33.687  1.00  0.00     0.157 A 
HETATM    3  C   UNL     1      -7.484   2.859 -32.914  1.00  0.00     0.279 A 
HETATM    4  O   UNL     1      -6.420   2.704 -32.348  1.00  0.00    -0.265 OA
HETATM    5  N   UNL     1      -8.576   2.013 -33.022  1.00  0.00    -0.311 N 
HETATM    6  C   UNL     1      -9.189   3.877 -34.234  1.00  0.00     0.027 A 
HETATM    7  C   UNL     1      -9.583   2.608 -33.807  1.00  0.00     0.050 A 
HETATM    8  C   UNL     1     -10.815   2.106 -34.182  1.00  0.00     0.031 A 
HETATM    9  C   UNL     1     -11.628   2.902 -35.002  1.00  0.00     0.002 A 
HETATM   10  C   UNL     1     -11.210   4.177 -35.428  1.00  0.00     0.001 A 
HETATM   11  C   UNL     1      -9.970   4.683 -35.039  1.00  0.00     0.016 A 
ENDROOT
BRANCH   1  12
HETATM   12  N   UNL     1      -5.946   5.256 -33.257  1.00  0.00    -0.242 N 
HETATM   13  C   UNL     1      -4.820   5.036 -34.034  1.00  0.00     0.271 C 
HETATM   14  O   UNL     1      -4.847   4.822 -35.245  1.00  0.00    -0.266 OA
HETATM   15  H   UNL     1      -5.892   5.389 -32.249  1.00  0.00     0.192 HD
BRANCH  13  16
HETATM   16  C   UNL     1      -3.500   5.034 -33.328  1.00  0.00     0.033 A 
HETATM   17  C   UNL     1      -3.327   4.607 -32.007  1.00  0.00     0.020 A 
HETATM   18  C   UNL     1      -2.051   4.623 -31.429  1.00  0.00     0.038 A 
HETATM   19  C   UNL     1      -0.938   5.065 -32.149  1.00  0.00     0.068 A 
HETATM   20  C   UNL     1      -1.110   5.512 -33.458  1.00  0.00     0.038 A 
HETATM   21  C   UNL     1      -2.382   5.497 -34.040  1.00  0.00     0.020 A 
BRANCH  19  22
HETATM   22  O   UNL     1       0.245   5.018 -31.465  1.00  0.00    -0.356 OA
HETATM   23  C   UNL     1       0.168   5.065 -30.046  1.00  0.00     0.210 C 
ENDBRANCH  19  22
ENDBRANCH  13  16
ENDBRANCH   1  12
BRANCH   5  24
HETATM   24  C   UNL     1      -8.637   0.691 -32.436  1.00  0.00     0.137 C 
BRANCH  24  25
HETATM   25  C   UNL     1      -8.542  -0.419 -33.491  1.00  0.00     0.059 C 
BRANCH  25  26
HETATM   26  C   UNL     1      -7.152  -1.000 -33.575  1.00  0.00    -0.057 A 
HETATM   27  C   UNL     1      -6.808  -1.890 -34.602  1.00  0.00     0.007 A 
HETATM   28  C   UNL     1      -5.527  -2.442 -34.660  1.00  0.00     0.001 A 
HETATM   29  C   UNL     1      -4.575  -2.105 -33.698  1.00  0.00     0.000 A 
HETATM   30  C   UNL     1      -4.904  -1.213 -32.679  1.00  0.00     0.001 A 
HETATM   31  C   UNL     1      -6.186  -0.665 -32.616  1.00  0.00     0.007 A 
ENDBRANCH  25  26
ENDBRANCH  24  25
ENDBRANCH   5  24
TORSDOF 6
ENDMDL
MODEL 3
REMARK VINA RESULT:      -9.1      3.564      7.223
REMARK  6 active torsions:
REMARK  status: ('A' for Active; 'I' for Inactive)
REMARK    1  A    between atoms: O_2  and  C_3 
REMARK    2  A    between atoms: C_6  and  C_7 
REMARK       I    between atoms: C_7  and  N_8 
REMARK    3  A    between atoms: N_8  and  N_9 
REMARK    4  A    between atoms: N_13  and  C_14 
REMARK    5  A    between atoms: C_14  and  C_15 
REMARK    6  A    between atoms: C_15  and  C_16 
ROOT
HETATM    1  N   UNL     1      -7.872  -0.685 -35.088  1.00  0.00    -0.166 NA
HETATM    2  C   UNL     1      -6.707  -1.018 -34.634  1.00  0.00     0.157 A 
HETATM    3  C   UNL     1      -5.633  -0.124 -34.018  1.00  0.00     0.279 A 
HETATM    4  O   UNL     1      -5.734   1.081 -33.910  1.00  0.00    -0.265 OA
HETATM    5  N   UNL     1      -4.605  -0.977 -33.649  1.00  0.00    -0.311 N 
HETATM    6  C   UNL     1      -6.174  -2.372 -34.603  1.00  0.00     0.027 A 
HETATM    7  C   UNL     1      -4.918  -2.305 -33.999  1.00  0.00     0.050 A 
HETATM    8  C   UNL     1      -4.169  -3.455 -33.836  1.00  0.00     0.031 A 
HETATM    9  C   UNL     1      -4.708  -4.663 -34.304  1.00  0.00     0.002 A 
HETATM   10  C   UNL     1      -5.974  -4.709 -34.918  1.00  0.00     0.001 A 
HETATM   11  C   UNL     1      -6.729  -3.547 -35.071  1.00  0.00     0.016 A 
ENDROOT
BRANCH   1  12
HETATM   12  N   UNL     1      -8.199   0.641 -35.045  1.00  0.00    -0.242 N 
HETATM   13  C   UNL     1      -9.204   1.068 -34.191  1.00  0.00     0.271 C 
HETATM   14  O   UNL     1      -9.824   0.328 -33.430  1.00  0.00    -0.266 OA
HETATM   15  H   UNL     1      -7.733   1.273 -35.693  1.00  0.00     0.192 HD
BRANCH  13  16
HETATM   16  C   UNL     1      -9.560   2.521 -34.238  1.00  0.00     0.033 A 
HETATM   17  C   UNL     1      -8.685   3.547 -33.860  1.00  0.00     0.020 A 
HETATM   18  C   UNL     1      -9.094   4.883 -33.952  1.00  0.00     0.038 A 
HETATM   19  C   UNL     1     -10.371   5.217 -34.411  1.00  0.00     0.068 A 
HETATM   20  C   UNL     1     -11.252   4.198 -34.766  1.00  0.00     0.038 A 
HETATM   21  C   UNL     1     -10.848   2.861 -34.678  1.00  0.00     0.020 A 
BRANCH  19  22
HETATM   22  O   UNL     1     -10.633   6.558 -34.457  1.00  0.00    -0.356 OA
HETATM   23  C   UNL     1     -10.654   7.163 -35.745  1.00  0.00     0.210 C 
ENDBRANCH  19  22
ENDBRANCH  13  16
ENDBRANCH   1  12
BRANCH   5  24
HETATM   24  C   UNL     1      -3.374  -0.538 -33.028  1.00  0.00     0.137 C 
BRANCH  24  25
HETATM   25  C   UNL     1      -3.468  -0.518 -31.496  1.00  0.00     0.059 C 
BRANCH  25  26
HETATM   26  C   UNL     1      -4.233   0.683 -30.994  1.00  0.00    -0.057 A 
HETATM   27  C   UNL     1      -5.431   0.524 -30.284  1.00  0.00     0.007 A 
HETATM   28  C   UNL     1      -6.145   1.640 -29.843  1.00  0.00     0.001 A 
HETATM   29  C   UNL     1      -5.666   2.923 -30.101  1.00  0.00     0.000 A 
HETATM   30  C   UNL     1      -4.470   3.092 -30.798  1.00  0.00     0.001 A 
HETATM   31  C   UNL     1      -3.758   1.978 -31.244  1.00  0.00     0.007 A 
ENDBRANCH  25  26
ENDBRANCH  24  25
ENDBRANCH   5  24
TORSDOF 6
ENDMDL
MODEL 4
REMARK VINA RESULT:      -8.9      2.893      7.526
REMARK  6 active torsions:
REMARK  status: ('A' for Active; 'I' for Inactive)
REMARK    1  A    between atoms: O_2  and  C_3 
REMARK    2  A    between atoms: C_6  and  C_7 
REMARK       I    between atoms: C_7  and  N_8 
REMARK    3  A    between atoms: N_8  and  N_9 
REMARK    4  A    between atoms: N_13  and  C_14 
REMARK    5  A    between atoms: C_14  and  C_15 
REMARK    6  A    between atoms: C_15  and  C_16 
ROOT
HETATM    1  N   UNL     1      -7.426   3.826 -33.574  1.00  0.00    -0.166 NA
HETATM    2  C   UNL     1      -6.504   3.025 -33.148  1.00  0.00     0.157 A 
HETATM    3  C   UNL     1      -6.546   1.504 -33.023  1.00  0.00     0.279 A 
HETATM    4  O   UNL     1      -7.520   0.829 -33.287  1.00  0.00    -0.265 OA
HETATM    5  N   UNL     1      -5.291   1.132 -32.569  1.00  0.00    -0.311 N 
HETATM    6  C   UNL     1      -5.180   3.432 -32.701  1.00  0.00     0.027 A 
HETATM    7  C   UNL     1      -4.483   2.269 -32.371  1.00  0.00     0.050 A 
HETATM    8  C   UNL     1      -3.183   2.352 -31.908  1.00  0.00     0.031 A 
HETATM    9  C   UNL     1      -2.612   3.627 -31.775  1.00  0.00     0.002 A 
HETATM   10  C   UNL     1      -3.334   4.789 -32.107  1.00  0.00     0.001 A 
HETATM   11  C   UNL     1      -4.642   4.699 -32.583  1.00  0.00     0.016 A 
ENDROOT
BRANCH   1  12
HETATM   12  N   UNL     1      -8.615   3.264 -33.944  1.00  0.00    -0.242 N 
HETATM   13  C   UNL     1      -9.737   3.458 -33.153  1.00  0.00     0.271 C 
HETATM   14  O   UNL     1      -9.751   4.137 -32.129  1.00  0.00    -0.266 OA
HETATM   15  H   UNL     1      -8.627   2.661 -34.765  1.00  0.00     0.192 HD
BRANCH  13  16
HETATM   16  C   UNL     1     -10.993   2.762 -33.578  1.00  0.00     0.033 A 
HETATM   17  C   UNL     1     -12.120   3.429 -34.072  1.00  0.00     0.020 A 
HETATM   18  C   UNL     1     -13.249   2.697 -34.463  1.00  0.00     0.038 A 
HETATM   19  C   UNL     1     -13.274   1.303 -34.365  1.00  0.00     0.068 A 
HETATM   20  C   UNL     1     -12.162   0.638 -33.853  1.00  0.00     0.038 A 
HETATM   21  C   UNL     1     -11.032   1.364 -33.463  1.00  0.00     0.020 A 
BRANCH  19  22
HETATM   22  O   UNL     1     -14.435   0.718 -34.791  1.00  0.00    -0.356 OA
HETATM   23  C   UNL     1     -15.614   1.024 -34.056  1.00  0.00     0.210 C 
ENDBRANCH  19  22
ENDBRANCH  13  16
ENDBRANCH   1  12
BRANCH   5  24
HETATM   24  C   UNL     1      -4.899  -0.235 -32.303  1.00  0.00     0.137 C 
BRANCH  24  25
HETATM   25  C   UNL     1      -4.165  -0.872 -33.490  1.00  0.00     0.059 C 
BRANCH  25  26
HETATM   26  C   UNL     1      -4.816  -2.161 -33.930  1.00  0.00    -0.057 A 
HETATM   27  C   UNL     1      -4.108  -3.371 -33.893  1.00  0.00     0.007 A 
HETATM   28  C   UNL     1      -4.709  -4.555 -34.323  1.00  0.00     0.001 A 
HETATM   29  C   UNL     1      -6.024  -4.545 -34.786  1.00  0.00     0.000 A 
HETATM   30  C   UNL     1      -6.740  -3.349 -34.817  1.00  0.00     0.001 A 
HETATM   31  C   UNL     1      -6.139  -2.163 -34.392  1.00  0.00     0.007 A 
ENDBRANCH  25  26
ENDBRANCH  24  25
ENDBRANCH   5  24
TORSDOF 6
ENDMDL
MODEL 5
REMARK VINA RESULT:      -8.8      3.932      8.148
REMARK  6 active torsions:
REMARK  status: ('A' for Active; 'I' for Inactive)
REMARK    1  A    between atoms: O_2  and  C_3 
REMARK    2  A    between atoms: C_6  and  C_7 
REMARK       I    between atoms: C_7  and  N_8 
REMARK    3  A    between atoms: N_8  and  N_9 
REMARK    4  A    between atoms: N_13  and  C_14 
REMARK    5  A    between atoms: C_14  and  C_15 
REMARK    6  A    between atoms: C_15  and  C_16 
ROOT
HETATM    1  N   UNL     1      -9.071   3.574 -31.456  1.00  0.00    -0.166 NA
HETATM    2  C   UNL     1      -8.146   2.688 -31.633  1.00  0.00     0.157 A 
HETATM    3  C   UNL     1      -8.296   1.206 -31.968  1.00  0.00     0.279 A 
HETATM    4  O   UNL     1      -9.365   0.640 -32.075  1.00  0.00    -0.265 OA
HETATM    5  N   UNL     1      -7.005   0.721 -32.103  1.00  0.00    -0.311 N 
HETATM    6  C   UNL     1      -6.714   2.944 -31.563  1.00  0.00     0.027 A 
HETATM    7  C   UNL     1      -6.067   1.744 -31.857  1.00  0.00     0.050 A 
HETATM    8  C   UNL     1      -4.686   1.688 -31.862  1.00  0.00     0.031 A 
HETATM    9  C   UNL     1      -3.979   2.860 -31.552  1.00  0.00     0.002 A 
HETATM   10  C   UNL     1      -4.651   4.059 -31.250  1.00  0.00     0.001 A 
HETATM   11  C   UNL     1      -6.044   4.113 -31.257  1.00  0.00     0.016 A 
ENDROOT
BRANCH   1  12
HETATM   12  N   UNL     1     -10.366   3.147 -31.552  1.00  0.00    -0.242 N 
HETATM   13  C   UNL     1     -11.172   3.634 -32.569  1.00  0.00     0.271 C 
HETATM   14  O   UNL     1     -10.794   4.424 -33.431  1.00  0.00    -0.266 OA
HETATM   15  H   UNL     1     -10.721   2.524 -30.829  1.00  0.00     0.192 HD
BRANCH  13  16
HETATM   16  C   UNL     1     -12.597   3.177 -32.581  1.00  0.00     0.033 A 
HETATM   17  C   UNL     1     -13.066   2.116 -33.364  1.00  0.00     0.020 A 
HETATM   18  C   UNL     1     -14.414   1.742 -33.301  1.00  0.00     0.038 A 
HETATM   19  C   UNL     1     -15.311   2.417 -32.468  1.00  0.00     0.068 A 
HETATM   20  C   UNL     1     -14.853   3.488 -31.704  1.00  0.00     0.038 A 
HETATM   21  C   UNL     1     -13.507   3.864 -31.762  1.00  0.00     0.020 A 
BRANCH  19  22
HETATM   22  O   UNL     1     -16.593   1.942 -32.499  1.00  0.00    -0.356 OA
HETATM   23  C   UNL     1     -17.607   2.800 -31.989  1.00  0.00     0.210 C 
ENDBRANCH  19  22
ENDBRANCH  13  16
ENDBRANCH   1  12
BRANCH   5  24
HETATM   24  C   UNL     1      -6.686  -0.656 -32.413  1.00  0.00     0.137 C 
BRANCH  24  25
HETATM   25  C   UNL     1      -6.329  -0.852 -33.893  1.00  0.00     0.059 C 
BRANCH  25  26
HETATM   26  C   UNL     1      -5.919  -2.274 -34.190  1.00  0.00    -0.057 A 
HETATM   27  C   UNL     1      -4.602  -2.702 -33.967  1.00  0.00     0.007 A 
HETATM   28  C   UNL     1      -4.224  -4.012 -34.266  1.00  0.00     0.001 A 
HETATM   29  C   UNL     1      -5.158  -4.909 -34.783  1.00  0.00     0.000 A 
HETATM   30  C   UNL     1      -6.472  -4.497 -34.998  1.00  0.00     0.001 A 
HETATM   31  C   UNL     1      -6.851  -3.186 -34.705  1.00  0.00     0.007 A 
ENDBRANCH  25  26
ENDBRANCH  24  25
ENDBRANCH   5  24
TORSDOF 6
ENDMDL
MODEL 6
REMARK VINA RESULT:      -8.8      2.450      8.940
REMARK  6 active torsions:
REMARK  status: ('A' for Active; 'I' for Inactive)
REMARK    1  A    between atoms: O_2  and  C_3 
REMARK    2  A    between atoms: C_6  and  C_7 
REMARK       I    between atoms: C_7  and  N_8 
REMARK    3  A    between atoms: N_8  and  N_9 
REMARK    4  A    between atoms: N_13  and  C_14 
REMARK    5  A    between atoms: C_14  and  C_15 
REMARK    6  A    between atoms: C_15  and  C_16 
ROOT
HETATM    1  N   UNL     1      -5.588   2.648 -30.620  1.00  0.00    -0.166 NA
HETATM    2  C   UNL     1      -4.832   3.673 -30.847  1.00  0.00     0.157 A 
HETATM    3  C   UNL     1      -3.738   3.837 -31.900  1.00  0.00     0.279 A 
HETATM    4  O   UNL     1      -3.400   2.959 -32.669  1.00  0.00    -0.265 OA
HETATM    5  N   UNL     1      -3.274   5.134 -31.757  1.00  0.00    -0.311 N 
HETATM    6  C   UNL     1      -4.889   4.934 -30.123  1.00  0.00     0.027 A 
HETATM    7  C   UNL     1      -3.946   5.784 -30.704  1.00  0.00     0.050 A 
HETATM    8  C   UNL     1      -3.778   7.065 -30.212  1.00  0.00     0.031 A 
HETATM    9  C   UNL     1      -4.567   7.461 -29.122  1.00  0.00     0.002 A 
HETATM   10  C   UNL     1      -5.508   6.586 -28.546  1.00  0.00     0.001 A 
HETATM   11  C   UNL     1      -5.681   5.298 -29.052  1.00  0.00     0.016 A 
ENDROOT
BRANCH   1  12
HETATM   12  N   UNL     1      -5.383   1.542 -31.396  1.00  0.00    -0.242 N 
HETATM   13  C   UNL     1      -6.416   1.063 -32.188  1.00  0.00     0.271 C 
HETATM   14  O   UNL     1      -7.525   1.587 -32.267  1.00  0.00    -0.266 OA
HETATM   15  H   UNL     1      -4.489   1.061 -31.322  1.00  0.00     0.192 HD
BRANCH  13  16
HETATM   16  C   UNL     1      -6.149  -0.188 -32.965  1.00  0.00     0.033 A 
HETATM   17  C   UNL     1      -7.149  -0.936 -33.598  1.00  0.00     0.020 A 
HETATM   18  C   UNL     1      -6.808  -2.087 -34.320  1.00  0.00     0.038 A 
HETATM   19  C   UNL     1      -5.480  -2.510 -34.419  1.00  0.00     0.068 A 
HETATM   20  C   UNL     1      -4.485  -1.780 -33.771  1.00  0.00     0.038 A 
HETATM   21  C   UNL     1      -4.820  -0.629 -33.050  1.00  0.00     0.020 A 
BRANCH  19  22
HETATM   22  O   UNL     1      -5.291  -3.643 -35.161  1.00  0.00    -0.356 OA
HETATM   23  C   UNL     1      -6.422  -4.486 -35.344  1.00  0.00     0.210 C 
ENDBRANCH  19  22
ENDBRANCH  13  16
ENDBRANCH   1  12
BRANCH   5  24
HETATM   24  C   UNL     1      -2.216   5.709 -32.561  1.00  0.00     0.137 C 
BRANCH  24  25
HETATM   25  C   UNL     1      -0.835   5.155 -32.189  1.00  0.00     0.059 C 
BRANCH  25  26
HETATM   26  C   UNL     1      -0.308   5.765 -30.913  1.00  0.00    -0.057 A 
HETATM   27  C   UNL     1      -0.310   7.155 -30.729  1.00  0.00     0.007 A 
HETATM   28  C   UNL     1       0.200   7.714 -29.556  1.00  0.00     0.001 A 
HETATM   29  C   UNL     1       0.710   6.891 -28.553  1.00  0.00     0.000 A 
HETATM   30  C   UNL     1       0.708   5.507 -28.721  1.00  0.00     0.001 A 
HETATM   31  C   UNL     1       0.203   4.947 -29.896  1.00  0.00     0.007 A 
ENDBRANCH  25  26
ENDBRANCH  24  25
ENDBRANCH   5  24
TORSDOF 6
ENDMDL
MODEL 7
REMARK VINA RESULT:      -8.6      1.941      4.717
REMARK  6 active torsions:
REMARK  status: ('A' for Active; 'I' for Inactive)
REMARK    1  A    between atoms: O_2  and  C_3 
REMARK    2  A    between atoms: C_6  and  C_7 
REMARK       I    between atoms: C_7  and  N_8 
REMARK    3  A    between atoms: N_8  and  N_9 
REMARK    4  A    between atoms: N_13  and  C_14 
REMARK    5  A    between atoms: C_14  and  C_15 
REMARK    6  A    between atoms: C_15  and  C_16 
ROOT
HETATM    1  N   UNL     1      -3.683   1.430 -32.234  1.00  0.00    -0.166 NA
HETATM    2  C   UNL     1      -4.917   1.123 -32.471  1.00  0.00     0.157 A 
HETATM    3  C   UNL     1      -6.180   1.907 -32.118  1.00  0.00     0.279 A 
HETATM    4  O   UNL     1      -6.178   2.954 -31.503  1.00  0.00    -0.265 OA
HETATM    5  N   UNL     1      -7.232   1.172 -32.639  1.00  0.00    -0.311 N 
HETATM    6  C   UNL     1      -5.365  -0.074 -33.167  1.00  0.00     0.027 A 
HETATM    7  C   UNL     1      -6.756  -0.003 -33.254  1.00  0.00     0.050 A 
HETATM    8  C   UNL     1      -7.461  -1.018 -33.871  1.00  0.00     0.031 A 
HETATM    9  C   UNL     1      -6.737  -2.105 -34.384  1.00  0.00     0.002 A 
HETATM   10  C   UNL     1      -5.335  -2.162 -34.280  1.00  0.00     0.001 A 
HETATM   11  C   UNL     1      -4.627  -1.130 -33.665  1.00  0.00     0.016 A 
ENDROOT
BRANCH   1  12
HETATM   12  N   UNL     1      -3.452   2.595 -31.557  1.00  0.00    -0.242 N 
HETATM   13  C   UNL     1      -2.829   3.649 -32.206  1.00  0.00     0.271 C 
HETATM   14  O   UNL     1      -2.482   3.627 -33.385  1.00  0.00    -0.266 OA
HETATM   15  H   UNL     1      -3.691   2.631 -30.568  1.00  0.00     0.192 HD
BRANCH  13  16
HETATM   16  C   UNL     1      -2.547   4.873 -31.392  1.00  0.00     0.033 A 
HETATM   17  C   UNL     1      -3.542   5.734 -30.913  1.00  0.00     0.020 A 
HETATM   18  C   UNL     1      -3.190   6.849 -30.142  1.00  0.00     0.038 A 
HETATM   19  C   UNL     1      -1.853   7.126 -29.843  1.00  0.00     0.068 A 
HETATM   20  C   UNL     1      -0.859   6.284 -30.336  1.00  0.00     0.038 A 
HETATM   21  C   UNL     1      -1.206   5.168 -31.105  1.00  0.00     0.020 A 
BRANCH  19  22
HETATM   22  O   UNL     1      -1.655   8.240 -29.075  1.00  0.00    -0.356 OA
HETATM   23  C   UNL     1      -1.901   8.110 -27.680  1.00  0.00     0.210 C 
ENDBRANCH  19  22
ENDBRANCH  13  16
ENDBRANCH   1  12
BRANCH   5  24
HETATM   24  C   UNL     1      -8.623   1.556 -32.522  1.00  0.00     0.137 C 
BRANCH  24  25
HETATM   25  C   UNL     1      -9.154   2.220 -33.799  1.00  0.00     0.059 C 
BRANCH  25  26
HETATM   26  C   UNL     1     -10.602   1.874 -34.054  1.00  0.00    -0.057 A 
HETATM   27  C   UNL     1     -11.184   0.746 -33.460  1.00  0.00     0.007 A 
HETATM   28  C   UNL     1     -12.516   0.419 -33.718  1.00  0.00     0.001 A 
HETATM   29  C   UNL     1     -13.281   1.218 -34.567  1.00  0.00     0.000 A 
HETATM   30  C   UNL     1     -12.715   2.348 -35.155  1.00  0.00     0.001 A 
HETATM   31  C   UNL     1     -11.381   2.673 -34.902  1.00  0.00     0.007 A 
ENDBRANCH  25  26
ENDBRANCH  24  25
ENDBRANCH   5  24
TORSDOF 6
ENDMDL
MODEL 8
REMARK VINA RESULT:      -8.3      3.120      8.284
REMARK  6 active torsions:
REMARK  status: ('A' for Active; 'I' for Inactive)
REMARK    1  A    between atoms: O_2  and  C_3 
REMARK    2  A    between atoms: C_6  and  C_7 
REMARK       I    between atoms: C_7  and  N_8 
REMARK    3  A    between atoms: N_8  and  N_9 
REMARK    4  A    between atoms: N_13  and  C_14 
REMARK    5  A    between atoms: C_14  and  C_15 
REMARK    6  A    between atoms: C_15  and  C_16 
ROOT
HETATM    1  N   UNL     1      -8.600   0.333 -34.822  1.00  0.00    -0.166 NA
HETATM    2  C   UNL     1      -7.466   0.401 -34.202  1.00  0.00     0.157 A 
HETATM    3  C   UNL     1      -6.894   1.556 -33.385  1.00  0.00     0.279 A 
HETATM    4  O   UNL     1      -7.449   2.627 -33.244  1.00  0.00    -0.265 OA
HETATM    5  N   UNL     1      -5.682   1.100 -32.893  1.00  0.00    -0.311 N 
HETATM    6  C   UNL     1      -6.477  -0.666 -34.144  1.00  0.00     0.027 A 
HETATM    7  C   UNL     1      -5.429  -0.210 -33.344  1.00  0.00     0.050 A 
HETATM    8  C   UNL     1      -4.335  -1.023 -33.113  1.00  0.00     0.031 A 
HETATM    9  C   UNL     1      -4.319  -2.291 -33.712  1.00  0.00     0.002 A 
HETATM   10  C   UNL     1      -5.383  -2.730 -34.521  1.00  0.00     0.001 A 
HETATM   11  C   UNL     1      -6.489  -1.910 -34.744  1.00  0.00     0.016 A 
ENDROOT
BRANCH   1  12
HETATM   12  N   UNL     1      -9.399   1.441 -34.776  1.00  0.00    -0.242 N 
HETATM   13  C   UNL     1     -10.575   1.403 -34.042  1.00  0.00     0.271 C 
HETATM   14  O   UNL     1     -10.952   0.431 -33.391  1.00  0.00    -0.266 OA
HETATM   15  H   UNL     1      -9.136   2.248 -35.338  1.00  0.00     0.192 HD
BRANCH  13  16
HETATM   16  C   UNL     1     -11.438   2.625 -34.083  1.00  0.00     0.033 A 
HETATM   17  C   UNL     1     -11.778   3.296 -35.264  1.00  0.00     0.020 A 
HETATM   18  C   UNL     1     -12.607   4.424 -35.213  1.00  0.00     0.038 A 
HETATM   19  C   UNL     1     -13.102   4.901 -33.996  1.00  0.00     0.068 A 
HETATM   20  C   UNL     1     -12.747   4.249 -32.817  1.00  0.00     0.038 A 
HETATM   21  C   UNL     1     -11.921   3.121 -32.863  1.00  0.00     0.020 A 
BRANCH  19  22
HETATM   22  O   UNL     1     -13.905   6.003 -34.094  1.00  0.00    -0.356 OA
HETATM   23  C   UNL     1     -13.929   6.669 -35.351  1.00  0.00     0.210 C 
ENDBRANCH  19  22
ENDBRANCH  13  16
ENDBRANCH   1  12
BRANCH   5  24
HETATM   24  C   UNL     1      -4.796   1.890 -32.065  1.00  0.00     0.137 C 
BRANCH  24  25
HETATM   25  C   UNL     1      -5.063   3.395 -32.196  1.00  0.00     0.059 C 
BRANCH  25  26
HETATM   26  C   UNL     1      -4.080   4.063 -33.126  1.00  0.00    -0.057 A 
HETATM   27  C   UNL     1      -2.710   4.084 -32.827  1.00  0.00     0.007 A 
HETATM   28  C   UNL     1      -1.810   4.724 -33.680  1.00  0.00     0.001 A 
HETATM   29  C   UNL     1      -2.266   5.343 -34.843  1.00  0.00     0.000 A 
HETATM   30  C   UNL     1      -3.624   5.319 -35.156  1.00  0.00     0.001 A 
HETATM   31  C   UNL     1      -4.527   4.684 -34.301  1.00  0.00     0.007 A 
ENDBRANCH  25  26
ENDBRANCH  24  25
ENDBRANCH   5  24
TORSDOF 6
ENDMDL
MODEL 9
REMARK VINA RESULT:      -8.3      1.498      2.120
REMARK  6 active torsions:
REMARK  status: ('A' for Active; 'I' for Inactive)
REMARK    1  A    between atoms: O_2  and  C_3 
REMARK    2  A    between atoms: C_6  and  C_7 
REMARK       I    between atoms: C_7  and  N_8 
REMARK    3  A    between atoms: N_8  and  N_9 
REMARK    4  A    between atoms: N_13  and  C_14 
REMARK    5  A    between atoms: C_14  and  C_15 
REMARK    6  A    between atoms: C_15  and  C_16 
ROOT
HETATM    1  N   UNL     1      -8.518   4.081 -32.285  1.00  0.00    -0.166 NA
HETATM    2  C   UNL     1      -8.759   2.848 -32.592  1.00  0.00     0.157 A 
HETATM    3  C   UNL     1      -7.783   1.677 -32.674  1.00  0.00     0.279 A 
HETATM    4  O   UNL     1      -6.587   1.778 -32.489  1.00  0.00    -0.265 OA
HETATM    5  N   UNL     1      -8.553   0.570 -32.989  1.00  0.00    -0.311 N 
HETATM    6  C   UNL     1     -10.070   2.306 -32.917  1.00  0.00     0.027 A 
HETATM    7  C   UNL     1      -9.905   0.938 -33.140  1.00  0.00     0.050 A 
HETATM    8  C   UNL     1     -10.996   0.157 -33.473  1.00  0.00     0.031 A 
HETATM    9  C   UNL     1     -12.245   0.786 -33.587  1.00  0.00     0.002 A 
HETATM   10  C   UNL     1     -12.390   2.168 -33.365  1.00  0.00     0.001 A 
HETATM   11  C   UNL     1     -11.288   2.950 -33.019  1.00  0.00     0.016 A 
ENDROOT
BRANCH   1  12
HETATM   12  N   UNL     1      -7.219   4.412 -32.019  1.00  0.00    -0.242 N 
HETATM   13  C   UNL     1      -6.436   4.966 -33.020  1.00  0.00     0.271 C 
HETATM   14  O   UNL     1      -6.840   5.214 -34.155  1.00  0.00    -0.266 OA
HETATM   15  H   UNL     1      -6.843   4.181 -31.101  1.00  0.00     0.192 HD
BRANCH  13  16
HETATM   16  C   UNL     1      -5.005   5.245 -32.684  1.00  0.00     0.033 A 
HETATM   17  C   UNL     1      -4.501   5.253 -31.378  1.00  0.00     0.020 A 
HETATM   18  C   UNL     1      -3.142   5.508 -31.155  1.00  0.00     0.038 A 
HETATM   19  C   UNL     1      -2.272   5.761 -32.218  1.00  0.00     0.068 A 
HETATM   20  C   UNL     1      -2.773   5.777 -33.518  1.00  0.00     0.038 A 
HETATM   21  C   UNL     1      -4.130   5.521 -33.746  1.00  0.00     0.020 A 
BRANCH  19  22
HETATM   22  O   UNL     1      -0.972   5.984 -31.856  1.00  0.00    -0.356 OA
HETATM   23  C   UNL     1      -0.685   5.984 -30.463  1.00  0.00     0.210 C 
ENDBRANCH  19  22
ENDBRANCH  13  16
ENDBRANCH   1  12
BRANCH   5  24
HETATM   24  C   UNL     1      -8.019  -0.763 -33.172  1.00  0.00     0.137 C 
BRANCH  24  25
HETATM   25  C   UNL     1      -7.093  -0.857 -34.392  1.00  0.00     0.059 C 
BRANCH  25  26
HETATM   26  C   UNL     1      -6.349  -2.170 -34.435  1.00  0.00    -0.057 A 
HETATM   27  C   UNL     1      -4.966  -2.218 -34.213  1.00  0.00     0.007 A 
HETATM   28  C   UNL     1      -4.281  -3.432 -34.277  1.00  0.00     0.001 A 
HETATM   29  C   UNL     1      -4.971  -4.611 -34.556  1.00  0.00     0.000 A 
HETATM   30  C   UNL     1      -6.348  -4.576 -34.769  1.00  0.00     0.001 A 
HETATM   31  C   UNL     1      -7.034  -3.361 -34.710  1.00  0.00     0.007 A 
ENDBRANCH  25  26
ENDBRANCH  24  25
ENDBRANCH   5  24
TORSDOF 6
ENDMDL
MODEL 10
REMARK VINA RESULT:      -8.2      4.106      8.122
REMARK  6 active torsions:
REMARK  status: ('A' for Active; 'I' for Inactive)
REMARK    1  A    between atoms: O_2  and  C_3 
REMARK    2  A    between atoms: C_6  and  C_7 
REMARK       I    between atoms: C_7  and  N_8 
REMARK    3  A    between atoms: N_8  and  N_9 
REMARK    4  A    between atoms: N_13  and  C_14 
REMARK    5  A    between atoms: C_14  and  C_15 
REMARK    6  A    between atoms: C_15  and  C_16 
ROOT
HETATM    1  N   UNL     1      -7.101   2.249 -30.632  1.00  0.00    -0.166 NA
HETATM    2  C   UNL     1      -8.096   3.020 -30.932  1.00  0.00     0.157 A 
HETATM    3  C   UNL     1      -9.173   2.816 -31.995  1.00  0.00     0.279 A 
HETATM    4  O   UNL     1      -9.204   1.871 -32.756  1.00  0.00    -0.265 OA
HETATM    5  N   UNL     1     -10.028   3.899 -31.872  1.00  0.00    -0.311 N 
HETATM    6  C   UNL     1      -8.409   4.280 -30.274  1.00  0.00     0.027 A 
HETATM    7  C   UNL     1      -9.576   4.771 -30.861  1.00  0.00     0.050 A 
HETATM    8  C   UNL     1     -10.112   5.970 -30.431  1.00  0.00     0.031 A 
HETATM    9  C   UNL     1      -9.442   6.663 -29.412  1.00  0.00     0.002 A 
HETATM   10  C   UNL     1      -8.261   6.155 -28.838  1.00  0.00     0.001 A 
HETATM   11  C   UNL     1      -7.730   4.940 -29.269  1.00  0.00     0.016 A 
ENDROOT
BRANCH   1  12
HETATM   12  N   UNL     1      -6.959   1.106 -31.366  1.00  0.00    -0.242 N 
HETATM   13  C   UNL     1      -5.854   0.958 -32.191  1.00  0.00     0.271 C 
HETATM   14  O   UNL     1      -4.954   1.789 -32.296  1.00  0.00    -0.266 OA
HETATM   15  H   UNL     1      -7.707   0.416 -31.333  1.00  0.00     0.192 HD
BRANCH  13  16
HETATM   16  C   UNL     1      -5.789  -0.288 -33.018  1.00  0.00     0.033 A 
HETATM   17  C   UNL     1      -4.683  -1.146 -33.043  1.00  0.00     0.020 A 
HETATM   18  C   UNL     1      -4.713  -2.302 -33.833  1.00  0.00     0.038 A 
HETATM   19  C   UNL     1      -5.832  -2.617 -34.608  1.00  0.00     0.068 A 
HETATM   20  C   UNL     1      -6.926  -1.755 -34.602  1.00  0.00     0.038 A 
HETATM   21  C   UNL     1      -6.902  -0.599 -33.813  1.00  0.00     0.020 A 
BRANCH  19  22
HETATM   22  O   UNL     1      -5.729  -3.779 -35.322  1.00  0.00    -0.356 OA
HETATM   23  C   UNL     1      -5.206  -4.909 -34.635  1.00  0.00     0.210 C 
ENDBRANCH  19  22
ENDBRANCH  13  16
ENDBRANCH   1  12
BRANCH   5  24
HETATM   24  C   UNL     1     -11.194   4.109 -32.703  1.00  0.00     0.137 C 
BRANCH  24  25
HETATM   25  C   UNL     1     -12.495   3.711 -31.993  1.00  0.00     0.059 C 
BRANCH  25  26
HETATM   26  C   UNL     1     -13.280   2.693 -32.784  1.00  0.00    -0.057 A 
HETATM   27  C   UNL     1     -14.629   2.445 -32.493  1.00  0.00     0.007 A 
HETATM   28  C   UNL     1     -15.343   1.486 -33.214  1.00  0.00     0.001 A 
HETATM   29  C   UNL     1     -14.720   0.771 -34.235  1.00  0.00     0.000 A 
HETATM   30  C   UNL     1     -13.382   1.018 -34.540  1.00  0.00     0.001 A 
HETATM   31  C   UNL     1     -12.665   1.973 -33.817  1.00  0.00     0.007 A 
ENDBRANCH  25  26
ENDBRANCH  24  25
ENDBRANCH   5  24
TORSDOF 6
ENDMDL
