MODEL 1
REMARK VINA RESULT:      -8.8      0.000      0.000
REMARK  7 active torsions:
REMARK  status: ('A' for Active; 'I' for Inactive)
REMARK    1  A    between atoms: C_5  and  O_6 
REMARK    2  A    between atoms: O_6  and  C_7 
REMARK    3  A    between atoms: C_7  and  C_8 
REMARK       I    between atoms: C_8  and  N_9 
REMARK    4  A    between atoms: N_9  and  C_10 
REMARK    5  A    between atoms: C_13  and  N_14 
REMARK    6  A    between atoms: N_17  and  C_19 
REMARK    7  A    between atoms: C_19  and  C_20 
ROOT
HETATM    1  C   UNL     1      -5.129   2.668 -32.733  1.00  0.00     0.034 A 
HETATM    2  C   UNL     1      -3.793   2.551 -32.361  1.00  0.00     0.032 A 
HETATM    3  C   UNL     1      -3.101   3.636 -31.809  1.00  0.00     0.031 A 
HETATM    4  C   UNL     1      -3.707   4.880 -31.596  1.00  0.00     0.030 A 
HETATM    5  C   UNL     1      -5.051   4.989 -31.978  1.00  0.00     0.031 A 
HETATM    6  C   UNL     1      -5.754   3.902 -32.539  1.00  0.00     0.032 A 
ENDROOT
BRANCH   1   7
HETATM    7  N   UNL     1      -5.860   1.620 -33.334  1.00  0.00    -0.325 N 
HETATM    8  C   UNL     1      -6.672   0.708 -32.681  1.00  0.00     0.246 C 
HETATM    9  O   UNL     1      -6.975   0.734 -31.489  1.00  0.00    -0.271 OA
HETATM   10  H   UNL     1      -5.818   1.524 -34.344  1.00  0.00     0.169 HD
BRANCH   8  11
HETATM   11  C   UNL     1      -7.149  -0.457 -33.549  1.00  0.00     0.278 C 
BRANCH  11  12
HETATM   12  O   UNL     1      -6.240  -0.878 -34.557  1.00  0.00    -0.342 OA
BRANCH  12  13
HETATM   13  C   UNL     1      -6.004  -2.238 -34.594  1.00  0.00     0.075 A 
HETATM   14  C   UNL     1      -4.825  -2.700 -33.971  1.00  0.00    -0.023 A 
HETATM   15  C   UNL     1      -4.490  -4.075 -34.051  1.00  0.00    -0.053 A 
HETATM   16  C   UNL     1      -3.893  -1.737 -33.280  1.00  0.00     0.052 C 
HETATM   17  C   UNL     1      -3.230  -4.636 -33.446  1.00  0.00     0.049 C 
HETATM   18  C   UNL     1      -5.374  -4.970 -34.672  1.00  0.00     0.007 A 
HETATM   19  C   UNL     1      -6.559  -4.516 -35.238  1.00  0.00     0.003 A 
HETATM   20  C   UNL     1      -6.869  -3.159 -35.203  1.00  0.00     0.037 A 
ENDBRANCH  12  13
ENDBRANCH  11  12
ENDBRANCH   8  11
ENDBRANCH   1   7
BRANCH   4  21
HETATM   21  N   UNL     1      -2.955   5.935 -31.091  1.00  0.00    -0.378 N 
HETATM   22  C   UNL     1      -1.680   5.705 -30.401  1.00  0.00     0.150 C 
HETATM   23  C   UNL     1      -1.452   6.819 -29.350  1.00  0.00     0.255 C 
HETATM   24  N   UNL     1      -1.586   8.219 -29.963  1.00  0.00    -0.064 N 
HETATM   25  H   UNL     1      -0.809   8.329 -30.625  1.00  0.00     0.280 HD
HETATM   26  C   UNL     1      -2.891   8.366 -30.745  1.00  0.00     0.255 C 
HETATM   27  C   UNL     1      -3.052   7.236 -31.777  1.00  0.00     0.150 C 
BRANCH  24  28
HETATM   28  C   UNL     1      -1.463   9.317 -28.933  1.00  0.00     0.273 C 
BRANCH  28  29
HETATM   29  C   UNL     1      -0.482   9.007 -27.838  1.00  0.00    -0.033 A 
HETATM   30  C   UNL     1       0.842   8.660 -28.146  1.00  0.00     0.009 A 
HETATM   31  C   UNL     1       1.749   8.367 -27.126  1.00  0.00     0.001 A 
HETATM   32  C   UNL     1       1.344   8.416 -25.794  1.00  0.00     0.000 A 
HETATM   33  C   UNL     1       0.032   8.760 -25.477  1.00  0.00     0.001 A 
HETATM   34  C   UNL     1      -0.878   9.055 -26.493  1.00  0.00     0.009 A 
ENDBRANCH  28  29
ENDBRANCH  24  28
ENDBRANCH   4  21
TORSDOF 7
ENDMDL
MODEL 2
REMARK VINA RESULT:      -8.6      6.767      9.649
REMARK  7 active torsions:
REMARK  status: ('A' for Active; 'I' for Inactive)
REMARK    1  A    between atoms: C_5  and  O_6 
REMARK    2  A    between atoms: O_6  and  C_7 
REMARK    3  A    between atoms: C_7  and  C_8 
REMARK       I    between atoms: C_8  and  N_9 
REMARK    4  A    between atoms: N_9  and  C_10 
REMARK    5  A    between atoms: C_13  and  N_14 
REMARK    6  A    between atoms: N_17  and  C_19 
REMARK    7  A    between atoms: C_19  and  C_20 
ROOT
HETATM    1  C   UNL     1      -8.528   1.032 -32.540  1.00  0.00     0.034 A 
HETATM    2  C   UNL     1      -9.019   2.064 -31.745  1.00  0.00     0.032 A 
HETATM    3  C   UNL     1     -10.089   2.857 -32.175  1.00  0.00     0.031 A 
HETATM    4  C   UNL     1     -10.722   2.656 -33.408  1.00  0.00     0.030 A 
HETATM    5  C   UNL     1     -10.218   1.618 -34.202  1.00  0.00     0.031 A 
HETATM    6  C   UNL     1      -9.137   0.817 -33.778  1.00  0.00     0.032 A 
ENDROOT
BRANCH   1   7
HETATM    7  N   UNL     1      -7.423   0.231 -32.174  1.00  0.00    -0.325 N 
HETATM    8  C   UNL     1      -6.088   0.588 -32.260  1.00  0.00     0.246 C 
HETATM    9  O   UNL     1      -5.655   1.698 -32.565  1.00  0.00    -0.271 OA
HETATM   10  H   UNL     1      -7.607  -0.688 -31.784  1.00  0.00     0.169 HD
BRANCH   8  11
HETATM   11  C   UNL     1      -5.106  -0.558 -32.018  1.00  0.00     0.278 C 
BRANCH  11  12
HETATM   12  O   UNL     1      -4.317  -0.933 -33.139  1.00  0.00    -0.342 OA
BRANCH  12  13
HETATM   13  C   UNL     1      -4.357  -2.278 -33.453  1.00  0.00     0.075 A 
HETATM   14  C   UNL     1      -5.353  -2.694 -34.361  1.00  0.00    -0.023 A 
HETATM   15  C   UNL     1      -5.493  -4.074 -34.654  1.00  0.00    -0.053 A 
HETATM   16  C   UNL     1      -6.306  -1.695 -34.967  1.00  0.00     0.052 C 
HETATM   17  C   UNL     1      -6.557  -4.598 -35.582  1.00  0.00     0.049 C 
HETATM   18  C   UNL     1      -4.587  -4.994 -34.107  1.00  0.00     0.007 A 
HETATM   19  C   UNL     1      -3.575  -4.572 -33.254  1.00  0.00     0.003 A 
HETATM   20  C   UNL     1      -3.463  -3.222 -32.926  1.00  0.00     0.037 A 
ENDBRANCH  12  13
ENDBRANCH  11  12
ENDBRANCH   8  11
ENDBRANCH   1   7
BRANCH   4  21
HETATM   21  N   UNL     1     -11.748   3.508 -33.802  1.00  0.00    -0.378 N 
HETATM   22  C   UNL     1     -12.280   3.484 -35.170  1.00  0.00     0.150 C 
HETATM   23  C   UNL     1     -12.793   4.895 -35.550  1.00  0.00     0.255 C 
HETATM   24  N   UNL     1     -13.775   5.446 -34.509  1.00  0.00    -0.064 N 
HETATM   25  H   UNL     1     -14.611   4.852 -34.544  1.00  0.00     0.280 HD
HETATM   26  C   UNL     1     -13.200   5.359 -33.095  1.00  0.00     0.255 C 
HETATM   27  C   UNL     1     -12.719   3.932 -32.777  1.00  0.00     0.150 C 
BRANCH  24  28
HETATM   28  C   UNL     1     -14.209   6.861 -34.813  1.00  0.00     0.273 C 
BRANCH  28  29
HETATM   29  C   UNL     1     -13.415   7.511 -35.911  1.00  0.00    -0.033 A 
HETATM   30  C   UNL     1     -12.128   8.011 -35.657  1.00  0.00     0.009 A 
HETATM   31  C   UNL     1     -11.395   8.620 -36.677  1.00  0.00     0.001 A 
HETATM   32  C   UNL     1     -11.939   8.737 -37.954  1.00  0.00     0.000 A 
HETATM   33  C   UNL     1     -13.215   8.243 -38.217  1.00  0.00     0.001 A 
HETATM   34  C   UNL     1     -13.950   7.632 -37.201  1.00  0.00     0.009 A 
ENDBRANCH  28  29
ENDBRANCH  24  28
ENDBRANCH   4  21
TORSDOF 7
ENDMDL
MODEL 3
REMARK VINA RESULT:      -8.5      1.588      2.287
REMARK  7 active torsions:
REMARK  status: ('A' for Active; 'I' for Inactive)
REMARK    1  A    between atoms: C_5  and  O_6 
REMARK    2  A    between atoms: O_6  and  C_7 
REMARK    3  A    between atoms: C_7  and  C_8 
REMARK       I    between atoms: C_8  and  N_9 
REMARK    4  A    between atoms: N_9  and  C_10 
REMARK    5  A    between atoms: C_13  and  N_14 
REMARK    6  A    between atoms: N_17  and  C_19 
REMARK    7  A    between atoms: C_19  and  C_20 
ROOT
HETATM    1  C   UNL     1      -4.977   3.298 -33.081  1.00  0.00     0.034 A 
HETATM    2  C   UNL     1      -4.878   4.674 -33.264  1.00  0.00     0.032 A 
HETATM    3  C   UNL     1      -3.829   5.403 -32.692  1.00  0.00     0.031 A 
HETATM    4  C   UNL     1      -2.829   4.797 -31.920  1.00  0.00     0.030 A 
HETATM    5  C   UNL     1      -2.940   3.412 -31.738  1.00  0.00     0.031 A 
HETATM    6  C   UNL     1      -3.997   2.671 -32.307  1.00  0.00     0.032 A 
ENDROOT
BRANCH   1   7
HETATM    7  N   UNL     1      -6.038   2.523 -33.598  1.00  0.00    -0.325 N 
HETATM    8  C   UNL     1      -7.296   2.378 -33.038  1.00  0.00     0.246 C 
HETATM    9  O   UNL     1      -7.727   2.989 -32.061  1.00  0.00    -0.271 OA
HETATM   10  H   UNL     1      -5.891   2.036 -34.477  1.00  0.00     0.169 HD
BRANCH   8  11
HETATM   11  C   UNL     1      -8.161   1.296 -33.685  1.00  0.00     0.278 C 
BRANCH  11  12
HETATM   12  O   UNL     1      -8.109   0.020 -33.061  1.00  0.00    -0.342 OA
BRANCH  12  13
HETATM   13  C   UNL     1      -7.043  -0.770 -33.443  1.00  0.00     0.075 A 
HETATM   14  C   UNL     1      -5.984  -0.906 -32.520  1.00  0.00    -0.023 A 
HETATM   15  C   UNL     1      -4.828  -1.637 -32.892  1.00  0.00    -0.053 A 
HETATM   16  C   UNL     1      -6.047  -0.230 -31.174  1.00  0.00     0.052 C 
HETATM   17  C   UNL     1      -3.642  -1.792 -31.977  1.00  0.00     0.049 C 
HETATM   18  C   UNL     1      -4.788  -2.285 -34.136  1.00  0.00     0.007 A 
HETATM   19  C   UNL     1      -5.855  -2.190 -35.020  1.00  0.00     0.003 A 
HETATM   20  C   UNL     1      -6.974  -1.435 -34.677  1.00  0.00     0.037 A 
ENDBRANCH  12  13
ENDBRANCH  11  12
ENDBRANCH   8  11
ENDBRANCH   1   7
BRANCH   4  21
HETATM   21  N   UNL     1      -1.840   5.581 -31.336  1.00  0.00    -0.378 N 
HETATM   22  C   UNL     1      -0.435   5.155 -31.322  1.00  0.00     0.150 C 
HETATM   23  C   UNL     1       0.267   5.732 -30.067  1.00  0.00     0.255 C 
HETATM   24  N   UNL     1       0.073   7.248 -29.950  1.00  0.00    -0.064 N 
HETATM   25  H   UNL     1       0.572   7.674 -30.740  1.00  0.00     0.280 HD
HETATM   26  C   UNL     1      -1.400   7.636 -30.064  1.00  0.00     0.255 C 
HETATM   27  C   UNL     1      -2.035   7.042 -31.335  1.00  0.00     0.150 C 
BRANCH  24  28
HETATM   28  C   UNL     1       0.668   7.812 -28.681  1.00  0.00     0.273 C 
BRANCH  28  29
HETATM   29  C   UNL     1      -0.300   7.863 -27.533  1.00  0.00    -0.033 A 
HETATM   30  C   UNL     1      -0.766   6.678 -26.942  1.00  0.00     0.009 A 
HETATM   31  C   UNL     1      -1.671   6.730 -25.880  1.00  0.00     0.001 A 
HETATM   32  C   UNL     1      -2.118   7.959 -25.402  1.00  0.00     0.000 A 
HETATM   33  C   UNL     1      -1.661   9.141 -25.980  1.00  0.00     0.001 A 
HETATM   34  C   UNL     1      -0.756   9.095 -27.041  1.00  0.00     0.009 A 
ENDBRANCH  28  29
ENDBRANCH  24  28
ENDBRANCH   4  21
TORSDOF 7
ENDMDL
MODEL 4
REMARK VINA RESULT:      -8.5      2.879     11.951
REMARK  7 active torsions:
REMARK  status: ('A' for Active; 'I' for Inactive)
REMARK    1  A    between atoms: C_5  and  O_6 
REMARK    2  A    between atoms: O_6  and  C_7 
REMARK    3  A    between atoms: C_7  and  C_8 
REMARK       I    between atoms: C_8  and  N_9 
REMARK    4  A    between atoms: N_9  and  C_10 
REMARK    5  A    between atoms: C_13  and  N_14 
REMARK    6  A    between atoms: N_17  and  C_19 
REMARK    7  A    between atoms: C_19  and  C_20 
ROOT
HETATM    1  C   UNL     1      -3.659   6.808 -30.507  1.00  0.00     0.034 A 
HETATM    2  C   UNL     1      -2.777   5.848 -30.995  1.00  0.00     0.032 A 
HETATM    3  C   UNL     1      -3.249   4.682 -31.609  1.00  0.00     0.031 A 
HETATM    4  C   UNL     1      -4.615   4.423 -31.773  1.00  0.00     0.030 A 
HETATM    5  C   UNL     1      -5.495   5.393 -31.275  1.00  0.00     0.031 A 
HETATM    6  C   UNL     1      -5.027   6.568 -30.649  1.00  0.00     0.032 A 
ENDROOT
BRANCH   1   7
HETATM    7  N   UNL     1      -3.237   7.979 -29.840  1.00  0.00    -0.325 N 
HETATM    8  C   UNL     1      -2.735   9.125 -30.434  1.00  0.00     0.246 C 
HETATM    9  O   UNL     1      -2.681   9.348 -31.642  1.00  0.00    -0.271 OA
HETATM   10  H   UNL     1      -3.325   8.013 -28.829  1.00  0.00     0.169 HD
BRANCH   8  11
HETATM   11  C   UNL     1      -2.141  10.141 -29.458  1.00  0.00     0.278 C 
BRANCH  11  12
HETATM   12  O   UNL     1      -2.035   9.702 -28.110  1.00  0.00    -0.342 OA
BRANCH  12  13
HETATM   13  C   UNL     1      -0.759   9.363 -27.708  1.00  0.00     0.075 A 
HETATM   14  C   UNL     1      -0.218  10.082 -26.621  1.00  0.00    -0.023 A 
HETATM   15  C   UNL     1       1.119   9.833 -26.220  1.00  0.00    -0.053 A 
HETATM   16  C   UNL     1      -1.025  11.152 -25.930  1.00  0.00     0.052 C 
HETATM   17  C   UNL     1       1.778  10.589 -25.096  1.00  0.00     0.049 C 
HETATM   18  C   UNL     1       1.855   8.819 -26.850  1.00  0.00     0.007 A 
HETATM   19  C   UNL     1       1.299   8.079 -27.886  1.00  0.00     0.003 A 
HETATM   20  C   UNL     1       0.001   8.351 -28.314  1.00  0.00     0.037 A 
ENDBRANCH  12  13
ENDBRANCH  11  12
ENDBRANCH   8  11
ENDBRANCH   1   7
BRANCH   4  21
HETATM   21  N   UNL     1      -5.025   3.224 -32.346  1.00  0.00    -0.378 N 
HETATM   22  C   UNL     1      -5.689   3.189 -33.655  1.00  0.00     0.150 C 
HETATM   23  C   UNL     1      -6.654   1.979 -33.713  1.00  0.00     0.255 C 
HETATM   24  N   UNL     1      -5.952   0.669 -33.334  1.00  0.00    -0.064 N 
HETATM   25  H   UNL     1      -5.260   0.479 -34.068  1.00  0.00     0.280 HD
HETATM   26  C   UNL     1      -5.203   0.797 -32.008  1.00  0.00     0.255 C 
HETATM   27  C   UNL     1      -4.255   2.010 -32.020  1.00  0.00     0.150 C 
BRANCH  24  28
HETATM   28  C   UNL     1      -6.902  -0.505 -33.290  1.00  0.00     0.273 C 
BRANCH  28  29
HETATM   29  C   UNL     1      -6.334  -1.760 -33.889  1.00  0.00    -0.033 A 
HETATM   30  C   UNL     1      -4.945  -1.944 -33.971  1.00  0.00     0.009 A 
HETATM   31  C   UNL     1      -4.421  -3.110 -34.533  1.00  0.00     0.001 A 
HETATM   32  C   UNL     1      -5.275  -4.097 -35.018  1.00  0.00     0.000 A 
HETATM   33  C   UNL     1      -6.655  -3.925 -34.941  1.00  0.00     0.001 A 
HETATM   34  C   UNL     1      -7.184  -2.763 -34.379  1.00  0.00     0.009 A 
ENDBRANCH  28  29
ENDBRANCH  24  28
ENDBRANCH   4  21
TORSDOF 7
ENDMDL
MODEL 5
REMARK VINA RESULT:      -8.5      2.765     11.220
REMARK  7 active torsions:
REMARK  status: ('A' for Active; 'I' for Inactive)
REMARK    1  A    between atoms: C_5  and  O_6 
REMARK    2  A    between atoms: O_6  and  C_7 
REMARK    3  A    between atoms: C_7  and  C_8 
REMARK       I    between atoms: C_8  and  N_9 
REMARK    4  A    between atoms: N_9  and  C_10 
REMARK    5  A    between atoms: C_13  and  N_14 
REMARK    6  A    between atoms: N_17  and  C_19 
REMARK    7  A    between atoms: C_19  and  C_20 
ROOT
HETATM    1  C   UNL     1      -4.616   5.739 -29.811  1.00  0.00     0.034 A 
HETATM    2  C   UNL     1      -3.817   5.221 -30.826  1.00  0.00     0.032 A 
HETATM    3  C   UNL     1      -4.141   4.011 -31.451  1.00  0.00     0.031 A 
HETATM    4  C   UNL     1      -5.275   3.268 -31.101  1.00  0.00     0.030 A 
HETATM    5  C   UNL     1      -6.070   3.795 -30.075  1.00  0.00     0.031 A 
HETATM    6  C   UNL     1      -5.748   5.011 -29.437  1.00  0.00     0.032 A 
ENDROOT
BRANCH   1   7
HETATM    7  N   UNL     1      -4.311   6.931 -29.118  1.00  0.00    -0.325 N 
HETATM    8  C   UNL     1      -4.682   8.213 -29.489  1.00  0.00     0.246 C 
HETATM    9  O   UNL     1      -5.430   8.507 -30.419  1.00  0.00    -0.271 OA
HETATM   10  H   UNL     1      -3.790   6.860 -28.249  1.00  0.00     0.169 HD
BRANCH   8  11
HETATM   11  C   UNL     1      -4.015   9.328 -28.682  1.00  0.00     0.278 C 
BRANCH  11  12
HETATM   12  O   UNL     1      -2.819   9.853 -29.241  1.00  0.00    -0.342 OA
BRANCH  12  13
HETATM   13  C   UNL     1      -1.701   9.059 -29.070  1.00  0.00     0.075 A 
HETATM   14  C   UNL     1      -1.238   8.354 -30.201  1.00  0.00    -0.023 A 
HETATM   15  C   UNL     1      -0.146   7.461 -30.063  1.00  0.00    -0.053 A 
HETATM   16  C   UNL     1      -1.932   8.495 -31.532  1.00  0.00     0.052 C 
HETATM   17  C   UNL     1       0.380   6.644 -31.214  1.00  0.00     0.049 C 
HETATM   18  C   UNL     1       0.512   7.355 -28.828  1.00  0.00     0.007 A 
HETATM   19  C   UNL     1       0.083   8.091 -27.731  1.00  0.00     0.003 A 
HETATM   20  C   UNL     1      -1.019   8.935 -27.851  1.00  0.00     0.037 A 
ENDBRANCH  12  13
ENDBRANCH  11  12
ENDBRANCH   8  11
ENDBRANCH   1   7
BRANCH   4  21
HETATM   21  N   UNL     1      -5.518   2.048 -31.723  1.00  0.00    -0.378 N 
HETATM   22  C   UNL     1      -4.453   1.054 -31.901  1.00  0.00     0.150 C 
HETATM   23  C   UNL     1      -4.732   0.219 -33.175  1.00  0.00     0.255 C 
HETATM   24  N   UNL     1      -6.146  -0.375 -33.172  1.00  0.00    -0.064 N 
HETATM   25  H   UNL     1      -6.180  -1.058 -32.407  1.00  0.00     0.280 HD
HETATM   26  C   UNL     1      -7.202   0.694 -32.892  1.00  0.00     0.255 C 
HETATM   27  C   UNL     1      -6.872   1.478 -31.608  1.00  0.00     0.150 C 
BRANCH  24  28
HETATM   28  C   UNL     1      -6.468  -1.109 -34.452  1.00  0.00     0.273 C 
BRANCH  28  29
HETATM   29  C   UNL     1      -5.942  -2.516 -34.487  1.00  0.00    -0.033 A 
HETATM   30  C   UNL     1      -4.623  -2.792 -34.096  1.00  0.00     0.009 A 
HETATM   31  C   UNL     1      -4.136  -4.100 -34.136  1.00  0.00     0.001 A 
HETATM   32  C   UNL     1      -4.956  -5.139 -34.567  1.00  0.00     0.000 A 
HETATM   33  C   UNL     1      -6.267  -4.876 -34.957  1.00  0.00     0.001 A 
HETATM   34  C   UNL     1      -6.760  -3.572 -34.917  1.00  0.00     0.009 A 
ENDBRANCH  28  29
ENDBRANCH  24  28
ENDBRANCH   4  21
TORSDOF 7
ENDMDL
MODEL 6
REMARK VINA RESULT:      -8.5      4.263      6.862
REMARK  7 active torsions:
REMARK  status: ('A' for Active; 'I' for Inactive)
REMARK    1  A    between atoms: C_5  and  O_6 
REMARK    2  A    between atoms: O_6  and  C_7 
REMARK    3  A    between atoms: C_7  and  C_8 
REMARK       I    between atoms: C_8  and  N_9 
REMARK    4  A    between atoms: N_9  and  C_10 
REMARK    5  A    between atoms: C_13  and  N_14 
REMARK    6  A    between atoms: N_17  and  C_19 
REMARK    7  A    between atoms: C_19  and  C_20 
ROOT
HETATM    1  C   UNL     1      -0.991   6.674 -30.760  1.00  0.00     0.034 A 
HETATM    2  C   UNL     1       0.341   6.977 -30.495  1.00  0.00     0.032 A 
HETATM    3  C   UNL     1       0.738   7.433 -29.233  1.00  0.00     0.031 A 
HETATM    4  C   UNL     1      -0.168   7.601 -28.178  1.00  0.00     0.030 A 
HETATM    5  C   UNL     1      -1.507   7.297 -28.456  1.00  0.00     0.031 A 
HETATM    6  C   UNL     1      -1.916   6.842 -29.727  1.00  0.00     0.032 A 
ENDROOT
BRANCH   1   7
HETATM    7  N   UNL     1      -1.452   6.253 -32.027  1.00  0.00    -0.325 N 
HETATM    8  C   UNL     1      -1.874   7.073 -33.060  1.00  0.00     0.246 C 
HETATM    9  O   UNL     1      -1.809   8.302 -33.079  1.00  0.00    -0.271 OA
HETATM   10  H   UNL     1      -1.459   5.258 -32.228  1.00  0.00     0.169 HD
BRANCH   8  11
HETATM   11  C   UNL     1      -2.538   6.340 -34.226  1.00  0.00     0.278 C 
BRANCH  11  12
HETATM   12  O   UNL     1      -2.751   4.949 -34.029  1.00  0.00    -0.342 OA
BRANCH  12  13
HETATM   13  C   UNL     1      -4.030   4.606 -33.640  1.00  0.00     0.075 A 
HETATM   14  C   UNL     1      -4.152   3.735 -32.536  1.00  0.00    -0.023 A 
HETATM   15  C   UNL     1      -5.438   3.284 -32.146  1.00  0.00    -0.053 A 
HETATM   16  C   UNL     1      -2.927   3.234 -31.815  1.00  0.00     0.052 C 
HETATM   17  C   UNL     1      -5.645   2.323 -31.005  1.00  0.00     0.049 C 
HETATM   18  C   UNL     1      -6.575   3.775 -32.805  1.00  0.00     0.007 A 
HETATM   19  C   UNL     1      -6.451   4.672 -33.858  1.00  0.00     0.003 A 
HETATM   20  C   UNL     1      -5.187   5.082 -34.275  1.00  0.00     0.037 A 
ENDBRANCH  12  13
ENDBRANCH  11  12
ENDBRANCH   8  11
ENDBRANCH   1   7
BRANCH   4  21
HETATM   21  N   UNL     1       0.278   8.105 -26.961  1.00  0.00    -0.378 N 
HETATM   22  C   UNL     1      -0.662   8.574 -25.936  1.00  0.00     0.150 C 
HETATM   23  C   UNL     1       0.002   9.696 -25.101  1.00  0.00     0.255 C 
HETATM   24  N   UNL     1       1.366   9.266 -24.546  1.00  0.00    -0.064 N 
HETATM   25  H   UNL     1       1.188   8.515 -23.869  1.00  0.00     0.280 HD
HETATM   26  C   UNL     1       2.265   8.702 -25.645  1.00  0.00     0.255 C 
HETATM   27  C   UNL     1       1.551   7.586 -26.430  1.00  0.00     0.150 C 
BRANCH  24  28
HETATM   28  C   UNL     1       2.071  10.382 -23.811  1.00  0.00     0.273 C 
BRANCH  28  29
HETATM   29  C   UNL     1       3.132   9.901 -22.862  1.00  0.00    -0.033 A 
HETATM   30  C   UNL     1       3.061   8.612 -22.311  1.00  0.00     0.009 A 
HETATM   31  C   UNL     1       4.046   8.171 -21.424  1.00  0.00     0.001 A 
HETATM   32  C   UNL     1       5.104   9.010 -21.081  1.00  0.00     0.000 A 
HETATM   33  C   UNL     1       5.183  10.290 -21.623  1.00  0.00     0.001 A 
HETATM   34  C   UNL     1       4.203  10.735 -22.511  1.00  0.00     0.009 A 
ENDBRANCH  28  29
ENDBRANCH  24  28
ENDBRANCH   4  21
TORSDOF 7
ENDMDL
MODEL 7
REMARK VINA RESULT:      -8.4      2.917     12.310
REMARK  7 active torsions:
REMARK  status: ('A' for Active; 'I' for Inactive)
REMARK    1  A    between atoms: C_5  and  O_6 
REMARK    2  A    between atoms: O_6  and  C_7 
REMARK    3  A    between atoms: C_7  and  C_8 
REMARK       I    between atoms: C_8  and  N_9 
REMARK    4  A    between atoms: N_9  and  C_10 
REMARK    5  A    between atoms: C_13  and  N_14 
REMARK    6  A    between atoms: N_17  and  C_19 
REMARK    7  A    between atoms: C_19  and  C_20 
ROOT
HETATM    1  C   UNL     1      -2.428   6.561 -30.468  1.00  0.00     0.034 A 
HETATM    2  C   UNL     1      -1.709   5.526 -31.058  1.00  0.00     0.032 A 
HETATM    3  C   UNL     1      -2.364   4.441 -31.652  1.00  0.00     0.031 A 
HETATM    4  C   UNL     1      -3.761   4.340 -31.693  1.00  0.00     0.030 A 
HETATM    5  C   UNL     1      -4.476   5.385 -31.093  1.00  0.00     0.031 A 
HETATM    6  C   UNL     1      -3.823   6.480 -30.488  1.00  0.00     0.032 A 
ENDROOT
BRANCH   1   7
HETATM    7  N   UNL     1      -1.817   7.656 -29.818  1.00  0.00    -0.325 N 
HETATM    8  C   UNL     1      -1.768   7.873 -28.451  1.00  0.00     0.246 C 
HETATM    9  O   UNL     1      -2.151   7.092 -27.581  1.00  0.00    -0.271 OA
HETATM   10  H   UNL     1      -1.342   8.348 -30.389  1.00  0.00     0.169 HD
BRANCH   8  11
HETATM   11  C   UNL     1      -1.251   9.253 -28.043  1.00  0.00     0.278 C 
BRANCH  11  12
HETATM   12  O   UNL     1      -1.247   9.514 -26.646  1.00  0.00    -0.342 OA
BRANCH  12  13
HETATM   13  C   UNL     1      -0.031   9.317 -26.022  1.00  0.00     0.075 A 
HETATM   14  C   UNL     1       0.074   9.735 -24.678  1.00  0.00    -0.023 A 
HETATM   15  C   UNL     1       1.322   9.634 -24.015  1.00  0.00    -0.053 A 
HETATM   16  C   UNL     1      -1.109  10.344 -23.969  1.00  0.00     0.052 C 
HETATM   17  C   UNL     1       1.522  10.095 -22.595  1.00  0.00     0.049 C 
HETATM   18  C   UNL     1       2.411   9.042 -24.672  1.00  0.00     0.007 A 
HETATM   19  C   UNL     1       2.288   8.586 -25.978  1.00  0.00     0.003 A 
HETATM   20  C   UNL     1       1.075   8.725 -26.650  1.00  0.00     0.037 A 
ENDBRANCH  12  13
ENDBRANCH  11  12
ENDBRANCH   8  11
ENDBRANCH   1   7
BRANCH   4  21
HETATM   21  N   UNL     1      -4.354   3.214 -32.253  1.00  0.00    -0.378 N 
HETATM   22  C   UNL     1      -5.279   3.320 -33.387  1.00  0.00     0.150 C 
HETATM   23  C   UNL     1      -6.306   2.163 -33.327  1.00  0.00     0.255 C 
HETATM   24  N   UNL     1      -5.622   0.796 -33.205  1.00  0.00    -0.064 N 
HETATM   25  H   UNL     1      -5.113   0.639 -34.082  1.00  0.00     0.280 HD
HETATM   26  C   UNL     1      -4.605   0.777 -32.064  1.00  0.00     0.255 C 
HETATM   27  C   UNL     1      -3.608   1.944 -32.189  1.00  0.00     0.150 C 
BRANCH  24  28
HETATM   28  C   UNL     1      -6.611  -0.335 -33.046  1.00  0.00     0.273 C 
BRANCH  28  29
HETATM   29  C   UNL     1      -6.204  -1.595 -33.756  1.00  0.00    -0.033 A 
HETATM   30  C   UNL     1      -4.847  -1.901 -33.938  1.00  0.00     0.009 A 
HETATM   31  C   UNL     1      -4.472  -3.070 -34.604  1.00  0.00     0.001 A 
HETATM   32  C   UNL     1      -5.445  -3.939 -35.092  1.00  0.00     0.000 A 
HETATM   33  C   UNL     1      -6.795  -3.645 -34.915  1.00  0.00     0.001 A 
HETATM   34  C   UNL     1      -7.175  -2.479 -34.250  1.00  0.00     0.009 A 
ENDBRANCH  28  29
ENDBRANCH  24  28
ENDBRANCH   4  21
TORSDOF 7
ENDMDL
MODEL 8
REMARK VINA RESULT:      -8.4      3.761     11.758
REMARK  7 active torsions:
REMARK  status: ('A' for Active; 'I' for Inactive)
REMARK    1  A    between atoms: C_5  and  O_6 
REMARK    2  A    between atoms: O_6  and  C_7 
REMARK    3  A    between atoms: C_7  and  C_8 
REMARK       I    between atoms: C_8  and  N_9 
REMARK    4  A    between atoms: N_9  and  C_10 
REMARK    5  A    between atoms: C_13  and  N_14 
REMARK    6  A    between atoms: N_17  and  C_19 
REMARK    7  A    between atoms: C_19  and  C_20 
ROOT
HETATM    1  C   UNL     1      -3.208   4.400 -31.226  1.00  0.00     0.034 A 
HETATM    2  C   UNL     1      -4.434   5.051 -31.126  1.00  0.00     0.032 A 
HETATM    3  C   UNL     1      -5.619   4.422 -31.525  1.00  0.00     0.031 A 
HETATM    4  C   UNL     1      -5.639   3.116 -32.033  1.00  0.00     0.030 A 
HETATM    5  C   UNL     1      -4.399   2.471 -32.133  1.00  0.00     0.031 A 
HETATM    6  C   UNL     1      -3.200   3.101 -31.739  1.00  0.00     0.032 A 
ENDROOT
BRANCH   1   7
HETATM    7  N   UNL     1      -1.979   5.005 -30.880  1.00  0.00    -0.325 N 
HETATM    8  C   UNL     1      -0.933   5.287 -31.742  1.00  0.00     0.246 C 
HETATM    9  O   UNL     1      -0.950   5.158 -32.965  1.00  0.00    -0.271 OA
HETATM   10  H   UNL     1      -1.841   5.290 -29.915  1.00  0.00     0.169 HD
BRANCH   8  11
HETATM   11  C   UNL     1       0.360   5.725 -31.053  1.00  0.00     0.278 C 
BRANCH  11  12
HETATM   12  O   UNL     1       0.409   7.091 -30.662  1.00  0.00    -0.342 OA
BRANCH  12  13
HETATM   13  C   UNL     1       0.154   7.322 -29.325  1.00  0.00     0.075 A 
HETATM   14  C   UNL     1      -0.957   8.135 -29.016  1.00  0.00    -0.023 A 
HETATM   15  C   UNL     1      -1.216   8.474 -27.664  1.00  0.00    -0.053 A 
HETATM   16  C   UNL     1      -1.827   8.695 -30.113  1.00  0.00     0.052 C 
HETATM   17  C   UNL     1      -2.358   9.368 -27.260  1.00  0.00     0.049 C 
HETATM   18  C   UNL     1      -0.418   7.928 -26.647  1.00  0.00     0.007 A 
HETATM   19  C   UNL     1       0.644   7.087 -26.954  1.00  0.00     0.003 A 
HETATM   20  C   UNL     1       0.930   6.788 -28.285  1.00  0.00     0.037 A 
ENDBRANCH  12  13
ENDBRANCH  11  12
ENDBRANCH   8  11
ENDBRANCH   1   7
BRANCH   4  21
HETATM   21  N   UNL     1      -6.840   2.561 -32.459  1.00  0.00    -0.378 N 
HETATM   22  C   UNL     1      -8.112   3.277 -32.301  1.00  0.00     0.150 C 
HETATM   23  C   UNL     1      -9.263   2.254 -32.132  1.00  0.00     0.255 C 
HETATM   24  N   UNL     1      -9.270   1.210 -33.256  1.00  0.00    -0.064 N 
HETATM   25  H   UNL     1      -9.496   1.709 -34.124  1.00  0.00     0.280 HD
HETATM   26  C   UNL     1      -7.894   0.567 -33.432  1.00  0.00     0.255 C 
HETATM   27  C   UNL     1      -6.799   1.635 -33.605  1.00  0.00     0.150 C 
BRANCH  24  28
HETATM   28  C   UNL     1     -10.325   0.148 -33.054  1.00  0.00     0.273 C 
BRANCH  28  29
HETATM   29  C   UNL     1     -11.669   0.522 -33.610  1.00  0.00    -0.033 A 
HETATM   30  C   UNL     1     -12.772  -0.329 -33.438  1.00  0.00     0.009 A 
HETATM   31  C   UNL     1     -14.018   0.019 -33.962  1.00  0.00     0.001 A 
HETATM   32  C   UNL     1     -14.174   1.213 -34.662  1.00  0.00     0.000 A 
HETATM   33  C   UNL     1     -13.086   2.065 -34.838  1.00  0.00     0.001 A 
HETATM   34  C   UNL     1     -11.839   1.723 -34.315  1.00  0.00     0.009 A 
ENDBRANCH  28  29
ENDBRANCH  24  28
ENDBRANCH   4  21
TORSDOF 7
ENDMDL
MODEL 9
REMARK VINA RESULT:      -8.3      2.565      5.123
REMARK  7 active torsions:
REMARK  status: ('A' for Active; 'I' for Inactive)
REMARK    1  A    between atoms: C_5  and  O_6 
REMARK    2  A    between atoms: O_6  and  C_7 
REMARK    3  A    between atoms: C_7  and  C_8 
REMARK       I    between atoms: C_8  and  N_9 
REMARK    4  A    between atoms: N_9  and  C_10 
REMARK    5  A    between atoms: C_13  and  N_14 
REMARK    6  A    between atoms: N_17  and  C_19 
REMARK    7  A    between atoms: C_19  and  C_20 
ROOT
HETATM    1  C   UNL     1      -2.159   5.899 -30.731  1.00  0.00     0.034 A 
HETATM    2  C   UNL     1      -2.791   6.870 -29.959  1.00  0.00     0.032 A 
HETATM    3  C   UNL     1      -2.122   7.497 -28.902  1.00  0.00     0.031 A 
HETATM    4  C   UNL     1      -0.795   7.194 -28.570  1.00  0.00     0.030 A 
HETATM    5  C   UNL     1      -0.170   6.212 -29.350  1.00  0.00     0.031 A 
HETATM    6  C   UNL     1      -0.839   5.572 -30.413  1.00  0.00     0.032 A 
ENDROOT
BRANCH   1   7
HETATM    7  N   UNL     1      -2.802   5.205 -31.780  1.00  0.00    -0.325 N 
HETATM    8  C   UNL     1      -3.911   4.384 -31.660  1.00  0.00     0.246 C 
HETATM    9  O   UNL     1      -4.580   4.217 -30.641  1.00  0.00    -0.271 OA
HETATM   10  H   UNL     1      -2.446   5.326 -32.723  1.00  0.00     0.169 HD
BRANCH   8  11
HETATM   11  C   UNL     1      -4.246   3.580 -32.917  1.00  0.00     0.278 C 
BRANCH  11  12
HETATM   12  O   UNL     1      -5.344   2.685 -32.793  1.00  0.00    -0.342 OA
BRANCH  12  13
HETATM   13  C   UNL     1      -5.024   1.350 -32.937  1.00  0.00     0.075 A 
HETATM   14  C   UNL     1      -5.884   0.568 -33.737  1.00  0.00    -0.023 A 
HETATM   15  C   UNL     1      -5.651  -0.825 -33.851  1.00  0.00    -0.053 A 
HETATM   16  C   UNL     1      -7.078   1.191 -34.415  1.00  0.00     0.052 C 
HETATM   17  C   UNL     1      -6.547  -1.731 -34.655  1.00  0.00     0.049 C 
HETATM   18  C   UNL     1      -4.523  -1.392 -33.239  1.00  0.00     0.007 A 
HETATM   19  C   UNL     1      -3.651  -0.608 -32.495  1.00  0.00     0.003 A 
HETATM   20  C   UNL     1      -3.902   0.753 -32.342  1.00  0.00     0.037 A 
ENDBRANCH  12  13
ENDBRANCH  11  12
ENDBRANCH   8  11
ENDBRANCH   1   7
BRANCH   4  21
HETATM   21  N   UNL     1      -0.200   7.815 -27.477  1.00  0.00    -0.378 N 
HETATM   22  C   UNL     1      -0.897   8.858 -26.715  1.00  0.00     0.150 C 
HETATM   23  C   UNL     1       0.139   9.843 -26.121  1.00  0.00     0.255 C 
HETATM   24  N   UNL     1       1.230   9.116 -25.327  1.00  0.00    -0.064 N 
HETATM   25  H   UNL     1       0.774   8.699 -24.507  1.00  0.00     0.280 HD
HETATM   26  C   UNL     1       1.854   7.982 -26.140  1.00  0.00     0.255 C 
HETATM   27  C   UNL     1       0.774   7.034 -26.693  1.00  0.00     0.150 C 
BRANCH  24  28
HETATM   28  C   UNL     1       2.303  10.053 -24.822  1.00  0.00     0.273 C 
BRANCH  28  29
HETATM   29  C   UNL     1       3.221   9.428 -23.811  1.00  0.00    -0.033 A 
HETATM   30  C   UNL     1       2.700   8.821 -22.657  1.00  0.00     0.009 A 
HETATM   31  C   UNL     1       3.557   8.246 -21.716  1.00  0.00     0.001 A 
HETATM   32  C   UNL     1       4.935   8.275 -21.916  1.00  0.00     0.000 A 
HETATM   33  C   UNL     1       5.462   8.874 -23.058  1.00  0.00     0.001 A 
HETATM   34  C   UNL     1       4.610   9.448 -24.002  1.00  0.00     0.009 A 
ENDBRANCH  28  29
ENDBRANCH  24  28
ENDBRANCH   4  21
TORSDOF 7
ENDMDL
MODEL 10
REMARK VINA RESULT:      -8.1      6.934     11.503
REMARK  7 active torsions:
REMARK  status: ('A' for Active; 'I' for Inactive)
REMARK    1  A    between atoms: C_5  and  O_6 
REMARK    2  A    between atoms: O_6  and  C_7 
REMARK    3  A    between atoms: C_7  and  C_8 
REMARK       I    between atoms: C_8  and  N_9 
REMARK    4  A    between atoms: N_9  and  C_10 
REMARK    5  A    between atoms: C_13  and  N_14 
REMARK    6  A    between atoms: N_17  and  C_19 
REMARK    7  A    between atoms: C_19  and  C_20 
ROOT
HETATM    1  C   UNL     1     -11.001   4.718 -34.856  1.00  0.00     0.034 A 
HETATM    2  C   UNL     1     -11.241   3.347 -34.887  1.00  0.00     0.032 A 
HETATM    3  C   UNL     1     -10.270   2.436 -34.455  1.00  0.00     0.031 A 
HETATM    4  C   UNL     1      -9.023   2.846 -33.967  1.00  0.00     0.030 A 
HETATM    5  C   UNL     1      -8.789   4.227 -33.943  1.00  0.00     0.031 A 
HETATM    6  C   UNL     1      -9.761   5.151 -34.382  1.00  0.00     0.032 A 
ENDROOT
BRANCH   1   7
HETATM    7  N   UNL     1     -11.928   5.676 -35.320  1.00  0.00    -0.325 N 
HETATM    8  C   UNL     1     -13.120   6.028 -34.709  1.00  0.00     0.246 C 
HETATM    9  O   UNL     1     -13.507   5.642 -33.607  1.00  0.00    -0.271 OA
HETATM   10  H   UNL     1     -11.705   6.185 -36.170  1.00  0.00     0.169 HD
BRANCH   8  11
HETATM   11  C   UNL     1     -14.031   6.919 -35.554  1.00  0.00     0.278 C 
BRANCH  11  12
HETATM   12  O   UNL     1     -13.586   8.258 -35.724  1.00  0.00    -0.342 OA
BRANCH  12  13
HETATM   13  C   UNL     1     -13.094   8.550 -36.981  1.00  0.00     0.075 A 
HETATM   14  C   UNL     1     -11.771   9.038 -37.052  1.00  0.00    -0.023 A 
HETATM   15  C   UNL     1     -11.244   9.433 -38.307  1.00  0.00    -0.053 A 
HETATM   16  C   UNL     1     -10.944   9.200 -35.802  1.00  0.00     0.052 C 
HETATM   17  C   UNL     1      -9.856   9.999 -38.457  1.00  0.00     0.049 C 
HETATM   18  C   UNL     1     -12.009   9.255 -39.469  1.00  0.00     0.007 A 
HETATM   19  C   UNL     1     -13.292   8.726 -39.398  1.00  0.00     0.003 A 
HETATM   20  C   UNL     1     -13.832   8.380 -38.161  1.00  0.00     0.037 A 
ENDBRANCH  12  13
ENDBRANCH  11  12
ENDBRANCH   8  11
ENDBRANCH   1   7
BRANCH   4  21
HETATM   21  N   UNL     1      -8.080   1.892 -33.599  1.00  0.00    -0.378 N 
HETATM   22  C   UNL     1      -7.903   1.491 -32.198  1.00  0.00     0.150 C 
HETATM   23  C   UNL     1      -6.433   1.066 -31.963  1.00  0.00     0.255 C 
HETATM   24  N   UNL     1      -5.974   0.010 -32.977  1.00  0.00    -0.064 N 
HETATM   25  H   UNL     1      -6.519  -0.840 -32.789  1.00  0.00     0.280 HD
HETATM   26  C   UNL     1      -6.268   0.446 -34.412  1.00  0.00     0.255 C 
HETATM   27  C   UNL     1      -7.746   0.845 -34.581  1.00  0.00     0.150 C 
BRANCH  24  28
HETATM   28  C   UNL     1      -4.514  -0.344 -32.824  1.00  0.00     0.273 C 
BRANCH  28  29
HETATM   29  C   UNL     1      -4.224  -1.804 -33.026  1.00  0.00    -0.033 A 
HETATM   30  C   UNL     1      -4.822  -2.509 -34.083  1.00  0.00     0.009 A 
HETATM   31  C   UNL     1      -4.556  -3.867 -34.264  1.00  0.00     0.001 A 
HETATM   32  C   UNL     1      -3.695  -4.532 -33.394  1.00  0.00     0.000 A 
HETATM   33  C   UNL     1      -3.095  -3.843 -32.343  1.00  0.00     0.001 A 
HETATM   34  C   UNL     1      -3.357  -2.485 -32.159  1.00  0.00     0.009 A 
ENDBRANCH  28  29
ENDBRANCH  24  28
ENDBRANCH   4  21
TORSDOF 7
ENDMDL
