MODEL 1
REMARK VINA RESULT:      -9.6      0.000      0.000
REMARK  5 active torsions:
REMARK  status: ('A' for Active; 'I' for Inactive)
REMARK    1  A    between atoms: C_2  and  C_3 
REMARK    2  A    between atoms: C_8  and  N_9 
REMARK       I    between atoms: N_9  and  C_10 
REMARK       I    between atoms: C_10  and  N_11 
REMARK    3  A    between atoms: N_11  and  C_12 
REMARK    4  A    between atoms: C_12  and  C_13 
REMARK    5  A    between atoms: C_13  and  C_14 
ROOT
HETATM    1  N   UNL     1      -2.481   5.025 -31.706  1.00  0.00    -0.305 N 
HETATM    2  C   UNL     1      -3.319   4.007 -32.092  1.00  0.00     0.320 C 
HETATM    3  N   UNL     1      -3.313   2.991 -31.156  1.00  0.00    -0.343 N 
HETATM    4  O   UNL     1      -4.021   3.975 -33.092  1.00  0.00    -0.247 OA
HETATM    5  H   UNL     1      -2.268   5.057 -30.719  1.00  0.00     0.171 HD
HETATM    6  H   UNL     1      -2.435   2.850 -30.679  1.00  0.00     0.164 HD
ENDROOT
BRANCH   3   7
HETATM    7  C   UNL     1      -4.141   1.816 -31.365  1.00  0.00     0.129 C 
BRANCH   7   8
HETATM    8  C   UNL     1      -3.432   0.721 -32.169  1.00  0.00     0.058 C 
BRANCH   8   9
HETATM    9  C   UNL     1      -4.294  -0.298 -32.884  1.00  0.00    -0.056 A 
HETATM   10  C   UNL     1      -3.878  -1.610 -33.150  1.00  0.00     0.019 A 
HETATM   11  C   UNL     1      -4.723  -2.535 -33.793  1.00  0.00    -0.025 A 
HETATM   12  C   UNL     1      -6.027  -2.139 -34.164  1.00  0.00    -0.026 A 
HETATM   13  C   UNL     1      -4.301  -3.845 -34.069  1.00  0.00     0.012 A 
HETATM   14  C   UNL     1      -6.451  -0.834 -33.884  1.00  0.00     0.013 A 
HETATM   15  C   UNL     1      -6.873  -3.064 -34.799  1.00  0.00     0.012 A 
HETATM   16  C   UNL     1      -5.597   0.072 -33.249  1.00  0.00     0.008 A 
HETATM   17  C   UNL     1      -6.437  -4.362 -35.067  1.00  0.00     0.001 A 
HETATM   18  C   UNL     1      -5.152  -4.752 -34.703  1.00  0.00     0.001 A 
ENDBRANCH   8   9
ENDBRANCH   7   8
ENDBRANCH   3   7
BRANCH   1  19
HETATM   19  C   UNL     1      -2.185   6.162 -32.443  1.00  0.00     0.095 A 
HETATM   20  C   UNL     1      -2.319   7.440 -31.939  1.00  0.00     0.107 A 
HETATM   21  O   UNL     1      -1.957   8.342 -32.884  1.00  0.00    -0.215 OA
HETATM   22  N   UNL     1      -1.557   7.682 -34.024  1.00  0.00    -0.131 NA
HETATM   23  C   UNL     1      -1.684   6.373 -33.761  1.00  0.00     0.087 A 
HETATM   24  C   UNL     1      -1.265   5.405 -34.803  1.00  0.00     0.075 C 
BRANCH  20  25
HETATM   25  C   UNL     1      -2.765   8.010 -30.644  1.00  0.00     0.065 C 
HETATM   26  C   UNL     1      -2.446   9.492 -30.539  1.00  0.00     0.012 C 
ENDBRANCH  20  25
ENDBRANCH   1  19
TORSDOF 5
ENDMDL
MODEL 2
REMARK VINA RESULT:      -9.3      1.227      2.812
REMARK  5 active torsions:
REMARK  status: ('A' for Active; 'I' for Inactive)
REMARK    1  A    between atoms: C_2  and  C_3 
REMARK    2  A    between atoms: C_8  and  N_9 
REMARK       I    between atoms: N_9  and  C_10 
REMARK       I    between atoms: C_10  and  N_11 
REMARK    3  A    between atoms: N_11  and  C_12 
REMARK    4  A    between atoms: C_12  and  C_13 
REMARK    5  A    between atoms: C_13  and  C_14 
ROOT
HETATM    1  N   UNL     1      -2.608   5.036 -31.702  1.00  0.00    -0.305 N 
HETATM    2  C   UNL     1      -3.898   4.637 -31.451  1.00  0.00     0.320 C 
HETATM    3  N   UNL     1      -3.916   3.380 -30.879  1.00  0.00    -0.343 N 
HETATM    4  O   UNL     1      -4.917   5.282 -31.650  1.00  0.00    -0.247 OA
HETATM    5  H   UNL     1      -1.898   4.561 -31.163  1.00  0.00     0.171 HD
HETATM    6  H   UNL     1      -3.181   2.757 -31.182  1.00  0.00     0.164 HD
ENDROOT
BRANCH   3   7
HETATM    7  C   UNL     1      -5.185   2.769 -30.522  1.00  0.00     0.129 C 
BRANCH   7   8
HETATM    8  C   UNL     1      -5.040   1.310 -30.076  1.00  0.00     0.058 C 
BRANCH   8   9
HETATM    9  C   UNL     1      -4.925   0.252 -31.153  1.00  0.00    -0.056 A 
HETATM   10  C   UNL     1      -5.993  -0.128 -31.978  1.00  0.00     0.019 A 
HETATM   11  C   UNL     1      -5.834  -1.096 -32.988  1.00  0.00    -0.025 A 
HETATM   12  C   UNL     1      -4.568  -1.688 -33.187  1.00  0.00    -0.026 A 
HETATM   13  C   UNL     1      -6.908  -1.484 -33.806  1.00  0.00     0.012 A 
HETATM   14  C   UNL     1      -3.496  -1.298 -32.375  1.00  0.00     0.013 A 
HETATM   15  C   UNL     1      -4.408  -2.650 -34.199  1.00  0.00     0.012 A 
HETATM   16  C   UNL     1      -3.672  -0.338 -31.375  1.00  0.00     0.008 A 
HETATM   17  C   UNL     1      -5.485  -3.024 -35.003  1.00  0.00     0.001 A 
HETATM   18  C   UNL     1      -6.734  -2.443 -34.807  1.00  0.00     0.001 A 
ENDBRANCH   8   9
ENDBRANCH   7   8
ENDBRANCH   3   7
BRANCH   1  19
HETATM   19  C   UNL     1      -2.225   6.205 -32.342  1.00  0.00     0.095 A 
HETATM   20  C   UNL     1      -2.089   6.302 -33.712  1.00  0.00     0.107 A 
HETATM   21  O   UNL     1      -1.705   7.560 -34.043  1.00  0.00    -0.215 OA
HETATM   22  N   UNL     1      -1.598   8.326 -32.904  1.00  0.00    -0.131 NA
HETATM   23  C   UNL     1      -1.918   7.519 -31.881  1.00  0.00     0.087 A 
HETATM   24  C   UNL     1      -1.945   8.096 -30.516  1.00  0.00     0.075 C 
BRANCH  20  25
HETATM   25  C   UNL     1      -2.256   5.362 -34.846  1.00  0.00     0.065 C 
HETATM   26  C   UNL     1      -3.719   5.177 -35.217  1.00  0.00     0.012 C 
ENDBRANCH  20  25
ENDBRANCH   1  19
TORSDOF 5
ENDMDL
MODEL 3
REMARK VINA RESULT:      -9.1      1.615      2.098
REMARK  5 active torsions:
REMARK  status: ('A' for Active; 'I' for Inactive)
REMARK    1  A    between atoms: C_2  and  C_3 
REMARK    2  A    between atoms: C_8  and  N_9 
REMARK       I    between atoms: N_9  and  C_10 
REMARK       I    between atoms: C_10  and  N_11 
REMARK    3  A    between atoms: N_11  and  C_12 
REMARK    4  A    between atoms: C_12  and  C_13 
REMARK    5  A    between atoms: C_13  and  C_14 
ROOT
HETATM    1  N   UNL     1      -2.642   4.401 -31.861  1.00  0.00    -0.305 N 
HETATM    2  C   UNL     1      -3.930   4.321 -31.392  1.00  0.00     0.320 C 
HETATM    3  N   UNL     1      -4.132   3.129 -30.725  1.00  0.00    -0.343 N 
HETATM    4  O   UNL     1      -4.800   5.174 -31.491  1.00  0.00    -0.247 OA
HETATM    5  H   UNL     1      -1.976   3.801 -31.395  1.00  0.00     0.171 HD
HETATM    6  H   UNL     1      -3.611   2.341 -31.082  1.00  0.00     0.164 HD
ENDROOT
BRANCH   3   7
HETATM    7  C   UNL     1      -5.431   2.843 -30.138  1.00  0.00     0.129 C 
BRANCH   7   8
HETATM    8  C   UNL     1      -5.671   1.345 -29.922  1.00  0.00     0.058 C 
BRANCH   8   9
HETATM    9  C   UNL     1      -5.898   0.484 -31.146  1.00  0.00    -0.056 A 
HETATM   10  C   UNL     1      -4.928  -0.382 -31.671  1.00  0.00     0.019 A 
HETATM   11  C   UNL     1      -5.192  -1.188 -32.796  1.00  0.00    -0.025 A 
HETATM   12  C   UNL     1      -6.467  -1.137 -33.400  1.00  0.00    -0.026 A 
HETATM   13  C   UNL     1      -4.216  -2.046 -33.328  1.00  0.00     0.012 A 
HETATM   14  C   UNL     1      -7.443  -0.285 -32.867  1.00  0.00     0.013 A 
HETATM   15  C   UNL     1      -6.732  -1.945 -34.519  1.00  0.00     0.012 A 
HETATM   16  C   UNL     1      -7.162   0.511 -31.753  1.00  0.00     0.008 A 
HETATM   17  C   UNL     1      -5.751  -2.792 -35.035  1.00  0.00     0.001 A 
HETATM   18  C   UNL     1      -4.494  -2.842 -34.440  1.00  0.00     0.001 A 
ENDBRANCH   8   9
ENDBRANCH   7   8
ENDBRANCH   3   7
BRANCH   1  19
HETATM   19  C   UNL     1      -2.118   5.421 -32.641  1.00  0.00     0.095 A 
HETATM   20  C   UNL     1      -1.104   6.252 -32.211  1.00  0.00     0.107 A 
HETATM   21  O   UNL     1      -0.805   7.147 -33.185  1.00  0.00    -0.215 OA
HETATM   22  N   UNL     1      -1.598   6.916 -34.285  1.00  0.00    -0.131 NA
HETATM   23  C   UNL     1      -2.383   5.875 -33.967  1.00  0.00     0.087 A 
HETATM   24  C   UNL     1      -3.315   5.360 -34.998  1.00  0.00     0.075 C 
BRANCH  20  25
HETATM   25  C   UNL     1      -0.315   6.374 -30.961  1.00  0.00     0.065 C 
HETATM   26  C   UNL     1       0.735   5.281 -30.845  1.00  0.00     0.012 C 
ENDBRANCH  20  25
ENDBRANCH   1  19
TORSDOF 5
ENDMDL
MODEL 4
REMARK VINA RESULT:      -9.0      1.107      2.020
REMARK  5 active torsions:
REMARK  status: ('A' for Active; 'I' for Inactive)
REMARK    1  A    between atoms: C_2  and  C_3 
REMARK    2  A    between atoms: C_8  and  N_9 
REMARK       I    between atoms: N_9  and  C_10 
REMARK       I    between atoms: C_10  and  N_11 
REMARK    3  A    between atoms: N_11  and  C_12 
REMARK    4  A    between atoms: C_12  and  C_13 
REMARK    5  A    between atoms: C_13  and  C_14 
ROOT
HETATM    1  N   UNL     1      -2.917   5.401 -31.466  1.00  0.00    -0.305 N 
HETATM    2  C   UNL     1      -4.154   4.808 -31.540  1.00  0.00     0.320 C 
HETATM    3  N   UNL     1      -4.277   3.819 -30.584  1.00  0.00    -0.343 N 
HETATM    4  O   UNL     1      -5.064   5.103 -32.300  1.00  0.00    -0.247 OA
HETATM    5  H   UNL     1      -2.441   5.295 -30.582  1.00  0.00     0.171 HD
HETATM    6  H   UNL     1      -3.425   3.324 -30.363  1.00  0.00     0.164 HD
ENDROOT
BRANCH   3   7
HETATM    7  C   UNL     1      -5.516   3.067 -30.481  1.00  0.00     0.129 C 
BRANCH   7   8
HETATM    8  C   UNL     1      -5.305   1.636 -29.974  1.00  0.00     0.058 C 
BRANCH   8   9
HETATM    9  C   UNL     1      -5.123   0.543 -31.005  1.00  0.00    -0.056 A 
HETATM   10  C   UNL     1      -6.136   0.139 -31.887  1.00  0.00     0.019 A 
HETATM   11  C   UNL     1      -5.915  -0.863 -32.852  1.00  0.00    -0.025 A 
HETATM   12  C   UNL     1      -4.641  -1.465 -32.946  1.00  0.00    -0.026 A 
HETATM   13  C   UNL     1      -6.933  -1.275 -33.727  1.00  0.00     0.012 A 
HETATM   14  C   UNL     1      -3.623  -1.051 -32.077  1.00  0.00     0.013 A 
HETATM   15  C   UNL     1      -4.418  -2.460 -33.913  1.00  0.00     0.012 A 
HETATM   16  C   UNL     1      -3.862  -0.057 -31.123  1.00  0.00     0.008 A 
HETATM   17  C   UNL     1      -5.441  -2.858 -34.774  1.00  0.00     0.001 A 
HETATM   18  C   UNL     1      -6.698  -2.267 -34.681  1.00  0.00     0.001 A 
ENDBRANCH   8   9
ENDBRANCH   7   8
ENDBRANCH   3   7
BRANCH   1  19
HETATM   19  C   UNL     1      -2.426   6.374 -32.323  1.00  0.00     0.095 A 
HETATM   20  C   UNL     1      -2.051   7.632 -31.897  1.00  0.00     0.107 A 
HETATM   21  O   UNL     1      -1.613   8.360 -32.954  1.00  0.00    -0.215 OA
HETATM   22  N   UNL     1      -1.669   7.594 -34.097  1.00  0.00    -0.131 NA
HETATM   23  C   UNL     1      -2.148   6.398 -33.722  1.00  0.00     0.087 A 
HETATM   24  C   UNL     1      -2.264   5.337 -34.750  1.00  0.00     0.075 C 
BRANCH  20  25
HETATM   25  C   UNL     1      -2.037   8.328 -30.587  1.00  0.00     0.065 C 
HETATM   26  C   UNL     1      -2.547   9.756 -30.701  1.00  0.00     0.012 C 
ENDBRANCH  20  25
ENDBRANCH   1  19
TORSDOF 5
ENDMDL
MODEL 5
REMARK VINA RESULT:      -8.8      5.600      8.204
REMARK  5 active torsions:
REMARK  status: ('A' for Active; 'I' for Inactive)
REMARK    1  A    between atoms: C_2  and  C_3 
REMARK    2  A    between atoms: C_8  and  N_9 
REMARK       I    between atoms: N_9  and  C_10 
REMARK       I    between atoms: C_10  and  N_11 
REMARK    3  A    between atoms: N_11  and  C_12 
REMARK    4  A    between atoms: C_12  and  C_13 
REMARK    5  A    between atoms: C_13  and  C_14 
ROOT
HETATM    1  N   UNL     1     -10.975   3.046 -33.493  1.00  0.00    -0.305 N 
HETATM    2  C   UNL     1      -9.889   2.246 -33.229  1.00  0.00     0.320 C 
HETATM    3  N   UNL     1      -8.830   2.577 -34.051  1.00  0.00    -0.343 N 
HETATM    4  O   UNL     1      -9.809   1.378 -32.373  1.00  0.00    -0.247 OA
HETATM    5  H   UNL     1     -10.764   3.919 -33.955  1.00  0.00     0.171 HD
HETATM    6  H   UNL     1      -9.084   2.898 -34.974  1.00  0.00     0.164 HD
ENDROOT
BRANCH   3   7
HETATM    7  C   UNL     1      -7.574   1.857 -33.932  1.00  0.00     0.129 C 
BRANCH   7   8
HETATM    8  C   UNL     1      -7.484   0.652 -34.876  1.00  0.00     0.058 C 
BRANCH   8   9
HETATM    9  C   UNL     1      -6.541  -0.470 -34.498  1.00  0.00    -0.056 A 
HETATM   10  C   UNL     1      -6.737  -1.804 -34.882  1.00  0.00     0.019 A 
HETATM   11  C   UNL     1      -5.819  -2.813 -34.533  1.00  0.00    -0.025 A 
HETATM   12  C   UNL     1      -4.665  -2.474 -33.794  1.00  0.00    -0.026 A 
HETATM   13  C   UNL     1      -6.022  -4.151 -34.909  1.00  0.00     0.012 A 
HETATM   14  C   UNL     1      -4.458  -1.138 -33.424  1.00  0.00     0.013 A 
HETATM   15  C   UNL     1      -3.745  -3.479 -33.452  1.00  0.00     0.012 A 
HETATM   16  C   UNL     1      -5.383  -0.151 -33.776  1.00  0.00     0.008 A 
HETATM   17  C   UNL     1      -3.963  -4.804 -33.832  1.00  0.00     0.001 A 
HETATM   18  C   UNL     1      -5.100  -5.140 -34.559  1.00  0.00     0.001 A 
ENDBRANCH   8   9
ENDBRANCH   7   8
ENDBRANCH   3   7
BRANCH   1  19
HETATM   19  C   UNL     1     -12.229   2.938 -32.912  1.00  0.00     0.095 A 
HETATM   20  C   UNL     1     -13.155   1.989 -33.295  1.00  0.00     0.107 A 
HETATM   21  O   UNL     1     -14.282   2.127 -32.553  1.00  0.00    -0.215 OA
HETATM   22  N   UNL     1     -14.119   3.154 -31.651  1.00  0.00    -0.131 NA
HETATM   23  C   UNL     1     -12.884   3.639 -31.857  1.00  0.00     0.087 A 
HETATM   24  C   UNL     1     -12.406   4.731 -30.978  1.00  0.00     0.075 C 
BRANCH  20  25
HETATM   25  C   UNL     1     -13.181   0.906 -34.308  1.00  0.00     0.065 C 
HETATM   26  C   UNL     1     -13.576  -0.429 -33.698  1.00  0.00     0.012 C 
ENDBRANCH  20  25
ENDBRANCH   1  19
TORSDOF 5
ENDMDL
MODEL 6
REMARK VINA RESULT:      -8.7      5.718      7.806
REMARK  5 active torsions:
REMARK  status: ('A' for Active; 'I' for Inactive)
REMARK    1  A    between atoms: C_2  and  C_3 
REMARK    2  A    between atoms: C_8  and  N_9 
REMARK       I    between atoms: N_9  and  C_10 
REMARK       I    between atoms: C_10  and  N_11 
REMARK    3  A    between atoms: N_11  and  C_12 
REMARK    4  A    between atoms: C_12  and  C_13 
REMARK    5  A    between atoms: C_13  and  C_14 
ROOT
HETATM    1  N   UNL     1     -11.017   2.016 -32.795  1.00  0.00    -0.305 N 
HETATM    2  C   UNL     1      -9.908   1.207 -32.725  1.00  0.00     0.320 C 
HETATM    3  N   UNL     1      -9.034   1.662 -31.758  1.00  0.00    -0.343 N 
HETATM    4  O   UNL     1      -9.697   0.196 -33.378  1.00  0.00    -0.247 OA
HETATM    5  H   UNL     1     -11.197   2.570 -31.970  1.00  0.00     0.171 HD
HETATM    6  H   UNL     1      -9.011   2.664 -31.633  1.00  0.00     0.164 HD
ENDROOT
BRANCH   3   7
HETATM    7  C   UNL     1      -7.795   0.944 -31.513  1.00  0.00     0.129 C 
BRANCH   7   8
HETATM    8  C   UNL     1      -6.850   0.954 -32.719  1.00  0.00     0.058 C 
BRANCH   8   9
HETATM    9  C   UNL     1      -6.171  -0.347 -33.092  1.00  0.00    -0.056 A 
HETATM   10  C   UNL     1      -6.809  -1.372 -33.805  1.00  0.00     0.019 A 
HETATM   11  C   UNL     1      -6.131  -2.556 -34.158  1.00  0.00    -0.025 A 
HETATM   12  C   UNL     1      -4.773  -2.708 -33.801  1.00  0.00    -0.026 A 
HETATM   13  C   UNL     1      -6.774  -3.587 -34.862  1.00  0.00     0.012 A 
HETATM   14  C   UNL     1      -4.130  -1.678 -33.103  1.00  0.00     0.013 A 
HETATM   15  C   UNL     1      -4.095  -3.886 -34.158  1.00  0.00     0.012 A 
HETATM   16  C   UNL     1      -4.819  -0.512 -32.758  1.00  0.00     0.008 A 
HETATM   17  C   UNL     1      -4.749  -4.901 -34.857  1.00  0.00     0.001 A 
HETATM   18  C   UNL     1      -6.087  -4.752 -35.208  1.00  0.00     0.001 A 
ENDBRANCH   8   9
ENDBRANCH   7   8
ENDBRANCH   3   7
BRANCH   1  19
HETATM   19  C   UNL     1     -12.056   1.901 -33.706  1.00  0.00     0.095 A 
HETATM   20  C   UNL     1     -12.399   2.908 -34.584  1.00  0.00     0.107 A 
HETATM   21  O   UNL     1     -13.447   2.509 -35.347  1.00  0.00    -0.215 OA
HETATM   22  N   UNL     1     -13.806   1.225 -35.004  1.00  0.00    -0.131 NA
HETATM   23  C   UNL     1     -12.967   0.852 -34.025  1.00  0.00     0.087 A 
HETATM   24  C   UNL     1     -13.083  -0.525 -33.491  1.00  0.00     0.075 C 
BRANCH  20  25
HETATM   25  C   UNL     1     -11.895   4.277 -34.852  1.00  0.00     0.065 C 
HETATM   26  C   UNL     1     -10.464   4.262 -35.366  1.00  0.00     0.012 C 
ENDBRANCH  20  25
ENDBRANCH   1  19
TORSDOF 5
ENDMDL
MODEL 7
REMARK VINA RESULT:      -8.6      2.052      3.440
REMARK  5 active torsions:
REMARK  status: ('A' for Active; 'I' for Inactive)
REMARK    1  A    between atoms: C_2  and  C_3 
REMARK    2  A    between atoms: C_8  and  N_9 
REMARK       I    between atoms: N_9  and  C_10 
REMARK       I    between atoms: C_10  and  N_11 
REMARK    3  A    between atoms: N_11  and  C_12 
REMARK    4  A    between atoms: C_12  and  C_13 
REMARK    5  A    between atoms: C_13  and  C_14 
ROOT
HETATM    1  N   UNL     1      -5.350   4.439 -33.075  1.00  0.00    -0.305 N 
HETATM    2  C   UNL     1      -5.979   3.249 -32.803  1.00  0.00     0.320 C 
HETATM    3  N   UNL     1      -6.945   2.981 -33.752  1.00  0.00    -0.343 N 
HETATM    4  O   UNL     1      -5.730   2.481 -31.885  1.00  0.00    -0.247 OA
HETATM    5  H   UNL     1      -5.419   4.754 -34.032  1.00  0.00     0.171 HD
HETATM    6  H   UNL     1      -7.410   3.791 -34.135  1.00  0.00     0.164 HD
ENDROOT
BRANCH   3   7
HETATM    7  C   UNL     1      -7.728   1.761 -33.659  1.00  0.00     0.129 C 
BRANCH   7   8
HETATM    8  C   UNL     1      -7.447   0.781 -34.803  1.00  0.00     0.058 C 
BRANCH   8   9
HETATM    9  C   UNL     1      -6.566  -0.413 -34.507  1.00  0.00    -0.056 A 
HETATM   10  C   UNL     1      -6.876  -1.720 -34.911  1.00  0.00     0.019 A 
HETATM   11  C   UNL     1      -6.012  -2.799 -34.641  1.00  0.00    -0.025 A 
HETATM   12  C   UNL     1      -4.797  -2.560 -33.961  1.00  0.00    -0.026 A 
HETATM   13  C   UNL     1      -6.329  -4.108 -35.035  1.00  0.00     0.012 A 
HETATM   14  C   UNL     1      -4.478  -1.253 -33.572  1.00  0.00     0.013 A 
HETATM   15  C   UNL     1      -3.933  -3.635 -33.696  1.00  0.00     0.012 A 
HETATM   16  C   UNL     1      -5.349  -0.194 -33.846  1.00  0.00     0.008 A 
HETATM   17  C   UNL     1      -4.263  -4.930 -34.095  1.00  0.00     0.001 A 
HETATM   18  C   UNL     1      -5.461  -5.167 -34.764  1.00  0.00     0.001 A 
ENDBRANCH   8   9
ENDBRANCH   7   8
ENDBRANCH   3   7
BRANCH   1  19
HETATM   19  C   UNL     1      -4.387   5.053 -32.287  1.00  0.00     0.095 A 
HETATM   20  C   UNL     1      -3.042   5.034 -32.595  1.00  0.00     0.107 A 
HETATM   21  O   UNL     1      -2.349   5.713 -31.647  1.00  0.00    -0.215 OA
HETATM   22  N   UNL     1      -3.220   6.210 -30.705  1.00  0.00    -0.131 NA
HETATM   23  C   UNL     1      -4.446   5.824 -31.090  1.00  0.00     0.087 A 
HETATM   24  C   UNL     1      -5.607   6.271 -30.284  1.00  0.00     0.075 C 
BRANCH  20  25
HETATM   25  C   UNL     1      -2.229   4.447 -33.688  1.00  0.00     0.065 C 
HETATM   26  C   UNL     1      -1.576   5.519 -34.545  1.00  0.00     0.012 C 
ENDBRANCH  20  25
ENDBRANCH   1  19
TORSDOF 5
ENDMDL
MODEL 8
REMARK VINA RESULT:      -8.4      2.110      3.589
REMARK  5 active torsions:
REMARK  status: ('A' for Active; 'I' for Inactive)
REMARK    1  A    between atoms: C_2  and  C_3 
REMARK    2  A    between atoms: C_8  and  N_9 
REMARK       I    between atoms: N_9  and  C_10 
REMARK       I    between atoms: C_10  and  N_11 
REMARK    3  A    between atoms: N_11  and  C_12 
REMARK    4  A    between atoms: C_12  and  C_13 
REMARK    5  A    between atoms: C_13  and  C_14 
ROOT
HETATM    1  N   UNL     1      -3.084   5.132 -31.824  1.00  0.00    -0.305 N 
HETATM    2  C   UNL     1      -4.162   5.210 -30.976  1.00  0.00     0.320 C 
HETATM    3  N   UNL     1      -4.436   3.975 -30.423  1.00  0.00    -0.343 N 
HETATM    4  O   UNL     1      -4.796   6.214 -30.688  1.00  0.00    -0.247 OA
HETATM    5  H   UNL     1      -2.473   4.342 -31.672  1.00  0.00     0.171 HD
HETATM    6  H   UNL     1      -4.242   3.183 -31.019  1.00  0.00     0.164 HD
ENDROOT
BRANCH   3   7
HETATM    7  C   UNL     1      -5.537   3.834 -29.485  1.00  0.00     0.129 C 
BRANCH   7   8
HETATM    8  C   UNL     1      -6.836   3.371 -30.155  1.00  0.00     0.058 C 
BRANCH   8   9
HETATM    9  C   UNL     1      -6.770   2.154 -31.053  1.00  0.00    -0.056 A 
HETATM   10  C   UNL     1      -7.018   2.200 -32.433  1.00  0.00     0.019 A 
HETATM   11  C   UNL     1      -6.917   1.049 -33.237  1.00  0.00    -0.025 A 
HETATM   12  C   UNL     1      -6.540  -0.177 -32.647  1.00  0.00    -0.026 A 
HETATM   13  C   UNL     1      -7.177   1.094 -34.617  1.00  0.00     0.012 A 
HETATM   14  C   UNL     1      -6.276  -0.222 -31.273  1.00  0.00     0.013 A 
HETATM   15  C   UNL     1      -6.433  -1.325 -33.451  1.00  0.00     0.012 A 
HETATM   16  C   UNL     1      -6.385   0.930 -30.489  1.00  0.00     0.008 A 
HETATM   17  C   UNL     1      -6.696  -1.263 -34.820  1.00  0.00     0.001 A 
HETATM   18  C   UNL     1      -7.068  -0.055 -35.402  1.00  0.00     0.001 A 
ENDBRANCH   8   9
ENDBRANCH   7   8
ENDBRANCH   3   7
BRANCH   1  19
HETATM   19  C   UNL     1      -2.585   6.162 -32.607  1.00  0.00     0.095 A 
HETATM   20  C   UNL     1      -2.715   6.192 -33.981  1.00  0.00     0.107 A 
HETATM   21  O   UNL     1      -2.132   7.315 -34.469  1.00  0.00    -0.215 OA
HETATM   22  N   UNL     1      -1.622   8.060 -33.430  1.00  0.00    -0.131 NA
HETATM   23  C   UNL     1      -1.900   7.376 -32.309  1.00  0.00     0.087 A 
HETATM   24  C   UNL     1      -1.514   7.976 -31.010  1.00  0.00     0.075 C 
BRANCH  20  25
HETATM   25  C   UNL     1      -3.321   5.292 -34.992  1.00  0.00     0.065 C 
HETATM   26  C   UNL     1      -4.741   4.895 -34.618  1.00  0.00     0.012 C 
ENDBRANCH  20  25
ENDBRANCH   1  19
TORSDOF 5
ENDMDL
MODEL 9
REMARK VINA RESULT:      -8.1      3.994      8.321
REMARK  5 active torsions:
REMARK  status: ('A' for Active; 'I' for Inactive)
REMARK    1  A    between atoms: C_2  and  C_3 
REMARK    2  A    between atoms: C_8  and  N_9 
REMARK       I    between atoms: N_9  and  C_10 
REMARK       I    between atoms: C_10  and  N_11 
REMARK    3  A    between atoms: N_11  and  C_12 
REMARK    4  A    between atoms: C_12  and  C_13 
REMARK    5  A    between atoms: C_13  and  C_14 
ROOT
HETATM    1  N   UNL     1      -6.380  -0.895 -34.638  1.00  0.00    -0.305 N 
HETATM    2  C   UNL     1      -7.062  -0.143 -33.713  1.00  0.00     0.320 C 
HETATM    3  N   UNL     1      -7.733   0.895 -34.330  1.00  0.00    -0.343 N 
HETATM    4  O   UNL     1      -7.130  -0.345 -32.510  1.00  0.00    -0.247 OA
HETATM    5  H   UNL     1      -6.712  -0.815 -35.588  1.00  0.00     0.171 HD
HETATM    6  H   UNL     1      -7.277   1.280 -35.145  1.00  0.00     0.164 HD
ENDROOT
BRANCH   3   7
HETATM    7  C   UNL     1      -8.529   1.813 -33.533  1.00  0.00     0.129 C 
BRANCH   7   8
HETATM    8  C   UNL     1      -8.031   3.260 -33.613  1.00  0.00     0.058 C 
BRANCH   8   9
HETATM    9  C   UNL     1      -6.550   3.508 -33.416  1.00  0.00    -0.056 A 
HETATM   10  C   UNL     1      -5.772   4.271 -34.299  1.00  0.00     0.019 A 
HETATM   11  C   UNL     1      -4.403   4.501 -34.063  1.00  0.00    -0.025 A 
HETATM   12  C   UNL     1      -3.801   3.965 -32.903  1.00  0.00    -0.026 A 
HETATM   13  C   UNL     1      -3.622   5.255 -34.953  1.00  0.00     0.012 A 
HETATM   14  C   UNL     1      -4.580   3.217 -32.012  1.00  0.00     0.013 A 
HETATM   15  C   UNL     1      -2.436   4.200 -32.664  1.00  0.00     0.012 A 
HETATM   16  C   UNL     1      -5.937   2.996 -32.264  1.00  0.00     0.008 A 
HETATM   17  C   UNL     1      -1.675   4.951 -33.560  1.00  0.00     0.001 A 
HETATM   18  C   UNL     1      -2.267   5.478 -34.703  1.00  0.00     0.001 A 
ENDBRANCH   8   9
ENDBRANCH   7   8
ENDBRANCH   3   7
BRANCH   1  19
HETATM   19  C   UNL     1      -5.539  -1.963 -34.362  1.00  0.00     0.095 A 
HETATM   20  C   UNL     1      -4.348  -1.824 -33.680  1.00  0.00     0.107 A 
HETATM   21  O   UNL     1      -3.747  -3.035 -33.562  1.00  0.00    -0.215 OA
HETATM   22  N   UNL     1      -4.537  -4.001 -34.143  1.00  0.00    -0.131 NA
HETATM   23  C   UNL     1      -5.618  -3.363 -34.617  1.00  0.00     0.087 A 
HETATM   24  C   UNL     1      -6.684  -4.172 -35.254  1.00  0.00     0.075 C 
BRANCH  20  25
HETATM   25  C   UNL     1      -3.612  -0.681 -33.086  1.00  0.00     0.065 C 
HETATM   26  C   UNL     1      -2.769  -1.109 -31.895  1.00  0.00     0.012 C 
ENDBRANCH  20  25
ENDBRANCH   1  19
TORSDOF 5
ENDMDL
MODEL 10
REMARK VINA RESULT:      -8.1      3.608      8.516
REMARK  5 active torsions:
REMARK  status: ('A' for Active; 'I' for Inactive)
REMARK    1  A    between atoms: C_2  and  C_3 
REMARK    2  A    between atoms: C_8  and  N_9 
REMARK       I    between atoms: N_9  and  C_10 
REMARK       I    between atoms: C_10  and  N_11 
REMARK    3  A    between atoms: N_11  and  C_12 
REMARK    4  A    between atoms: C_12  and  C_13 
REMARK    5  A    between atoms: C_13  and  C_14 
ROOT
HETATM    1  N   UNL     1      -6.150  -0.064 -34.325  1.00  0.00    -0.305 N 
HETATM    2  C   UNL     1      -6.838   0.785 -33.493  1.00  0.00     0.320 C 
HETATM    3  N   UNL     1      -7.485   1.763 -34.222  1.00  0.00    -0.343 N 
HETATM    4  O   UNL     1      -6.929   0.705 -32.276  1.00  0.00    -0.247 OA
HETATM    5  H   UNL     1      -6.465  -0.076 -35.284  1.00  0.00     0.171 HD
HETATM    6  H   UNL     1      -7.011   2.058 -35.063  1.00  0.00     0.164 HD
ENDROOT
BRANCH   3   7
HETATM    7  C   UNL     1      -8.283   2.764 -33.535  1.00  0.00     0.129 C 
BRANCH   7   8
HETATM    8  C   UNL     1      -7.674   4.168 -33.610  1.00  0.00     0.058 C 
BRANCH   8   9
HETATM    9  C   UNL     1      -6.193   4.309 -33.326  1.00  0.00    -0.056 A 
HETATM   10  C   UNL     1      -5.262   4.740 -34.283  1.00  0.00     0.019 A 
HETATM   11  C   UNL     1      -3.897   4.885 -33.968  1.00  0.00    -0.025 A 
HETATM   12  C   UNL     1      -3.456   4.608 -32.656  1.00  0.00    -0.026 A 
HETATM   13  C   UNL     1      -2.964   5.305 -34.930  1.00  0.00     0.012 A 
HETATM   14  C   UNL     1      -4.387   4.195 -31.694  1.00  0.00     0.013 A 
HETATM   15  C   UNL     1      -2.095   4.760 -32.340  1.00  0.00     0.012 A 
HETATM   16  C   UNL     1      -5.738   4.052 -32.026  1.00  0.00     0.008 A 
HETATM   17  C   UNL     1      -1.181   5.177 -33.308  1.00  0.00     0.001 A 
HETATM   18  C   UNL     1      -1.615   5.449 -34.601  1.00  0.00     0.001 A 
ENDBRANCH   8   9
ENDBRANCH   7   8
ENDBRANCH   3   7
BRANCH   1  19
HETATM   19  C   UNL     1      -5.327  -1.108 -33.928  1.00  0.00     0.095 A 
HETATM   20  C   UNL     1      -5.608  -2.430 -34.202  1.00  0.00     0.107 A 
HETATM   21  O   UNL     1      -4.628  -3.218 -33.692  1.00  0.00    -0.215 OA
HETATM   22  N   UNL     1      -3.671  -2.434 -33.089  1.00  0.00    -0.131 NA
HETATM   23  C   UNL     1      -4.082  -1.165 -33.236  1.00  0.00     0.087 A 
HETATM   24  C   UNL     1      -3.207  -0.083 -32.727  1.00  0.00     0.075 C 
BRANCH  20  25
HETATM   25  C   UNL     1      -6.709  -3.142 -34.896  1.00  0.00     0.065 C 
HETATM   26  C   UNL     1      -6.348  -4.588 -35.195  1.00  0.00     0.012 C 
ENDBRANCH  20  25
ENDBRANCH   1  19
TORSDOF 5
ENDMDL
