MODEL 1
REMARK VINA RESULT:      -8.7      0.000      0.000
REMARK  3 active torsions:
REMARK  status: ('A' for Active; 'I' for Inactive)
REMARK    1  A    between atoms: C_3  and  N_4 
REMARK       I    between atoms: N_4  and  C_5 
REMARK    2  A    between atoms: C_5  and  C_6 
REMARK    3  A    between atoms: C_7  and  C_8 
ROOT
HETATM    1  C   UNL     1      -8.050   1.370 -31.734  1.00  0.00     0.062 C 
HETATM    2  C   UNL     1      -7.354   2.630 -31.204  1.00  0.00     0.199 C 
HETATM    3  N   UNL     1      -8.343   3.593 -30.730  1.00  0.00    -0.092 N 
HETATM    4  C   UNL     1      -9.677   3.536 -31.015  1.00  0.00     0.735 A 
HETATM    5  N   UNL     1     -10.144   2.501 -31.744  1.00  0.00    -0.191 N 
HETATM    6  N   UNL     1      -8.082   4.634 -29.925  1.00  0.00     0.012 NA
HETATM    7  N   UNL     1      -9.258   5.238 -29.775  1.00  0.00     0.033 NA
HETATM    8  N   UNL     1     -10.260   4.563 -30.449  1.00  0.00     0.030 NA
HETATM    9  C   UNL     1      -9.374   1.380 -32.042  1.00  0.00     0.037 C 
HETATM   10  C   UNL     1     -10.109   0.255 -32.730  1.00  0.00     0.070 C 
HETATM   11  H   UNL     1     -11.146   2.446 -31.921  1.00  0.00     0.184 HD
ENDROOT
BRANCH   1  12
HETATM   12  C   UNL     1      -7.153   0.181 -31.856  1.00  0.00     0.256 C 
HETATM   13  N   UNL     1      -7.063  -0.312 -33.139  1.00  0.00    -0.323 N 
HETATM   14  H   UNL     1      -7.779  -0.000 -33.781  1.00  0.00     0.169 HD
HETATM   15  O   UNL     1      -6.716  -0.346 -30.845  1.00  0.00    -0.267 OA
BRANCH  13  16
HETATM   16  C   UNL     1      -6.222  -1.336 -33.636  1.00  0.00     0.041 A 
HETATM   17  C   UNL     1      -4.816  -1.367 -33.585  1.00  0.00    -0.035 A 
HETATM   18  C   UNL     1      -3.944  -0.268 -33.042  1.00  0.00     0.050 C 
HETATM   19  C   UNL     1      -4.142  -2.488 -34.115  1.00  0.00     0.009 A 
HETATM   20  C   UNL     1      -4.831  -3.528 -34.735  1.00  0.00     0.001 A 
HETATM   21  C   UNL     1      -6.211  -3.469 -34.838  1.00  0.00     0.002 A 
HETATM   22  C   UNL     1      -6.898  -2.381 -34.297  1.00  0.00     0.030 A 
ENDBRANCH  13  16
ENDBRANCH   1  12
BRANCH   2  23
HETATM   23  C   UNL     1      -6.456   3.304 -32.229  1.00  0.00    -0.011 A 
HETATM   24  C   UNL     1      -6.972   4.013 -33.314  1.00  0.00     0.125 A 
HETATM   25  N   UNL     1      -6.219   4.624 -34.256  1.00  0.00    -0.272 NA
HETATM   26  C   UNL     1      -4.880   4.530 -34.116  1.00  0.00     0.116 A 
HETATM   27  C   UNL     1      -4.262   3.858 -33.076  1.00  0.00     0.020 A 
HETATM   28  C   UNL     1      -5.062   3.238 -32.121  1.00  0.00     0.012 A 
ENDBRANCH   2  23
TORSDOF 3
ENDMDL
MODEL 2
REMARK VINA RESULT:      -8.6      1.860      4.086
REMARK  3 active torsions:
REMARK  status: ('A' for Active; 'I' for Inactive)
REMARK    1  A    between atoms: C_3  and  N_4 
REMARK       I    between atoms: N_4  and  C_5 
REMARK    2  A    between atoms: C_5  and  C_6 
REMARK    3  A    between atoms: C_7  and  C_8 
ROOT
HETATM    1  C   UNL     1      -5.093   1.222 -32.601  1.00  0.00     0.062 C 
HETATM    2  C   UNL     1      -6.042   2.185 -33.328  1.00  0.00     0.199 C 
HETATM    3  N   UNL     1      -5.379   3.463 -33.568  1.00  0.00    -0.092 N 
HETATM    4  C   UNL     1      -4.226   3.863 -32.956  1.00  0.00     0.735 A 
HETATM    5  N   UNL     1      -3.613   3.017 -32.102  1.00  0.00    -0.191 N 
HETATM    6  N   UNL     1      -5.789   4.392 -34.445  1.00  0.00     0.012 NA
HETATM    7  N   UNL     1      -4.908   5.380 -34.314  1.00  0.00     0.033 NA
HETATM    8  N   UNL     1      -3.929   5.063 -33.390  1.00  0.00     0.030 NA
HETATM    9  C   UNL     1      -3.980   1.680 -31.972  1.00  0.00     0.037 C 
HETATM   10  C   UNL     1      -3.083   0.848 -31.088  1.00  0.00     0.070 C 
HETATM   11  H   UNL     1      -2.734   3.309 -31.678  1.00  0.00     0.184 HD
ENDROOT
BRANCH   1  12
HETATM   12  C   UNL     1      -5.506  -0.212 -32.671  1.00  0.00     0.256 C 
HETATM   13  N   UNL     1      -4.927  -0.904 -33.711  1.00  0.00    -0.323 N 
HETATM   14  H   UNL     1      -4.511  -0.337 -34.438  1.00  0.00     0.169 HD
HETATM   15  O   UNL     1      -6.404  -0.613 -31.945  1.00  0.00    -0.267 OA
BRANCH  13  16
HETATM   16  C   UNL     1      -4.994  -2.288 -34.000  1.00  0.00     0.041 A 
HETATM   17  C   UNL     1      -4.225  -3.307 -33.408  1.00  0.00    -0.035 A 
HETATM   18  C   UNL     1      -3.134  -3.092 -32.395  1.00  0.00     0.050 C 
HETATM   19  C   UNL     1      -4.446  -4.643 -33.809  1.00  0.00     0.009 A 
HETATM   20  C   UNL     1      -5.359  -4.963 -34.810  1.00  0.00     0.001 A 
HETATM   21  C   UNL     1      -6.073  -3.953 -35.434  1.00  0.00     0.002 A 
HETATM   22  C   UNL     1      -5.888  -2.629 -35.034  1.00  0.00     0.030 A 
ENDBRANCH  13  16
ENDBRANCH   1  12
BRANCH   2  23
HETATM   23  C   UNL     1      -7.343   2.432 -32.582  1.00  0.00    -0.011 A 
HETATM   24  C   UNL     1      -8.587   2.164 -33.153  1.00  0.00     0.125 A 
HETATM   25  N   UNL     1      -9.772   2.372 -32.536  1.00  0.00    -0.272 NA
HETATM   26  C   UNL     1      -9.724   2.872 -31.284  1.00  0.00     0.116 A 
HETATM   27  C   UNL     1      -8.547   3.169 -30.620  1.00  0.00     0.020 A 
HETATM   28  C   UNL     1      -7.342   2.945 -31.279  1.00  0.00     0.012 A 
ENDBRANCH   2  23
TORSDOF 3
ENDMDL
MODEL 3
REMARK VINA RESULT:      -8.6      1.394      1.842
REMARK  3 active torsions:
REMARK  status: ('A' for Active; 'I' for Inactive)
REMARK    1  A    between atoms: C_3  and  N_4 
REMARK       I    between atoms: N_4  and  C_5 
REMARK    2  A    between atoms: C_5  and  C_6 
REMARK    3  A    between atoms: C_7  and  C_8 
ROOT
HETATM    1  C   UNL     1      -7.142   1.863 -31.097  1.00  0.00     0.062 C 
HETATM    2  C   UNL     1      -6.061   2.729 -30.439  1.00  0.00     0.199 C 
HETATM    3  N   UNL     1      -6.664   3.898 -29.807  1.00  0.00    -0.092 N 
HETATM    4  C   UNL     1      -7.936   4.335 -30.044  1.00  0.00     0.735 A 
HETATM    5  N   UNL     1      -8.724   3.627 -30.879  1.00  0.00    -0.191 N 
HETATM    6  N   UNL     1      -6.069   4.672 -28.887  1.00  0.00     0.012 NA
HETATM    7  N   UNL     1      -6.969   5.612 -28.614  1.00  0.00     0.033 NA
HETATM    8  N   UNL     1      -8.137   5.414 -29.328  1.00  0.00     0.030 NA
HETATM    9  C   UNL     1      -8.381   2.362 -31.349  1.00  0.00     0.037 C 
HETATM   10  C   UNL     1      -9.452   1.656 -32.144  1.00  0.00     0.070 C 
HETATM   11  H   UNL     1      -9.683   3.940 -31.022  1.00  0.00     0.184 HD
ENDROOT
BRANCH   1  12
HETATM   12  C   UNL     1      -6.705   0.468 -31.406  1.00  0.00     0.256 C 
HETATM   13  N   UNL     1      -6.579   0.214 -32.753  1.00  0.00    -0.323 N 
HETATM   14  H   UNL     1      -7.025   0.881 -33.370  1.00  0.00     0.169 HD
HETATM   15  O   UNL     1      -6.651  -0.357 -30.506  1.00  0.00    -0.267 OA
BRANCH  13  16
HETATM   16  C   UNL     1      -6.074  -0.942 -33.393  1.00  0.00     0.041 A 
HETATM   17  C   UNL     1      -4.721  -1.315 -33.510  1.00  0.00    -0.035 A 
HETATM   18  C   UNL     1      -3.554  -0.501 -33.023  1.00  0.00     0.050 C 
HETATM   19  C   UNL     1      -4.405  -2.523 -34.167  1.00  0.00     0.009 A 
HETATM   20  C   UNL     1      -5.390  -3.318 -34.749  1.00  0.00     0.001 A 
HETATM   21  C   UNL     1      -6.715  -2.920 -34.686  1.00  0.00     0.002 A 
HETATM   22  C   UNL     1      -7.051  -1.742 -34.018  1.00  0.00     0.030 A 
ENDBRANCH  13  16
ENDBRANCH   1  12
BRANCH   2  23
HETATM   23  C   UNL     1      -4.981   3.189 -31.404  1.00  0.00    -0.011 A 
HETATM   24  C   UNL     1      -3.635   2.875 -31.214  1.00  0.00     0.125 A 
HETATM   25  N   UNL     1      -2.635   3.264 -32.038  1.00  0.00    -0.272 NA
HETATM   26  C   UNL     1      -2.987   4.003 -33.111  1.00  0.00     0.116 A 
HETATM   27  C   UNL     1      -4.291   4.365 -33.399  1.00  0.00     0.020 A 
HETATM   28  C   UNL     1      -5.299   3.951 -32.534  1.00  0.00     0.012 A 
ENDBRANCH   2  23
TORSDOF 3
ENDMDL
MODEL 4
REMARK VINA RESULT:      -8.3      1.836      3.116
REMARK  3 active torsions:
REMARK  status: ('A' for Active; 'I' for Inactive)
REMARK    1  A    between atoms: C_3  and  N_4 
REMARK       I    between atoms: N_4  and  C_5 
REMARK    2  A    between atoms: C_5  and  C_6 
REMARK    3  A    between atoms: C_7  and  C_8 
ROOT
HETATM    1  C   UNL     1      -6.653   1.888 -31.585  1.00  0.00     0.062 C 
HETATM    2  C   UNL     1      -7.536   2.939 -32.272  1.00  0.00     0.199 C 
HETATM    3  N   UNL     1      -7.902   3.988 -31.326  1.00  0.00    -0.092 N 
HETATM    4  C   UNL     1      -7.769   3.888 -29.970  1.00  0.00     0.735 A 
HETATM    5  N   UNL     1      -7.219   2.772 -29.449  1.00  0.00    -0.191 N 
HETATM    6  N   UNL     1      -8.379   5.196 -31.660  1.00  0.00     0.012 NA
HETATM    7  N   UNL     1      -8.588   5.803 -30.494  1.00  0.00     0.033 NA
HETATM    8  N   UNL     1      -8.211   4.999 -29.434  1.00  0.00     0.030 NA
HETATM    9  C   UNL     1      -6.590   1.806 -30.230  1.00  0.00     0.037 C 
HETATM   10  C   UNL     1      -5.896   0.706 -29.464  1.00  0.00     0.070 C 
HETATM   11  H   UNL     1      -7.089   2.721 -28.440  1.00  0.00     0.184 HD
ENDROOT
BRANCH   1  12
HETATM   12  C   UNL     1      -5.896   1.013 -32.531  1.00  0.00     0.256 C 
HETATM   13  N   UNL     1      -6.239  -0.317 -32.447  1.00  0.00    -0.323 N 
HETATM   14  H   UNL     1      -6.749  -0.588 -31.616  1.00  0.00     0.169 HD
HETATM   15  O   UNL     1      -4.960   1.482 -33.162  1.00  0.00    -0.267 OA
BRANCH  13  16
HETATM   16  C   UNL     1      -5.820  -1.393 -33.265  1.00  0.00     0.041 A 
HETATM   17  C   UNL     1      -4.550  -1.999 -33.270  1.00  0.00    -0.035 A 
HETATM   18  C   UNL     1      -3.377  -1.558 -32.438  1.00  0.00     0.050 C 
HETATM   19  C   UNL     1      -4.319  -3.083 -34.144  1.00  0.00     0.009 A 
HETATM   20  C   UNL     1      -5.294  -3.523 -35.036  1.00  0.00     0.001 A 
HETATM   21  C   UNL     1      -6.524  -2.887 -35.072  1.00  0.00     0.002 A 
HETATM   22  C   UNL     1      -6.781  -1.830 -34.197  1.00  0.00     0.030 A 
ENDBRANCH  13  16
ENDBRANCH   1  12
BRANCH   2  23
HETATM   23  C   UNL     1      -8.800   2.361 -32.886  1.00  0.00    -0.011 A 
HETATM   24  C   UNL     1      -9.411   2.935 -34.002  1.00  0.00     0.125 A 
HETATM   25  N   UNL     1     -10.538   2.465 -34.583  1.00  0.00    -0.272 NA
HETATM   26  C   UNL     1     -11.091   1.365 -34.030  1.00  0.00     0.116 A 
HETATM   27  C   UNL     1     -10.567   0.712 -32.929  1.00  0.00     0.020 A 
HETATM   28  C   UNL     1      -9.406   1.218 -32.351  1.00  0.00     0.012 A 
ENDBRANCH   2  23
TORSDOF 3
ENDMDL
MODEL 5
REMARK VINA RESULT:      -8.2     16.032     17.343
REMARK  3 active torsions:
REMARK  status: ('A' for Active; 'I' for Inactive)
REMARK    1  A    between atoms: C_3  and  N_4 
REMARK       I    between atoms: N_4  and  C_5 
REMARK    2  A    between atoms: C_5  and  C_6 
REMARK    3  A    between atoms: C_7  and  C_8 
ROOT
HETATM    1  C   UNL     1      -5.888 -13.283 -38.418  1.00  0.00     0.062 C 
HETATM    2  C   UNL     1      -6.502 -12.870 -39.762  1.00  0.00     0.199 C 
HETATM    3  N   UNL     1      -7.951 -12.739 -39.637  1.00  0.00    -0.092 N 
HETATM    4  C   UNL     1      -8.684 -13.227 -38.593  1.00  0.00     0.735 A 
HETATM    5  N   UNL     1      -8.043 -13.834 -37.573  1.00  0.00    -0.191 N 
HETATM    6  N   UNL     1      -8.745 -12.094 -40.504  1.00  0.00     0.012 NA
HETATM    7  N   UNL     1      -9.969 -12.246 -40.006  1.00  0.00     0.033 NA
HETATM    8  N   UNL     1      -9.945 -12.950 -38.816  1.00  0.00     0.030 NA
HETATM    9  C   UNL     1      -6.658 -13.803 -37.427  1.00  0.00     0.037 C 
HETATM   10  C   UNL     1      -6.131 -14.399 -36.145  1.00  0.00     0.070 C 
HETATM   11  H   UNL     1      -8.594 -14.162 -36.781  1.00  0.00     0.184 HD
ENDROOT
BRANCH   1  12
HETATM   12  C   UNL     1      -4.415 -13.049 -38.321  1.00  0.00     0.256 C 
HETATM   13  N   UNL     1      -3.658 -14.139 -38.687  1.00  0.00    -0.323 N 
HETATM   14  H   UNL     1      -4.149 -15.022 -38.727  1.00  0.00     0.169 HD
HETATM   15  O   UNL     1      -4.004 -12.024 -37.797  1.00  0.00    -0.267 OA
BRANCH  13  16
HETATM   16  C   UNL     1      -2.253 -14.232 -38.833  1.00  0.00     0.041 A 
HETATM   17  C   UNL     1      -1.307 -14.343 -37.797  1.00  0.00    -0.035 A 
HETATM   18  C   UNL     1      -1.624 -14.316 -36.327  1.00  0.00     0.050 C 
HETATM   19  C   UNL     1       0.060 -14.449 -38.135  1.00  0.00     0.009 A 
HETATM   20  C   UNL     1       0.492 -14.387 -39.457  1.00  0.00     0.001 A 
HETATM   21  C   UNL     1      -0.436 -14.218 -40.473  1.00  0.00     0.002 A 
HETATM   22  C   UNL     1      -1.794 -14.138 -40.161  1.00  0.00     0.030 A 
ENDBRANCH  13  16
ENDBRANCH   1  12
BRANCH   2  23
HETATM   23  C   UNL     1      -6.187 -13.833 -40.894  1.00  0.00    -0.011 A 
HETATM   24  C   UNL     1      -6.797 -15.083 -40.996  1.00  0.00     0.125 A 
HETATM   25  N   UNL     1      -6.547 -15.978 -41.979  1.00  0.00    -0.272 NA
HETATM   26  C   UNL     1      -5.645 -15.615 -42.914  1.00  0.00     0.116 A 
HETATM   27  C   UNL     1      -4.986 -14.399 -42.914  1.00  0.00     0.020 A 
HETATM   28  C   UNL     1      -5.262 -13.497 -41.890  1.00  0.00     0.012 A 
ENDBRANCH   2  23
TORSDOF 3
ENDMDL
MODEL 6
REMARK VINA RESULT:      -8.2      1.809      3.909
REMARK  3 active torsions:
REMARK  status: ('A' for Active; 'I' for Inactive)
REMARK    1  A    between atoms: C_3  and  N_4 
REMARK       I    between atoms: N_4  and  C_5 
REMARK    2  A    between atoms: C_5  and  C_6 
REMARK    3  A    between atoms: C_7  and  C_8 
ROOT
HETATM    1  C   UNL     1      -5.785   1.276 -32.538  1.00  0.00     0.062 C 
HETATM    2  C   UNL     1      -6.430   2.131 -33.637  1.00  0.00     0.199 C 
HETATM    3  N   UNL     1      -5.848   3.469 -33.644  1.00  0.00    -0.092 N 
HETATM    4  C   UNL     1      -5.095   3.991 -32.631  1.00  0.00     0.735 A 
HETATM    5  N   UNL     1      -4.818   3.218 -31.561  1.00  0.00    -0.191 N 
HETATM    6  N   UNL     1      -5.940   4.345 -34.656  1.00  0.00     0.012 NA
HETATM    7  N   UNL     1      -5.288   5.421 -34.221  1.00  0.00     0.033 NA
HETATM    8  N   UNL     1      -4.757   5.213 -32.961  1.00  0.00     0.030 NA
HETATM    9  C   UNL     1      -5.081   1.851 -31.528  1.00  0.00     0.037 C 
HETATM   10  C   UNL     1      -4.561   1.122 -30.314  1.00  0.00     0.070 C 
HETATM   11  H   UNL     1      -4.226   3.602 -30.826  1.00  0.00     0.184 HD
ENDROOT
BRANCH   1  12
HETATM   12  C   UNL     1      -5.999  -0.194 -32.702  1.00  0.00     0.256 C 
HETATM   13  N   UNL     1      -5.049  -0.805 -33.491  1.00  0.00    -0.323 N 
HETATM   14  H   UNL     1      -4.488  -0.187 -34.062  1.00  0.00     0.169 HD
HETATM   15  O   UNL     1      -7.031  -0.699 -32.289  1.00  0.00    -0.267 OA
BRANCH  13  16
HETATM   16  C   UNL     1      -4.872  -2.184 -33.755  1.00  0.00     0.041 A 
HETATM   17  C   UNL     1      -3.985  -3.057 -33.098  1.00  0.00    -0.035 A 
HETATM   18  C   UNL     1      -3.009  -2.656 -32.027  1.00  0.00     0.050 C 
HETATM   19  C   UNL     1      -3.961  -4.415 -33.483  1.00  0.00     0.009 A 
HETATM   20  C   UNL     1      -4.747  -4.891 -34.530  1.00  0.00     0.001 A 
HETATM   21  C   UNL     1      -5.576  -4.018 -35.215  1.00  0.00     0.002 A 
HETATM   22  C   UNL     1      -5.633  -2.677 -34.832  1.00  0.00     0.030 A 
ENDBRANCH  13  16
ENDBRANCH   1  12
BRANCH   2  23
HETATM   23  C   UNL     1      -7.940   2.247 -33.508  1.00  0.00    -0.011 A 
HETATM   24  C   UNL     1      -8.541   3.036 -32.526  1.00  0.00     0.125 A 
HETATM   25  N   UNL     1      -9.877   3.169 -32.364  1.00  0.00    -0.272 NA
HETATM   26  C   UNL     1     -10.662   2.484 -33.221  1.00  0.00     0.116 A 
HETATM   27  C   UNL     1     -10.174   1.678 -34.234  1.00  0.00     0.020 A 
HETATM   28  C   UNL     1      -8.794   1.560 -34.378  1.00  0.00     0.012 A 
ENDBRANCH   2  23
TORSDOF 3
ENDMDL
MODEL 7
REMARK VINA RESULT:      -8.0      2.455      3.555
REMARK  3 active torsions:
REMARK  status: ('A' for Active; 'I' for Inactive)
REMARK    1  A    between atoms: C_3  and  N_4 
REMARK       I    between atoms: N_4  and  C_5 
REMARK    2  A    between atoms: C_5  and  C_6 
REMARK    3  A    between atoms: C_7  and  C_8 
ROOT
HETATM    1  C   UNL     1      -6.750   4.214 -32.576  1.00  0.00     0.062 C 
HETATM    2  C   UNL     1      -5.566   5.016 -32.021  1.00  0.00     0.199 C 
HETATM    3  N   UNL     1      -5.943   6.415 -31.841  1.00  0.00    -0.092 N 
HETATM    4  C   UNL     1      -7.052   6.993 -32.387  1.00  0.00     0.735 A 
HETATM    5  N   UNL     1      -7.899   6.229 -33.107  1.00  0.00    -0.191 N 
HETATM    6  N   UNL     1      -5.275   7.302 -31.089  1.00  0.00     0.012 NA
HETATM    7  N   UNL     1      -5.958   8.435 -31.232  1.00  0.00     0.033 NA
HETATM    8  N   UNL     1      -7.067   8.256 -32.038  1.00  0.00     0.030 NA
HETATM    9  C   UNL     1      -7.812   4.840 -33.148  1.00  0.00     0.037 C 
HETATM   10  C   UNL     1      -8.936   4.143 -33.876  1.00  0.00     0.070 C 
HETATM   11  H   UNL     1      -8.744   6.660 -33.480  1.00  0.00     0.184 HD
ENDROOT
BRANCH   1  12
HETATM   12  C   UNL     1      -6.617   2.734 -32.414  1.00  0.00     0.256 C 
HETATM   13  N   UNL     1      -6.185   2.091 -33.552  1.00  0.00    -0.323 N 
HETATM   14  H   UNL     1      -6.254   2.622 -34.410  1.00  0.00     0.169 HD
HETATM   15  O   UNL     1      -7.032   2.203 -31.395  1.00  0.00    -0.267 OA
BRANCH  13  16
HETATM   16  C   UNL     1      -5.835   0.730 -33.721  1.00  0.00     0.041 A 
HETATM   17  C   UNL     1      -6.532  -0.228 -34.482  1.00  0.00    -0.035 A 
HETATM   18  C   UNL     1      -7.827   0.016 -35.206  1.00  0.00     0.050 C 
HETATM   19  C   UNL     1      -6.017  -1.540 -34.554  1.00  0.00     0.009 A 
HETATM   20  C   UNL     1      -4.878  -1.919 -33.847  1.00  0.00     0.001 A 
HETATM   21  C   UNL     1      -4.228  -0.990 -33.051  1.00  0.00     0.002 A 
HETATM   22  C   UNL     1      -4.705   0.320 -32.987  1.00  0.00     0.030 A 
ENDBRANCH  13  16
ENDBRANCH   1  12
BRANCH   2  23
HETATM   23  C   UNL     1      -4.323   4.945 -32.893  1.00  0.00    -0.011 A 
HETATM   24  C   UNL     1      -3.089   4.531 -32.392  1.00  0.00     0.125 A 
HETATM   25  N   UNL     1      -1.953   4.456 -33.122  1.00  0.00    -0.272 NA
HETATM   26  C   UNL     1      -2.044   4.809 -34.421  1.00  0.00     0.116 A 
HETATM   27  C   UNL     1      -3.217   5.227 -35.023  1.00  0.00     0.020 A 
HETATM   28  C   UNL     1      -4.371   5.295 -34.248  1.00  0.00     0.012 A 
ENDBRANCH   2  23
TORSDOF 3
ENDMDL
MODEL 8
REMARK VINA RESULT:      -8.0      1.961      2.232
REMARK  3 active torsions:
REMARK  status: ('A' for Active; 'I' for Inactive)
REMARK    1  A    between atoms: C_3  and  N_4 
REMARK       I    between atoms: N_4  and  C_5 
REMARK    2  A    between atoms: C_5  and  C_6 
REMARK    3  A    between atoms: C_7  and  C_8 
ROOT
HETATM    1  C   UNL     1      -7.318   3.210 -32.803  1.00  0.00     0.062 C 
HETATM    2  C   UNL     1      -6.383   4.277 -32.219  1.00  0.00     0.199 C 
HETATM    3  N   UNL     1      -7.077   5.557 -32.116  1.00  0.00    -0.092 N 
HETATM    4  C   UNL     1      -8.253   5.851 -32.745  1.00  0.00     0.735 A 
HETATM    5  N   UNL     1      -8.859   4.894 -33.477  1.00  0.00    -0.191 N 
HETATM    6  N   UNL     1      -6.676   6.594 -31.366  1.00  0.00     0.012 NA
HETATM    7  N   UNL     1      -7.588   7.537 -31.593  1.00  0.00     0.033 NA
HETATM    8  N   UNL     1      -8.576   7.087 -32.450  1.00  0.00     0.030 NA
HETATM    9  C   UNL     1      -8.457   3.561 -33.457  1.00  0.00     0.037 C 
HETATM   10  C   UNL     1      -9.346   2.606 -34.215  1.00  0.00     0.070 C 
HETATM   11  H   UNL     1      -9.754   5.110 -33.913  1.00  0.00     0.184 HD
ENDROOT
BRANCH   1  12
HETATM   12  C   UNL     1      -6.863   1.806 -32.573  1.00  0.00     0.256 C 
HETATM   13  N   UNL     1      -6.385   1.188 -33.707  1.00  0.00    -0.323 N 
HETATM   14  H   UNL     1      -6.624   1.632 -34.584  1.00  0.00     0.169 HD
HETATM   15  O   UNL     1      -7.084   1.273 -31.496  1.00  0.00    -0.267 OA
BRANCH  13  16
HETATM   16  C   UNL     1      -5.767  -0.079 -33.831  1.00  0.00     0.041 A 
HETATM   17  C   UNL     1      -4.532  -0.468 -33.280  1.00  0.00    -0.035 A 
HETATM   18  C   UNL     1      -3.608   0.429 -32.504  1.00  0.00     0.050 C 
HETATM   19  C   UNL     1      -4.082  -1.789 -33.491  1.00  0.00     0.009 A 
HETATM   20  C   UNL     1      -4.799  -2.689 -34.275  1.00  0.00     0.001 A 
HETATM   21  C   UNL     1      -5.985  -2.286 -34.867  1.00  0.00     0.002 A 
HETATM   22  C   UNL     1      -6.460  -0.993 -34.649  1.00  0.00     0.030 A 
ENDBRANCH  13  16
ENDBRANCH   1  12
BRANCH   2  23
HETATM   23  C   UNL     1      -5.105   4.468 -33.019  1.00  0.00    -0.011 A 
HETATM   24  C   UNL     1      -5.105   5.049 -34.287  1.00  0.00     0.125 A 
HETATM   25  N   UNL     1      -3.998   5.236 -35.042  1.00  0.00    -0.272 NA
HETATM   26  C   UNL     1      -2.827   4.826 -34.512  1.00  0.00     0.116 A 
HETATM   27  C   UNL     1      -2.711   4.244 -33.263  1.00  0.00     0.020 A 
HETATM   28  C   UNL     1      -3.866   4.064 -32.507  1.00  0.00     0.012 A 
ENDBRANCH   2  23
TORSDOF 3
ENDMDL
MODEL 9
REMARK VINA RESULT:      -7.9      2.288      3.254
REMARK  3 active torsions:
REMARK  status: ('A' for Active; 'I' for Inactive)
REMARK    1  A    between atoms: C_3  and  N_4 
REMARK       I    between atoms: N_4  and  C_5 
REMARK    2  A    between atoms: C_5  and  C_6 
REMARK    3  A    between atoms: C_7  and  C_8 
ROOT
HETATM    1  C   UNL     1      -5.162   1.920 -32.676  1.00  0.00     0.062 C 
HETATM    2  C   UNL     1      -4.688   2.955 -31.647  1.00  0.00     0.199 C 
HETATM    3  N   UNL     1      -5.773   3.872 -31.316  1.00  0.00    -0.092 N 
HETATM    4  C   UNL     1      -6.922   4.006 -32.043  1.00  0.00     0.735 A 
HETATM    5  N   UNL     1      -7.109   3.214 -33.118  1.00  0.00    -0.191 N 
HETATM    6  N   UNL     1      -5.806   4.672 -30.240  1.00  0.00     0.012 NA
HETATM    7  N   UNL     1      -6.955   5.333 -30.355  1.00  0.00     0.033 NA
HETATM    8  N   UNL     1      -7.660   4.927 -31.474  1.00  0.00     0.030 NA
HETATM    9  C   UNL     1      -6.291   2.123 -33.404  1.00  0.00     0.037 C 
HETATM   10  C   UNL     1      -6.745   1.259 -34.555  1.00  0.00     0.070 C 
HETATM   11  H   UNL     1      -7.985   3.294 -33.633  1.00  0.00     0.184 HD
ENDROOT
BRANCH   1  12
HETATM   12  C   UNL     1      -4.288   0.711 -32.776  1.00  0.00     0.256 C 
HETATM   13  N   UNL     1      -4.983  -0.476 -32.749  1.00  0.00    -0.323 N 
HETATM   14  H   UNL     1      -5.937  -0.420 -32.416  1.00  0.00     0.169 HD
HETATM   15  O   UNL     1      -3.075   0.843 -32.712  1.00  0.00    -0.267 OA
BRANCH  13  16
HETATM   16  C   UNL     1      -4.497  -1.791 -32.943  1.00  0.00     0.041 A 
HETATM   17  C   UNL     1      -4.892  -2.692 -33.949  1.00  0.00    -0.035 A 
HETATM   18  C   UNL     1      -5.964  -2.434 -34.971  1.00  0.00     0.050 C 
HETATM   19  C   UNL     1      -4.277  -3.962 -34.001  1.00  0.00     0.009 A 
HETATM   20  C   UNL     1      -3.340  -4.360 -33.051  1.00  0.00     0.001 A 
HETATM   21  C   UNL     1      -2.997  -3.494 -32.025  1.00  0.00     0.002 A 
HETATM   22  C   UNL     1      -3.573  -2.225 -31.971  1.00  0.00     0.030 A 
ENDBRANCH  13  16
ENDBRANCH   1  12
BRANCH   2  23
HETATM   23  C   UNL     1      -3.482   3.757 -32.106  1.00  0.00    -0.011 A 
HETATM   24  C   UNL     1      -2.367   3.952 -31.289  1.00  0.00     0.125 A 
HETATM   25  N   UNL     1      -1.272   4.662 -31.646  1.00  0.00    -0.272 NA
HETATM   26  C   UNL     1      -1.280   5.208 -32.879  1.00  0.00     0.116 A 
HETATM   27  C   UNL     1      -2.328   5.074 -33.772  1.00  0.00     0.020 A 
HETATM   28  C   UNL     1      -3.442   4.338 -33.379  1.00  0.00     0.012 A 
ENDBRANCH   2  23
TORSDOF 3
ENDMDL
MODEL 10
REMARK VINA RESULT:      -7.9      0.689      1.462
REMARK  3 active torsions:
REMARK  status: ('A' for Active; 'I' for Inactive)
REMARK    1  A    between atoms: C_3  and  N_4 
REMARK       I    between atoms: N_4  and  C_5 
REMARK    2  A    between atoms: C_5  and  C_6 
REMARK    3  A    between atoms: C_7  and  C_8 
ROOT
HETATM    1  C   UNL     1      -8.105   1.449 -31.590  1.00  0.00     0.062 C 
HETATM    2  C   UNL     1      -7.560   2.809 -31.135  1.00  0.00     0.199 C 
HETATM    3  N   UNL     1      -8.658   3.738 -30.886  1.00  0.00    -0.092 N 
HETATM    4  C   UNL     1      -9.943   3.547 -31.307  1.00  0.00     0.735 A 
HETATM    5  N   UNL     1     -10.253   2.407 -31.959  1.00  0.00    -0.191 N 
HETATM    6  N   UNL     1      -8.562   4.875 -30.182  1.00  0.00     0.012 NA
HETATM    7  N   UNL     1      -9.784   5.398 -30.232  1.00  0.00     0.033 NA
HETATM    8  N   UNL     1     -10.654   4.580 -30.930  1.00  0.00     0.030 NA
HETATM    9  C   UNL     1      -9.381   1.323 -32.041  1.00  0.00     0.037 C 
HETATM   10  C   UNL     1      -9.956   0.078 -32.671  1.00  0.00     0.070 C 
HETATM   11  H   UNL     1     -11.221   2.255 -32.238  1.00  0.00     0.184 HD
ENDROOT
BRANCH   1  12
HETATM   12  C   UNL     1      -7.125   0.327 -31.475  1.00  0.00     0.256 C 
HETATM   13  N   UNL     1      -6.670  -0.134 -32.690  1.00  0.00    -0.323 N 
HETATM   14  H   UNL     1      -7.215   0.141 -33.497  1.00  0.00     0.169 HD
HETATM   15  O   UNL     1      -6.929  -0.188 -30.385  1.00  0.00    -0.267 OA
BRANCH  13  16
HETATM   16  C   UNL     1      -5.658  -1.088 -32.952  1.00  0.00     0.041 A 
HETATM   17  C   UNL     1      -5.690  -2.097 -33.933  1.00  0.00    -0.035 A 
HETATM   18  C   UNL     1      -6.851  -2.383 -34.845  1.00  0.00     0.050 C 
HETATM   19  C   UNL     1      -4.572  -2.949 -34.065  1.00  0.00     0.009 A 
HETATM   20  C   UNL     1      -3.473  -2.850 -33.215  1.00  0.00     0.001 A 
HETATM   21  C   UNL     1      -3.469  -1.895 -32.211  1.00  0.00     0.002 A 
HETATM   22  C   UNL     1      -4.554  -1.026 -32.080  1.00  0.00     0.030 A 
ENDBRANCH  13  16
ENDBRANCH   1  12
BRANCH   2  23
HETATM   23  C   UNL     1      -6.593   3.437 -32.125  1.00  0.00    -0.011 A 
HETATM   24  C   UNL     1      -7.022   3.982 -33.336  1.00  0.00     0.125 A 
HETATM   25  N   UNL     1      -6.204   4.545 -34.253  1.00  0.00    -0.272 NA
HETATM   26  C   UNL     1      -4.888   4.573 -33.956  1.00  0.00     0.116 A 
HETATM   27  C   UNL     1      -4.355   4.069 -32.783  1.00  0.00     0.020 A 
HETATM   28  C   UNL     1      -5.221   3.494 -31.857  1.00  0.00     0.012 A 
ENDBRANCH   2  23
TORSDOF 3
ENDMDL
