MODEL 1
REMARK VINA RESULT:      -9.4      0.000      0.000
REMARK  5 active torsions:
REMARK  status: ('A' for Active; 'I' for Inactive)
REMARK    1  A    between atoms: N_1  and  C_2 
REMARK    2  A    between atoms: C_2  and  C_3 
REMARK    3  A    between atoms: C_2  and  C_12 
REMARK    4  A    between atoms: C_3  and  C_4 
REMARK    5  A    between atoms: C_17  and  C_23 
ROOT
HETATM    1  C   UNL     1      -4.913   2.396 -31.296  1.00  0.00     0.141 A 
HETATM    2  N   UNL     1      -5.848   1.948 -32.073  1.00  0.00    -0.232 NA
HETATM    3  C   UNL     1      -5.687   0.659 -32.612  1.00  0.00     0.074 A 
HETATM    4  C   UNL     1      -6.701   0.136 -33.413  1.00  0.00     0.033 A 
HETATM    5  C   UNL     1      -6.593  -1.155 -33.947  1.00  0.00     0.014 A 
HETATM    6  C   UNL     1      -5.464  -1.948 -33.691  1.00  0.00    -0.022 A 
HETATM    7  C   UNL     1      -4.442  -1.422 -32.892  1.00  0.00     0.031 A 
HETATM    8  C   UNL     1      -4.563  -0.132 -32.363  1.00  0.00     0.061 A 
HETATM    9  C   UNL     1      -3.508   0.436 -31.507  1.00  0.00     0.259 A 
HETATM   10  O   UNL     1      -2.486  -0.179 -31.235  1.00  0.00    -0.267 OA
HETATM   11  N   UNL     1      -3.763   1.695 -31.032  1.00  0.00    -0.309 N 
HETATM   12  H   UNL     1      -3.083   2.129 -30.419  1.00  0.00     0.170 HD
ENDROOT
BRANCH   1  13
HETATM   13  C   UNL     1      -4.979   3.790 -30.653  1.00  0.00     0.291 C 
BRANCH  13  14
HETATM   14  N   UNL     1      -6.049   3.807 -29.622  1.00  0.00     0.090 N 
HETATM   15  H   UNL     1      -5.651   3.479 -28.738  1.00  0.00     0.313 HD
HETATM   16  H   UNL     1      -6.750   3.108 -29.872  1.00  0.00     0.313 HD
ENDBRANCH  13  14
BRANCH  13  17
HETATM   17  C   UNL     1      -5.085   4.936 -31.681  1.00  0.00     0.082 C 
BRANCH  17  18
HETATM   18  C   UNL     1      -3.931   5.050 -32.657  1.00  0.00    -0.053 A 
HETATM   19  C   UNL     1      -4.171   5.154 -34.037  1.00  0.00     0.010 A 
HETATM   20  C   UNL     1      -3.110   5.273 -34.939  1.00  0.00     0.046 A 
HETATM   21  C   UNL     1      -1.804   5.283 -34.466  1.00  0.00     0.154 A 
HETATM   22  F   UNL     1      -0.789   5.398 -35.333  1.00  0.00    -0.203 F 
HETATM   23  C   UNL     1      -1.553   5.170 -33.105  1.00  0.00     0.155 A 
HETATM   24  F   UNL     1      -0.293   5.178 -32.647  1.00  0.00    -0.203 F 
HETATM   25  C   UNL     1      -2.604   5.051 -32.198  1.00  0.00     0.052 A 
ENDBRANCH  17  18
ENDBRANCH  13  17
ENDBRANCH   1  13
BRANCH   6  26
HETATM   26  C   UNL     1      -5.376  -3.291 -34.239  1.00  0.00     0.010 A 
HETATM   27  C   UNL     1      -6.293  -4.035 -35.019  1.00  0.00     0.152 A 
HETATM   28  N   UNL     1      -5.837  -5.248 -35.339  1.00  0.00    -0.187 NA
HETATM   29  N   UNL     1      -4.625  -5.289 -34.765  1.00  0.00    -0.289 N 
HETATM   30  H   UNL     1      -4.068  -6.131 -34.872  1.00  0.00     0.188 HD
HETATM   31  C   UNL     1      -4.300  -4.142 -34.099  1.00  0.00     0.123 A 
ENDBRANCH   6  26
TORSDOF 5
ENDMDL
MODEL 2
REMARK VINA RESULT:      -9.3      1.408      1.725
REMARK  5 active torsions:
REMARK  status: ('A' for Active; 'I' for Inactive)
REMARK    1  A    between atoms: N_1  and  C_2 
REMARK    2  A    between atoms: C_2  and  C_3 
REMARK    3  A    between atoms: C_2  and  C_12 
REMARK    4  A    between atoms: C_3  and  C_4 
REMARK    5  A    between atoms: C_17  and  C_23 
ROOT
HETATM    1  C   UNL     1      -4.621   2.678 -31.905  1.00  0.00     0.141 A 
HETATM    2  N   UNL     1      -5.445   2.210 -32.788  1.00  0.00    -0.232 NA
HETATM    3  C   UNL     1      -5.321   0.856 -33.145  1.00  0.00     0.074 A 
HETATM    4  C   UNL     1      -6.227   0.316 -34.057  1.00  0.00     0.033 A 
HETATM    5  C   UNL     1      -6.154  -1.035 -34.419  1.00  0.00     0.014 A 
HETATM    6  C   UNL     1      -5.169  -1.875 -33.875  1.00  0.00    -0.022 A 
HETATM    7  C   UNL     1      -4.255  -1.334 -32.963  1.00  0.00     0.031 A 
HETATM    8  C   UNL     1      -4.340   0.018 -32.609  1.00  0.00     0.061 A 
HETATM    9  C   UNL     1      -3.399   0.605 -31.640  1.00  0.00     0.259 A 
HETATM   10  O   UNL     1      -2.505  -0.048 -31.120  1.00  0.00    -0.267 OA
HETATM   11  N   UNL     1      -3.608   1.929 -31.360  1.00  0.00    -0.309 N 
HETATM   12  H   UNL     1      -3.006   2.383 -30.683  1.00  0.00     0.170 HD
ENDROOT
BRANCH   1  13
HETATM   13  C   UNL     1      -4.661   4.142 -31.440  1.00  0.00     0.291 C 
BRANCH  13  14
HETATM   14  N   UNL     1      -6.032   4.474 -30.976  1.00  0.00     0.090 N 
HETATM   15  H   UNL     1      -6.487   5.043 -31.694  1.00  0.00     0.313 HD
HETATM   16  H   UNL     1      -5.959   5.086 -30.162  1.00  0.00     0.313 HD
ENDBRANCH  13  14
BRANCH  13  17
HETATM   17  C   UNL     1      -4.098   5.133 -32.481  1.00  0.00     0.082 C 
BRANCH  17  18
HETATM   18  C   UNL     1      -2.702   5.653 -32.202  1.00  0.00    -0.053 A 
HETATM   19  C   UNL     1      -2.221   6.797 -32.862  1.00  0.00     0.010 A 
HETATM   20  C   UNL     1      -0.940   7.288 -32.598  1.00  0.00     0.046 A 
HETATM   21  C   UNL     1      -0.131   6.635 -31.677  1.00  0.00     0.154 A 
HETATM   22  F   UNL     1       1.096   7.110 -31.424  1.00  0.00    -0.203 F 
HETATM   23  C   UNL     1      -0.590   5.498 -31.026  1.00  0.00     0.155 A 
HETATM   24  F   UNL     1       0.190   4.866 -30.137  1.00  0.00    -0.203 F 
HETATM   25  C   UNL     1      -1.866   5.001 -31.283  1.00  0.00     0.052 A 
ENDBRANCH  17  18
ENDBRANCH  13  17
ENDBRANCH   1  13
BRANCH   6  26
HETATM   26  C   UNL     1      -5.120  -3.278 -34.248  1.00  0.00     0.010 A 
HETATM   27  C   UNL     1      -6.040  -4.079 -34.966  1.00  0.00     0.152 A 
HETATM   28  N   UNL     1      -5.625  -5.339 -35.115  1.00  0.00    -0.187 NA
HETATM   29  N   UNL     1      -4.436  -5.354 -34.493  1.00  0.00    -0.289 N 
HETATM   30  H   UNL     1      -3.913  -6.223 -34.472  1.00  0.00     0.188 HD
HETATM   31  C   UNL     1      -4.087  -4.146 -33.961  1.00  0.00     0.123 A 
ENDBRANCH   6  26
TORSDOF 5
ENDMDL
MODEL 3
REMARK VINA RESULT:      -9.3      1.313      1.725
REMARK  5 active torsions:
REMARK  status: ('A' for Active; 'I' for Inactive)
REMARK    1  A    between atoms: N_1  and  C_2 
REMARK    2  A    between atoms: C_2  and  C_3 
REMARK    3  A    between atoms: C_2  and  C_12 
REMARK    4  A    between atoms: C_3  and  C_4 
REMARK    5  A    between atoms: C_17  and  C_23 
ROOT
HETATM    1  C   UNL     1      -5.980   2.949 -32.719  1.00  0.00     0.141 A 
HETATM    2  N   UNL     1      -6.598   2.313 -33.663  1.00  0.00    -0.232 NA
HETATM    3  C   UNL     1      -6.273   0.959 -33.860  1.00  0.00     0.074 A 
HETATM    4  C   UNL     1      -6.957   0.240 -34.840  1.00  0.00     0.033 A 
HETATM    5  C   UNL     1      -6.684  -1.117 -35.049  1.00  0.00     0.014 A 
HETATM    6  C   UNL     1      -5.715  -1.784 -34.283  1.00  0.00    -0.022 A 
HETATM    7  C   UNL     1      -5.022  -1.063 -33.303  1.00  0.00     0.031 A 
HETATM    8  C   UNL     1      -5.307   0.293 -33.102  1.00  0.00     0.061 A 
HETATM    9  C   UNL     1      -4.602   1.068 -32.067  1.00  0.00     0.259 A 
HETATM   10  O   UNL     1      -3.739   0.573 -31.356  1.00  0.00    -0.267 OA
HETATM   11  N   UNL     1      -4.994   2.375 -31.956  1.00  0.00    -0.309 N 
HETATM   12  H   UNL     1      -4.560   2.953 -31.244  1.00  0.00     0.170 HD
ENDROOT
BRANCH   1  13
HETATM   13  C   UNL     1      -6.251   4.430 -32.414  1.00  0.00     0.291 C 
BRANCH  13  14
HETATM   14  N   UNL     1      -7.660   4.593 -31.975  1.00  0.00     0.090 N 
HETATM   15  H   UNL     1      -7.931   3.764 -31.440  1.00  0.00     0.313 HD
HETATM   16  H   UNL     1      -8.260   4.582 -32.802  1.00  0.00     0.313 HD
ENDBRANCH  13  14
BRANCH  13  17
HETATM   17  C   UNL     1      -5.841   5.378 -33.561  1.00  0.00     0.082 C 
BRANCH  17  18
HETATM   18  C   UNL     1      -4.383   5.791 -33.580  1.00  0.00    -0.053 A 
HETATM   19  C   UNL     1      -3.893   6.723 -32.649  1.00  0.00     0.010 A 
HETATM   20  C   UNL     1      -2.546   7.097 -32.654  1.00  0.00     0.046 A 
HETATM   21  C   UNL     1      -1.685   6.545 -33.593  1.00  0.00     0.154 A 
HETATM   22  F   UNL     1      -0.393   6.905 -33.594  1.00  0.00    -0.203 F 
HETATM   23  C   UNL     1      -2.158   5.632 -34.525  1.00  0.00     0.155 A 
HETATM   24  F   UNL     1      -1.327   5.099 -35.432  1.00  0.00    -0.203 F 
HETATM   25  C   UNL     1      -3.499   5.253 -34.527  1.00  0.00     0.052 A 
ENDBRANCH  17  18
ENDBRANCH  13  17
ENDBRANCH   1  13
BRANCH   6  26
HETATM   26  C   UNL     1      -5.456  -3.197 -34.502  1.00  0.00     0.010 A 
HETATM   27  C   UNL     1      -6.245  -4.199 -35.115  1.00  0.00     0.152 A 
HETATM   28  N   UNL     1      -5.647  -5.392 -35.132  1.00  0.00    -0.187 NA
HETATM   29  N   UNL     1      -4.471  -5.162 -34.529  1.00  0.00    -0.289 N 
HETATM   30  H   UNL     1      -3.823  -5.936 -34.421  1.00  0.00     0.188 HD
HETATM   31  C   UNL     1      -4.306  -3.865 -34.137  1.00  0.00     0.123 A 
ENDBRANCH   6  26
TORSDOF 5
ENDMDL
MODEL 4
REMARK VINA RESULT:      -9.0      1.478      2.250
REMARK  5 active torsions:
REMARK  status: ('A' for Active; 'I' for Inactive)
REMARK    1  A    between atoms: N_1  and  C_2 
REMARK    2  A    between atoms: C_2  and  C_3 
REMARK    3  A    between atoms: C_2  and  C_12 
REMARK    4  A    between atoms: C_3  and  C_4 
REMARK    5  A    between atoms: C_17  and  C_23 
ROOT
HETATM    1  C   UNL     1      -5.054   2.763 -30.927  1.00  0.00     0.141 A 
HETATM    2  N   UNL     1      -4.121   1.977 -31.365  1.00  0.00    -0.232 NA
HETATM    3  C   UNL     1      -4.516   0.798 -32.021  1.00  0.00     0.074 A 
HETATM    4  C   UNL     1      -3.531  -0.042 -32.542  1.00  0.00     0.033 A 
HETATM    5  C   UNL     1      -3.882  -1.212 -33.227  1.00  0.00     0.014 A 
HETATM    6  C   UNL     1      -5.229  -1.569 -33.401  1.00  0.00    -0.022 A 
HETATM    7  C   UNL     1      -6.218  -0.731 -32.873  1.00  0.00     0.031 A 
HETATM    8  C   UNL     1      -5.854   0.437 -32.193  1.00  0.00     0.061 A 
HETATM    9  C   UNL     1      -6.878   1.342 -31.643  1.00  0.00     0.259 A 
HETATM   10  O   UNL     1      -8.075   1.109 -31.741  1.00  0.00    -0.267 OA
HETATM   11  N   UNL     1      -6.389   2.462 -31.026  1.00  0.00    -0.309 N 
HETATM   12  H   UNL     1      -7.047   3.134 -30.647  1.00  0.00     0.170 HD
ENDROOT
BRANCH   1  13
HETATM   13  C   UNL     1      -4.742   4.076 -30.193  1.00  0.00     0.291 C 
BRANCH  13  14
HETATM   14  N   UNL     1      -5.626   4.198 -29.006  1.00  0.00     0.090 N 
HETATM   15  H   UNL     1      -5.081   4.593 -28.236  1.00  0.00     0.313 HD
HETATM   16  H   UNL     1      -5.882   3.260 -28.695  1.00  0.00     0.313 HD
ENDBRANCH  13  14
BRANCH  13  17
HETATM   17  C   UNL     1      -4.762   5.314 -31.115  1.00  0.00     0.082 C 
BRANCH  17  18
HETATM   18  C   UNL     1      -3.811   5.269 -32.294  1.00  0.00    -0.053 A 
HETATM   19  C   UNL     1      -2.424   5.180 -32.089  1.00  0.00     0.010 A 
HETATM   20  C   UNL     1      -1.543   5.123 -33.173  1.00  0.00     0.046 A 
HETATM   21  C   UNL     1      -2.046   5.162 -34.467  1.00  0.00     0.154 A 
HETATM   22  F   UNL     1      -1.199   5.106 -35.504  1.00  0.00    -0.203 F 
HETATM   23  C   UNL     1      -3.414   5.261 -34.683  1.00  0.00     0.155 A 
HETATM   24  F   UNL     1      -3.899   5.299 -35.933  1.00  0.00    -0.203 F 
HETATM   25  C   UNL     1      -4.298   5.317 -33.609  1.00  0.00     0.052 A 
ENDBRANCH  17  18
ENDBRANCH  13  17
ENDBRANCH   1  13
BRANCH   6  26
HETATM   26  C   UNL     1      -5.575  -2.777 -34.129  1.00  0.00     0.010 A 
HETATM   27  C   UNL     1      -6.793  -3.184 -34.724  1.00  0.00     0.152 A 
HETATM   28  N   UNL     1      -6.707  -4.377 -35.318  1.00  0.00    -0.187 NA
HETATM   29  N   UNL     1      -5.434  -4.742 -35.107  1.00  0.00    -0.289 N 
HETATM   30  H   UNL     1      -5.120  -5.634 -35.475  1.00  0.00     0.188 HD
HETATM   31  C   UNL     1      -4.714  -3.819 -34.404  1.00  0.00     0.123 A 
ENDBRANCH   6  26
TORSDOF 5
ENDMDL
MODEL 5
REMARK VINA RESULT:      -9.0      2.373      3.343
REMARK  5 active torsions:
REMARK  status: ('A' for Active; 'I' for Inactive)
REMARK    1  A    between atoms: N_1  and  C_2 
REMARK    2  A    between atoms: C_2  and  C_3 
REMARK    3  A    between atoms: C_2  and  C_12 
REMARK    4  A    between atoms: C_3  and  C_4 
REMARK    5  A    between atoms: C_17  and  C_23 
ROOT
HETATM    1  C   UNL     1      -4.199   2.787 -32.199  1.00  0.00     0.141 A 
HETATM    2  N   UNL     1      -3.526   1.691 -32.051  1.00  0.00    -0.232 NA
HETATM    3  C   UNL     1      -4.064   0.514 -32.599  1.00  0.00     0.074 A 
HETATM    4  C   UNL     1      -3.335  -0.670 -32.493  1.00  0.00     0.033 A 
HETATM    5  C   UNL     1      -3.823  -1.859 -33.051  1.00  0.00     0.014 A 
HETATM    6  C   UNL     1      -5.054  -1.888 -33.723  1.00  0.00    -0.022 A 
HETATM    7  C   UNL     1      -5.790  -0.701 -33.826  1.00  0.00     0.031 A 
HETATM    8  C   UNL     1      -5.291   0.480 -33.266  1.00  0.00     0.061 A 
HETATM    9  C   UNL     1      -6.040   1.744 -33.375  1.00  0.00     0.259 A 
HETATM   10  O   UNL     1      -7.124   1.813 -33.938  1.00  0.00    -0.267 OA
HETATM   11  N   UNL     1      -5.428   2.830 -32.810  1.00  0.00    -0.309 N 
HETATM   12  H   UNL     1      -5.886   3.732 -32.873  1.00  0.00     0.170 HD
ENDROOT
BRANCH   1  13
HETATM   13  C   UNL     1      -3.712   4.133 -31.640  1.00  0.00     0.291 C 
BRANCH  13  14
HETATM   14  N   UNL     1      -4.844   5.094 -31.611  1.00  0.00     0.090 N 
HETATM   15  H   UNL     1      -5.701   4.577 -31.398  1.00  0.00     0.313 HD
HETATM   16  H   UNL     1      -4.983   5.459 -32.555  1.00  0.00     0.313 HD
ENDBRANCH  13  14
BRANCH  13  17
HETATM   17  C   UNL     1      -2.454   4.674 -32.352  1.00  0.00     0.082 C 
BRANCH  17  18
HETATM   18  C   UNL     1      -1.526   5.512 -31.496  1.00  0.00    -0.053 A 
HETATM   19  C   UNL     1      -0.132   5.390 -31.623  1.00  0.00     0.010 A 
HETATM   20  C   UNL     1       0.728   6.171 -30.845  1.00  0.00     0.046 A 
HETATM   21  C   UNL     1       0.197   7.073 -29.932  1.00  0.00     0.154 A 
HETATM   22  F   UNL     1       1.023   7.822 -29.189  1.00  0.00    -0.203 F 
HETATM   23  C   UNL     1      -1.179   7.196 -29.789  1.00  0.00     0.155 A 
HETATM   24  F   UNL     1      -1.692   8.066 -28.907  1.00  0.00    -0.203 F 
HETATM   25  C   UNL     1      -2.043   6.421 -30.560  1.00  0.00     0.052 A 
ENDBRANCH  17  18
ENDBRANCH  13  17
ENDBRANCH   1  13
BRANCH   6  26
HETATM   26  C   UNL     1      -5.536  -3.127 -34.310  1.00  0.00     0.010 A 
HETATM   27  C   UNL     1      -4.903  -4.381 -34.476  1.00  0.00     0.152 A 
HETATM   28  N   UNL     1      -5.691  -5.287 -35.061  1.00  0.00    -0.187 NA
HETATM   29  N   UNL     1      -6.834  -4.617 -35.274  1.00  0.00    -0.289 N 
HETATM   30  H   UNL     1      -7.605  -5.107 -35.717  1.00  0.00     0.188 HD
HETATM   31  C   UNL     1      -6.794  -3.323 -34.840  1.00  0.00     0.123 A 
ENDBRANCH   6  26
TORSDOF 5
ENDMDL
MODEL 6
REMARK VINA RESULT:      -8.8      1.994      2.616
REMARK  5 active torsions:
REMARK  status: ('A' for Active; 'I' for Inactive)
REMARK    1  A    between atoms: N_1  and  C_2 
REMARK    2  A    between atoms: C_2  and  C_3 
REMARK    3  A    between atoms: C_2  and  C_12 
REMARK    4  A    between atoms: C_3  and  C_4 
REMARK    5  A    between atoms: C_17  and  C_23 
ROOT
HETATM    1  C   UNL     1      -5.727   2.956 -33.163  1.00  0.00     0.141 A 
HETATM    2  N   UNL     1      -4.802   2.166 -32.717  1.00  0.00    -0.232 NA
HETATM    3  C   UNL     1      -4.876   0.807 -33.069  1.00  0.00     0.074 A 
HETATM    4  C   UNL     1      -3.867  -0.054 -32.641  1.00  0.00     0.033 A 
HETATM    5  C   UNL     1      -3.889  -1.410 -32.993  1.00  0.00     0.014 A 
HETATM    6  C   UNL     1      -4.927  -1.932 -33.780  1.00  0.00    -0.022 A 
HETATM    7  C   UNL     1      -5.945  -1.071 -34.207  1.00  0.00     0.031 A 
HETATM    8  C   UNL     1      -5.910   0.282 -33.849  1.00  0.00     0.061 A 
HETATM    9  C   UNL     1      -6.961   1.210 -34.299  1.00  0.00     0.259 A 
HETATM   10  O   UNL     1      -7.907   0.843 -34.983  1.00  0.00    -0.267 OA
HETATM   11  N   UNL     1      -6.793   2.510 -33.904  1.00  0.00    -0.309 N 
HETATM   12  H   UNL     1      -7.473   3.200 -34.202  1.00  0.00     0.170 HD
ENDROOT
BRANCH   1  13
HETATM   13  C   UNL     1      -5.750   4.458 -32.841  1.00  0.00     0.291 C 
BRANCH  13  14
HETATM   14  N   UNL     1      -7.157   4.906 -32.680  1.00  0.00     0.090 N 
HETATM   15  H   UNL     1      -7.487   5.261 -33.581  1.00  0.00     0.313 HD
HETATM   16  H   UNL     1      -7.170   5.714 -32.056  1.00  0.00     0.313 HD
ENDBRANCH  13  14
BRANCH  13  17
HETATM   17  C   UNL     1      -4.933   5.311 -33.835  1.00  0.00     0.082 C 
BRANCH  17  18
HETATM   18  C   UNL     1      -3.572   5.764 -33.345  1.00  0.00    -0.053 A 
HETATM   19  C   UNL     1      -2.583   6.170 -34.257  1.00  0.00     0.010 A 
HETATM   20  C   UNL     1      -1.332   6.601 -33.809  1.00  0.00     0.046 A 
HETATM   21  C   UNL     1      -1.061   6.624 -32.447  1.00  0.00     0.154 A 
HETATM   22  F   UNL     1       0.139   7.039 -32.020  1.00  0.00    -0.203 F 
HETATM   23  C   UNL     1      -2.026   6.215 -31.535  1.00  0.00     0.155 A 
HETATM   24  F   UNL     1      -1.765   6.235 -30.220  1.00  0.00    -0.203 F 
HETATM   25  C   UNL     1      -3.276   5.784 -31.973  1.00  0.00     0.052 A 
ENDBRANCH  17  18
ENDBRANCH  13  17
ENDBRANCH   1  13
BRANCH   6  26
HETATM   26  C   UNL     1      -4.925  -3.337 -34.151  1.00  0.00     0.010 A 
HETATM   27  C   UNL     1      -5.869  -4.107 -34.870  1.00  0.00     0.152 A 
HETATM   28  N   UNL     1      -5.498  -5.382 -35.016  1.00  0.00    -0.187 NA
HETATM   29  N   UNL     1      -4.312  -5.436 -34.389  1.00  0.00    -0.289 N 
HETATM   30  H   UNL     1      -3.819  -6.322 -34.365  1.00  0.00     0.188 HD
HETATM   31  C   UNL     1      -3.923  -4.239 -33.858  1.00  0.00     0.123 A 
ENDBRANCH   6  26
TORSDOF 5
ENDMDL
MODEL 7
REMARK VINA RESULT:      -8.4      4.779      6.935
REMARK  5 active torsions:
REMARK  status: ('A' for Active; 'I' for Inactive)
REMARK    1  A    between atoms: N_1  and  C_2 
REMARK    2  A    between atoms: C_2  and  C_3 
REMARK    3  A    between atoms: C_2  and  C_12 
REMARK    4  A    between atoms: C_3  and  C_4 
REMARK    5  A    between atoms: C_17  and  C_23 
ROOT
HETATM    1  C   UNL     1      -6.140   1.957 -31.662  1.00  0.00     0.141 A 
HETATM    2  N   UNL     1      -6.868   0.908 -31.883  1.00  0.00    -0.232 NA
HETATM    3  C   UNL     1      -8.193   1.109 -32.308  1.00  0.00     0.074 A 
HETATM    4  C   UNL     1      -8.981  -0.004 -32.598  1.00  0.00     0.033 A 
HETATM    5  C   UNL     1     -10.297   0.153 -33.050  1.00  0.00     0.014 A 
HETATM    6  C   UNL     1     -10.853   1.431 -33.219  1.00  0.00    -0.022 A 
HETATM    7  C   UNL     1     -10.065   2.550 -32.924  1.00  0.00     0.031 A 
HETATM    8  C   UNL     1      -8.751   2.379 -32.474  1.00  0.00     0.061 A 
HETATM    9  C   UNL     1      -7.898   3.541 -32.172  1.00  0.00     0.259 A 
HETATM   10  O   UNL     1      -8.299   4.691 -32.284  1.00  0.00    -0.267 OA
HETATM   11  N   UNL     1      -6.626   3.236 -31.768  1.00  0.00    -0.309 N 
HETATM   12  H   UNL     1      -5.985   3.996 -31.567  1.00  0.00     0.170 HD
ENDROOT
BRANCH   1  13
HETATM   13  C   UNL     1      -4.681   1.859 -31.193  1.00  0.00     0.291 C 
BRANCH  13  14
HETATM   14  N   UNL     1      -4.276   3.147 -30.573  1.00  0.00     0.090 N 
HETATM   15  H   UNL     1      -4.556   3.908 -31.198  1.00  0.00     0.313 HD
HETATM   16  H   UNL     1      -3.256   3.188 -30.548  1.00  0.00     0.313 HD
ENDBRANCH  13  14
BRANCH  13  17
HETATM   17  C   UNL     1      -3.714   1.363 -32.289  1.00  0.00     0.082 C 
BRANCH  17  18
HETATM   18  C   UNL     1      -3.694  -0.135 -32.516  1.00  0.00    -0.053 A 
HETATM   19  C   UNL     1      -3.000  -0.981 -31.635  1.00  0.00     0.010 A 
HETATM   20  C   UNL     1      -2.991  -2.365 -31.833  1.00  0.00     0.046 A 
HETATM   21  C   UNL     1      -3.670  -2.908 -32.916  1.00  0.00     0.154 A 
HETATM   22  F   UNL     1      -3.661  -4.235 -33.102  1.00  0.00    -0.203 F 
HETATM   23  C   UNL     1      -4.351  -2.082 -33.800  1.00  0.00     0.155 A 
HETATM   24  F   UNL     1      -5.007  -2.605 -34.846  1.00  0.00    -0.203 F 
HETATM   25  C   UNL     1      -4.366  -0.701 -33.610  1.00  0.00     0.052 A 
ENDBRANCH  17  18
ENDBRANCH  13  17
ENDBRANCH   1  13
BRANCH   6  26
HETATM   26  C   UNL     1     -12.214   1.576 -33.707  1.00  0.00     0.010 A 
HETATM   27  C   UNL     1     -13.077   0.647 -34.337  1.00  0.00     0.152 A 
HETATM   28  N   UNL     1     -14.272   1.165 -34.631  1.00  0.00    -0.187 NA
HETATM   29  N   UNL     1     -14.182   2.430 -34.190  1.00  0.00    -0.289 N 
HETATM   30  H   UNL     1     -14.986   3.038 -34.303  1.00  0.00     0.188 HD
HETATM   31  C   UNL     1     -12.974   2.724 -33.627  1.00  0.00     0.123 A 
ENDBRANCH   6  26
TORSDOF 5
ENDMDL
MODEL 8
REMARK VINA RESULT:      -8.3      3.413      4.386
REMARK  5 active torsions:
REMARK  status: ('A' for Active; 'I' for Inactive)
REMARK    1  A    between atoms: N_1  and  C_2 
REMARK    2  A    between atoms: C_2  and  C_3 
REMARK    3  A    between atoms: C_2  and  C_12 
REMARK    4  A    between atoms: C_3  and  C_4 
REMARK    5  A    between atoms: C_17  and  C_23 
ROOT
HETATM    1  C   UNL     1      -4.544   2.796 -31.651  1.00  0.00     0.141 A 
HETATM    2  N   UNL     1      -5.381   2.375 -32.546  1.00  0.00    -0.232 NA
HETATM    3  C   UNL     1      -5.286   1.031 -32.949  1.00  0.00     0.074 A 
HETATM    4  C   UNL     1      -6.205   0.542 -33.876  1.00  0.00     0.033 A 
HETATM    5  C   UNL     1      -6.162  -0.798 -34.283  1.00  0.00     0.014 A 
HETATM    6  C   UNL     1      -5.194  -1.676 -33.771  1.00  0.00    -0.022 A 
HETATM    7  C   UNL     1      -4.266  -1.185 -32.844  1.00  0.00     0.031 A 
HETATM    8  C   UNL     1      -4.321   0.155 -32.445  1.00  0.00     0.061 A 
HETATM    9  C   UNL     1      -3.366   0.690 -31.459  1.00  0.00     0.259 A 
HETATM   10  O   UNL     1      -2.484   0.001 -30.965  1.00  0.00    -0.267 OA
HETATM   11  N   UNL     1      -3.546   2.008 -31.135  1.00  0.00    -0.309 N 
HETATM   12  H   UNL     1      -2.932   2.426 -30.445  1.00  0.00     0.170 HD
ENDROOT
BRANCH   1  13
HETATM   13  C   UNL     1      -4.552   4.244 -31.138  1.00  0.00     0.291 C 
BRANCH  13  14
HETATM   14  N   UNL     1      -3.154   4.731 -31.016  1.00  0.00     0.090 N 
HETATM   15  H   UNL     1      -3.021   5.100 -30.071  1.00  0.00     0.313 HD
HETATM   16  H   UNL     1      -3.036   5.536 -31.633  1.00  0.00     0.313 HD
ENDBRANCH  13  14
BRANCH  13  17
HETATM   17  C   UNL     1      -5.393   4.437 -29.858  1.00  0.00     0.082 C 
BRANCH  17  18
HETATM   18  C   UNL     1      -6.879   4.640 -30.075  1.00  0.00    -0.053 A 
HETATM   19  C   UNL     1      -7.391   5.917 -30.360  1.00  0.00     0.010 A 
HETATM   20  C   UNL     1      -8.759   6.106 -30.575  1.00  0.00     0.046 A 
HETATM   21  C   UNL     1      -9.622   5.020 -30.500  1.00  0.00     0.154 A 
HETATM   22  F   UNL     1     -10.933   5.204 -30.708  1.00  0.00    -0.203 F 
HETATM   23  C   UNL     1      -9.130   3.755 -30.208  1.00  0.00     0.155 A 
HETATM   24  F   UNL     1      -9.963   2.707 -30.135  1.00  0.00    -0.203 F 
HETATM   25  C   UNL     1      -7.768   3.557 -29.993  1.00  0.00     0.052 A 
ENDBRANCH  17  18
ENDBRANCH  13  17
ENDBRANCH   1  13
BRANCH   6  26
HETATM   26  C   UNL     1      -5.175  -3.067 -34.191  1.00  0.00     0.010 A 
HETATM   27  C   UNL     1      -6.142  -3.842 -34.873  1.00  0.00     0.152 A 
HETATM   28  N   UNL     1      -5.744  -5.098 -35.088  1.00  0.00    -0.187 NA
HETATM   29  N   UNL     1      -4.518  -5.135 -34.544  1.00  0.00    -0.289 N 
HETATM   30  H   UNL     1      -3.998  -6.006 -34.584  1.00  0.00     0.188 HD
HETATM   31  C   UNL     1      -4.130  -3.946 -33.997  1.00  0.00     0.123 A 
ENDBRANCH   6  26
TORSDOF 5
ENDMDL
MODEL 9
REMARK VINA RESULT:      -8.3      5.443      8.290
REMARK  5 active torsions:
REMARK  status: ('A' for Active; 'I' for Inactive)
REMARK    1  A    between atoms: N_1  and  C_2 
REMARK    2  A    between atoms: C_2  and  C_3 
REMARK    3  A    between atoms: C_2  and  C_12 
REMARK    4  A    between atoms: C_3  and  C_4 
REMARK    5  A    between atoms: C_17  and  C_23 
ROOT
HETATM    1  C   UNL     1      -7.142   0.765 -31.999  1.00  0.00     0.141 A 
HETATM    2  N   UNL     1      -8.116   0.452 -32.793  1.00  0.00    -0.232 NA
HETATM    3  C   UNL     1      -9.276   1.246 -32.751  1.00  0.00     0.074 A 
HETATM    4  C   UNL     1     -10.319   0.958 -33.630  1.00  0.00     0.033 A 
HETATM    5  C   UNL     1     -11.480   1.742 -33.639  1.00  0.00     0.014 A 
HETATM    6  C   UNL     1     -11.621   2.830 -32.764  1.00  0.00    -0.022 A 
HETATM    7  C   UNL     1     -10.577   3.118 -31.877  1.00  0.00     0.031 A 
HETATM    8  C   UNL     1      -9.422   2.328 -31.880  1.00  0.00     0.061 A 
HETATM    9  C   UNL     1      -8.304   2.622 -30.967  1.00  0.00     0.259 A 
HETATM   10  O   UNL     1      -8.341   3.546 -30.166  1.00  0.00    -0.267 OA
HETATM   11  N   UNL     1      -7.223   1.791 -31.090  1.00  0.00    -0.309 N 
HETATM   12  H   UNL     1      -6.413   1.957 -30.503  1.00  0.00     0.170 HD
ENDROOT
BRANCH   1  13
HETATM   13  C   UNL     1      -5.829  -0.031 -31.956  1.00  0.00     0.291 C 
BRANCH  13  14
HETATM   14  N   UNL     1      -4.892   0.615 -31.001  1.00  0.00     0.090 N 
HETATM   15  H   UNL     1      -4.458   1.415 -31.467  1.00  0.00     0.313 HD
HETATM   16  H   UNL     1      -4.124  -0.031 -30.814  1.00  0.00     0.313 HD
ENDBRANCH  13  14
BRANCH  13  17
HETATM   17  C   UNL     1      -5.220  -0.287 -33.351  1.00  0.00     0.082 C 
BRANCH  17  18
HETATM   18  C   UNL     1      -5.206  -1.733 -33.805  1.00  0.00    -0.053 A 
HETATM   19  C   UNL     1      -6.295  -2.270 -34.512  1.00  0.00     0.010 A 
HETATM   20  C   UNL     1      -6.281  -3.599 -34.944  1.00  0.00     0.046 A 
HETATM   21  C   UNL     1      -5.180  -4.399 -34.667  1.00  0.00     0.154 A 
HETATM   22  F   UNL     1      -5.168  -5.672 -35.084  1.00  0.00    -0.203 F 
HETATM   23  C   UNL     1      -4.102  -3.883 -33.959  1.00  0.00     0.155 A 
HETATM   24  F   UNL     1      -3.039  -4.655 -33.691  1.00  0.00    -0.203 F 
HETATM   25  C   UNL     1      -4.107  -2.560 -33.525  1.00  0.00     0.052 A 
ENDBRANCH  17  18
ENDBRANCH  13  17
ENDBRANCH   1  13
BRANCH   6  26
HETATM   26  C   UNL     1     -12.825   3.643 -32.800  1.00  0.00     0.010 A 
HETATM   27  C   UNL     1     -14.049   3.517 -32.101  1.00  0.00     0.152 A 
HETATM   28  N   UNL     1     -14.922   4.481 -32.404  1.00  0.00    -0.187 NA
HETATM   29  N   UNL     1     -14.261   5.232 -33.299  1.00  0.00    -0.289 N 
HETATM   30  H   UNL     1     -14.728   6.046 -33.684  1.00  0.00     0.188 HD
HETATM   31  C   UNL     1     -13.003   4.775 -33.567  1.00  0.00     0.123 A 
ENDBRANCH   6  26
TORSDOF 5
ENDMDL
MODEL 10
REMARK VINA RESULT:      -8.2      3.800      8.154
REMARK  5 active torsions:
REMARK  status: ('A' for Active; 'I' for Inactive)
REMARK    1  A    between atoms: N_1  and  C_2 
REMARK    2  A    between atoms: C_2  and  C_3 
REMARK    3  A    between atoms: C_2  and  C_12 
REMARK    4  A    between atoms: C_3  and  C_4 
REMARK    5  A    between atoms: C_17  and  C_23 
ROOT
HETATM    1  C   UNL     1      -6.954   1.671 -33.324  1.00  0.00     0.141 A 
HETATM    2  N   UNL     1      -6.530   2.569 -34.155  1.00  0.00    -0.232 NA
HETATM    3  C   UNL     1      -5.656   3.555 -33.662  1.00  0.00     0.074 A 
HETATM    4  C   UNL     1      -5.149   4.505 -34.547  1.00  0.00     0.033 A 
HETATM    5  C   UNL     1      -4.255   5.487 -34.102  1.00  0.00     0.014 A 
HETATM    6  C   UNL     1      -3.852   5.540 -32.759  1.00  0.00    -0.022 A 
HETATM    7  C   UNL     1      -4.365   4.590 -31.867  1.00  0.00     0.031 A 
HETATM    8  C   UNL     1      -5.256   3.613 -32.325  1.00  0.00     0.061 A 
HETATM    9  C   UNL     1      -5.796   2.594 -31.408  1.00  0.00     0.259 A 
HETATM   10  O   UNL     1      -5.507   2.566 -30.220  1.00  0.00    -0.267 OA
HETATM   11  N   UNL     1      -6.635   1.681 -31.989  1.00  0.00    -0.309 N 
HETATM   12  H   UNL     1      -7.021   0.941 -31.412  1.00  0.00     0.170 HD
ENDROOT
BRANCH   1  13
HETATM   13  C   UNL     1      -7.913   0.548 -33.748  1.00  0.00     0.291 C 
BRANCH  13  14
HETATM   14  N   UNL     1      -8.250  -0.285 -32.565  1.00  0.00     0.090 N 
HETATM   15  H   UNL     1      -8.219  -1.269 -32.842  1.00  0.00     0.313 HD
HETATM   16  H   UNL     1      -9.225  -0.112 -32.315  1.00  0.00     0.313 HD
ENDBRANCH  13  14
BRANCH  13  17
HETATM   17  C   UNL     1      -7.408  -0.266 -34.959  1.00  0.00     0.082 C 
BRANCH  17  18
HETATM   18  C   UNL     1      -6.378  -1.333 -34.648  1.00  0.00    -0.053 A 
HETATM   19  C   UNL     1      -5.171  -0.996 -34.011  1.00  0.00     0.010 A 
HETATM   20  C   UNL     1      -4.224  -1.979 -33.710  1.00  0.00     0.046 A 
HETATM   21  C   UNL     1      -4.477  -3.302 -34.049  1.00  0.00     0.154 A 
HETATM   22  F   UNL     1      -3.568  -4.243 -33.758  1.00  0.00    -0.203 F 
HETATM   23  C   UNL     1      -5.660  -3.646 -34.688  1.00  0.00     0.155 A 
HETATM   24  F   UNL     1      -5.905  -4.923 -35.017  1.00  0.00    -0.203 F 
HETATM   25  C   UNL     1      -6.610  -2.673 -34.992  1.00  0.00     0.052 A 
ENDBRANCH  17  18
ENDBRANCH  13  17
ENDBRANCH   1  13
BRANCH   6  26
HETATM   26  C   UNL     1      -2.910   6.555 -32.319  1.00  0.00     0.010 A 
HETATM   27  C   UNL     1      -2.141   7.487 -33.055  1.00  0.00     0.152 A 
HETATM   28  N   UNL     1      -1.390   8.270 -32.277  1.00  0.00    -0.187 NA
HETATM   29  N   UNL     1      -1.674   7.845 -31.037  1.00  0.00    -0.289 N 
HETATM   30  H   UNL     1      -1.215   8.299 -30.254  1.00  0.00     0.188 HD
HETATM   31  C   UNL     1      -2.580   6.824 -31.007  1.00  0.00     0.123 A 
ENDBRANCH   6  26
TORSDOF 5
ENDMDL
