MODEL 1
REMARK VINA RESULT:      -9.4      0.000      0.000
REMARK  5 active torsions:
REMARK  status: ('A' for Active; 'I' for Inactive)
REMARK    1  A    between atoms: C_9  and  N_10 
REMARK       I    between atoms: N_10  and  C_11 
REMARK    2  A    between atoms: C_11  and  C_12 
REMARK    3  A    between atoms: C_14  and  O_15 
REMARK    4  A    between atoms: O_15  and  C_16 
REMARK    5  A    between atoms: C_16  and  C_17 
ROOT
HETATM    1  C   UNL     1      -5.956  -2.288 -34.718  1.00  0.00    -0.013 A 
HETATM    2  C   UNL     1      -4.711  -2.387 -34.066  1.00  0.00     0.053 A 
HETATM    3  C   UNL     1      -4.005  -1.219 -33.614  1.00  0.00     0.100 C 
HETATM    4  N   UNL     1      -3.444  -0.276 -33.234  1.00  0.00    -0.191 NA
HETATM    5  C   UNL     1      -4.137  -3.646 -33.838  1.00  0.00     0.023 A 
HETATM    6  C   UNL     1      -4.791  -4.806 -34.254  1.00  0.00     0.002 A 
HETATM    7  C   UNL     1      -6.019  -4.715 -34.903  1.00  0.00     0.001 A 
HETATM    8  C   UNL     1      -6.599  -3.467 -35.135  1.00  0.00     0.011 A 
ENDROOT
BRANCH   1   9
HETATM    9  C   UNL     1      -6.610  -0.950 -34.982  1.00  0.00     0.216 C 
BRANCH   9  10
HETATM   10  O   UNL     1      -7.507  -0.674 -33.909  1.00  0.00    -0.347 OA
BRANCH  10  11
HETATM   11  C   UNL     1      -7.882   0.628 -33.728  1.00  0.00     0.070 A 
HETATM   12  C   UNL     1      -6.827   1.544 -33.720  1.00  0.00     0.053 A 
HETATM   13  C   UNL     1      -7.069   2.913 -33.553  1.00  0.00     0.035 A 
HETATM   14  C   UNL     1      -8.386   3.368 -33.422  1.00  0.00     0.017 A 
HETATM   15  C   UNL     1      -9.442   2.456 -33.431  1.00  0.00     0.004 A 
HETATM   16  C   UNL     1      -9.191   1.089 -33.582  1.00  0.00     0.037 A 
BRANCH  13  17
HETATM   17  C   UNL     1      -5.909   3.849 -33.586  1.00  0.00     0.256 C 
HETATM   18  N   UNL     1      -4.860   3.531 -32.738  1.00  0.00    -0.323 N 
HETATM   19  H   UNL     1      -4.904   2.634 -32.271  1.00  0.00     0.169 HD
HETATM   20  O   UNL     1      -5.954   4.813 -34.342  1.00  0.00    -0.267 OA
BRANCH  18  21
HETATM   21  C   UNL     1      -3.718   4.316 -32.469  1.00  0.00     0.035 A 
HETATM   22  C   UNL     1      -3.583   5.114 -31.329  1.00  0.00     0.039 A 
HETATM   23  C   UNL     1      -2.399   5.809 -31.132  1.00  0.00    -0.022 A 
HETATM   24  C   UNL     1      -2.037   6.676 -29.977  1.00  0.00     0.274 C 
HETATM   25  C   UNL     1      -1.344   5.720 -32.040  1.00  0.00    -0.025 A 
HETATM   26  N   UNL     1      -0.711   7.315 -30.379  1.00  0.00    -0.067 N 
HETATM   27  C   UNL     1       0.248   7.491 -29.257  1.00  0.00     0.270 C 
HETATM   28  H   UNL     1      -0.953   8.239 -30.757  1.00  0.00     0.280 HD
HETATM   29  C   UNL     1      -0.175   6.507 -31.555  1.00  0.00     0.273 C 
HETATM   30  C   UNL     1      -1.458   4.944 -33.180  1.00  0.00     0.012 A 
HETATM   31  C   UNL     1      -2.655   4.247 -33.392  1.00  0.00     0.030 A 
ENDBRANCH  18  21
ENDBRANCH  13  17
ENDBRANCH  10  11
ENDBRANCH   9  10
ENDBRANCH   1   9
TORSDOF 5
ENDMDL
MODEL 2
REMARK VINA RESULT:      -9.1      1.331      1.903
REMARK  5 active torsions:
REMARK  status: ('A' for Active; 'I' for Inactive)
REMARK    1  A    between atoms: C_9  and  N_10 
REMARK       I    between atoms: N_10  and  C_11 
REMARK    2  A    between atoms: C_11  and  C_12 
REMARK    3  A    between atoms: C_14  and  O_15 
REMARK    4  A    between atoms: O_15  and  C_16 
REMARK    5  A    between atoms: C_16  and  C_17 
ROOT
HETATM    1  C   UNL     1      -4.967  -2.218 -33.722  1.00  0.00    -0.013 A 
HETATM    2  C   UNL     1      -4.767  -3.599 -33.919  1.00  0.00     0.053 A 
HETATM    3  C   UNL     1      -5.543  -4.343 -34.874  1.00  0.00     0.100 C 
HETATM    4  N   UNL     1      -6.158  -4.939 -35.657  1.00  0.00    -0.191 NA
HETATM    5  C   UNL     1      -3.787  -4.278 -33.179  1.00  0.00     0.023 A 
HETATM    6  C   UNL     1      -3.007  -3.594 -32.246  1.00  0.00     0.002 A 
HETATM    7  C   UNL     1      -3.203  -2.231 -32.044  1.00  0.00     0.001 A 
HETATM    8  C   UNL     1      -4.176  -1.546 -32.775  1.00  0.00     0.011 A 
ENDROOT
BRANCH   1   9
HETATM    9  C   UNL     1      -6.012  -1.450 -34.501  1.00  0.00     0.216 C 
BRANCH   9  10
HETATM   10  O   UNL     1      -7.061  -1.093 -33.605  1.00  0.00    -0.347 OA
BRANCH  10  11
HETATM   11  C   UNL     1      -7.588   0.162 -33.729  1.00  0.00     0.070 A 
HETATM   12  C   UNL     1      -6.654   1.198 -33.644  1.00  0.00     0.053 A 
HETATM   13  C   UNL     1      -7.055   2.534 -33.763  1.00  0.00     0.035 A 
HETATM   14  C   UNL     1      -8.403   2.830 -33.998  1.00  0.00     0.017 A 
HETATM   15  C   UNL     1      -9.337   1.798 -34.084  1.00  0.00     0.004 A 
HETATM   16  C   UNL     1      -8.932   0.467 -33.948  1.00  0.00     0.037 A 
BRANCH  13  17
HETATM   17  C   UNL     1      -6.012   3.598 -33.699  1.00  0.00     0.256 C 
HETATM   18  N   UNL     1      -4.883   3.284 -32.958  1.00  0.00    -0.323 N 
HETATM   19  H   UNL     1      -4.797   2.328 -32.637  1.00  0.00     0.169 HD
HETATM   20  O   UNL     1      -6.212   4.652 -34.291  1.00  0.00    -0.267 OA
BRANCH  18  21
HETATM   21  C   UNL     1      -3.822   4.151 -32.619  1.00  0.00     0.035 A 
HETATM   22  C   UNL     1      -3.847   5.003 -31.512  1.00  0.00     0.039 A 
HETATM   23  C   UNL     1      -2.733   5.780 -31.235  1.00  0.00    -0.022 A 
HETATM   24  C   UNL     1      -2.539   6.716 -30.095  1.00  0.00     0.274 C 
HETATM   25  C   UNL     1      -1.590   5.721 -32.033  1.00  0.00    -0.025 A 
HETATM   26  N   UNL     1      -1.220   7.422 -30.398  1.00  0.00    -0.067 N 
HETATM   27  C   UNL     1      -0.389   7.706 -29.198  1.00  0.00     0.270 C 
HETATM   28  H   UNL     1      -1.477   8.311 -30.841  1.00  0.00     0.280 HD
HETATM   29  C   UNL     1      -0.523   6.600 -31.476  1.00  0.00     0.273 C 
HETATM   30  C   UNL     1      -1.543   4.891 -33.139  1.00  0.00     0.012 A 
HETATM   31  C   UNL     1      -2.670   4.111 -33.431  1.00  0.00     0.030 A 
ENDBRANCH  18  21
ENDBRANCH  13  17
ENDBRANCH  10  11
ENDBRANCH   9  10
ENDBRANCH   1   9
TORSDOF 5
ENDMDL
MODEL 3
REMARK VINA RESULT:      -8.9      2.145      8.240
REMARK  5 active torsions:
REMARK  status: ('A' for Active; 'I' for Inactive)
REMARK    1  A    between atoms: C_9  and  N_10 
REMARK       I    between atoms: N_10  and  C_11 
REMARK    2  A    between atoms: C_11  and  C_12 
REMARK    3  A    between atoms: C_14  and  O_15 
REMARK    4  A    between atoms: O_15  and  C_16 
REMARK    5  A    between atoms: C_16  and  C_17 
ROOT
HETATM    1  C   UNL     1      -2.961   6.220 -32.620  1.00  0.00    -0.013 A 
HETATM    2  C   UNL     1      -2.168   5.171 -32.112  1.00  0.00     0.053 A 
HETATM    3  C   UNL     1      -2.643   3.814 -32.090  1.00  0.00     0.100 C 
HETATM    4  N   UNL     1      -3.020   2.716 -32.088  1.00  0.00    -0.191 NA
HETATM    5  C   UNL     1      -0.882   5.438 -31.620  1.00  0.00     0.023 A 
HETATM    6  C   UNL     1      -0.380   6.740 -31.628  1.00  0.00     0.002 A 
HETATM    7  C   UNL     1      -1.158   7.781 -32.124  1.00  0.00     0.001 A 
HETATM    8  C   UNL     1      -2.440   7.526 -32.616  1.00  0.00     0.011 A 
ENDROOT
BRANCH   1   9
HETATM    9  C   UNL     1      -4.352   5.973 -33.161  1.00  0.00     0.216 C 
BRANCH   9  10
HETATM   10  O   UNL     1      -5.280   6.669 -32.333  1.00  0.00    -0.347 OA
BRANCH  10  11
HETATM   11  C   UNL     1      -6.130   5.912 -31.577  1.00  0.00     0.070 A 
HETATM   12  C   UNL     1      -6.167   4.558 -31.918  1.00  0.00     0.053 A 
HETATM   13  C   UNL     1      -6.989   3.666 -31.219  1.00  0.00     0.035 A 
HETATM   14  C   UNL     1      -7.759   4.134 -30.147  1.00  0.00     0.017 A 
HETATM   15  C   UNL     1      -7.724   5.486 -29.804  1.00  0.00     0.004 A 
HETATM   16  C   UNL     1      -6.913   6.374 -30.518  1.00  0.00     0.037 A 
BRANCH  13  17
HETATM   17  C   UNL     1      -6.964   2.225 -31.603  1.00  0.00     0.256 C 
HETATM   18  N   UNL     1      -6.065   1.890 -32.604  1.00  0.00    -0.323 N 
HETATM   19  H   UNL     1      -5.415   2.608 -32.895  1.00  0.00     0.169 HD
HETATM   20  O   UNL     1      -7.716   1.450 -31.023  1.00  0.00    -0.267 OA
BRANCH  18  21
HETATM   21  C   UNL     1      -5.941   0.641 -33.249  1.00  0.00     0.035 A 
HETATM   22  C   UNL     1      -4.977  -0.311 -32.906  1.00  0.00     0.039 A 
HETATM   23  C   UNL     1      -4.970  -1.530 -33.567  1.00  0.00    -0.022 A 
HETATM   24  C   UNL     1      -4.062  -2.686 -33.332  1.00  0.00     0.274 C 
HETATM   25  C   UNL     1      -5.908  -1.826 -34.556  1.00  0.00    -0.025 A 
HETATM   26  N   UNL     1      -4.389  -3.665 -34.455  1.00  0.00    -0.067 N 
HETATM   27  C   UNL     1      -4.336  -5.095 -34.054  1.00  0.00     0.270 C 
HETATM   28  H   UNL     1      -3.683  -3.498 -35.182  1.00  0.00     0.280 HD
HETATM   29  C   UNL     1      -5.719  -3.218 -35.051  1.00  0.00     0.273 C 
HETATM   30  C   UNL     1      -6.867  -0.897 -34.920  1.00  0.00     0.012 A 
HETATM   31  C   UNL     1      -6.874   0.342 -34.263  1.00  0.00     0.030 A 
ENDBRANCH  18  21
ENDBRANCH  13  17
ENDBRANCH  10  11
ENDBRANCH   9  10
ENDBRANCH   1   9
TORSDOF 5
ENDMDL
MODEL 4
REMARK VINA RESULT:      -8.9      3.045      9.044
REMARK  5 active torsions:
REMARK  status: ('A' for Active; 'I' for Inactive)
REMARK    1  A    between atoms: C_9  and  N_10 
REMARK       I    between atoms: N_10  and  C_11 
REMARK    2  A    between atoms: C_11  and  C_12 
REMARK    3  A    between atoms: C_14  and  O_15 
REMARK    4  A    between atoms: O_15  and  C_16 
REMARK    5  A    between atoms: C_16  and  C_17 
ROOT
HETATM    1  C   UNL     1      -2.545   4.524 -32.358  1.00  0.00    -0.013 A 
HETATM    2  C   UNL     1      -2.424   5.404 -33.452  1.00  0.00     0.053 A 
HETATM    3  C   UNL     1      -3.310   5.325 -34.582  1.00  0.00     0.100 C 
HETATM    4  N   UNL     1      -4.037   5.271 -35.486  1.00  0.00    -0.191 NA
HETATM    5  C   UNL     1      -1.426   6.390 -33.453  1.00  0.00     0.023 A 
HETATM    6  C   UNL     1      -0.549   6.506 -32.374  1.00  0.00     0.002 A 
HETATM    7  C   UNL     1      -0.660   5.638 -31.292  1.00  0.00     0.001 A 
HETATM    8  C   UNL     1      -1.649   4.653 -31.283  1.00  0.00     0.011 A 
ENDROOT
BRANCH   1   9
HETATM    9  C   UNL     1      -3.608   3.449 -32.319  1.00  0.00     0.216 C 
BRANCH   9  10
HETATM   10  O   UNL     1      -2.957   2.181 -32.289  1.00  0.00    -0.347 OA
BRANCH  10  11
HETATM   11  C   UNL     1      -3.736   1.075 -32.484  1.00  0.00     0.070 A 
HETATM   12  C   UNL     1      -5.109   1.297 -32.348  1.00  0.00     0.053 A 
HETATM   13  C   UNL     1      -6.024   0.252 -32.530  1.00  0.00     0.035 A 
HETATM   14  C   UNL     1      -5.556  -1.020 -32.881  1.00  0.00     0.017 A 
HETATM   15  C   UNL     1      -4.185  -1.243 -33.018  1.00  0.00     0.004 A 
HETATM   16  C   UNL     1      -3.277  -0.200 -32.819  1.00  0.00     0.037 A 
BRANCH  13  17
HETATM   17  C   UNL     1      -7.479   0.552 -32.406  1.00  0.00     0.256 C 
HETATM   18  N   UNL     1      -8.088   1.041 -33.552  1.00  0.00    -0.323 N 
HETATM   19  H   UNL     1      -7.539   1.028 -34.402  1.00  0.00     0.169 HD
HETATM   20  O   UNL     1      -8.031   0.351 -31.330  1.00  0.00    -0.267 OA
BRANCH  18  21
HETATM   21  C   UNL     1      -9.404   1.535 -33.669  1.00  0.00     0.035 A 
HETATM   22  C   UNL     1     -10.538   0.717 -33.658  1.00  0.00     0.039 A 
HETATM   23  C   UNL     1     -11.792   1.305 -33.728  1.00  0.00    -0.022 A 
HETATM   24  C   UNL     1     -13.116   0.627 -33.693  1.00  0.00     0.274 C 
HETATM   25  C   UNL     1     -11.942   2.690 -33.800  1.00  0.00    -0.025 A 
HETATM   26  N   UNL     1     -14.123   1.734 -33.987  1.00  0.00    -0.067 N 
HETATM   27  C   UNL     1     -15.398   1.618 -33.234  1.00  0.00     0.270 C 
HETATM   28  H   UNL     1     -14.324   1.665 -34.992  1.00  0.00     0.280 HD
HETATM   29  C   UNL     1     -13.387   3.056 -33.796  1.00  0.00     0.273 C 
HETATM   30  C   UNL     1     -10.835   3.520 -33.821  1.00  0.00     0.012 A 
HETATM   31  C   UNL     1      -9.564   2.933 -33.761  1.00  0.00     0.030 A 
ENDBRANCH  18  21
ENDBRANCH  13  17
ENDBRANCH  10  11
ENDBRANCH   9  10
ENDBRANCH   1   9
TORSDOF 5
ENDMDL
MODEL 5
REMARK VINA RESULT:      -8.7      2.174      9.136
REMARK  5 active torsions:
REMARK  status: ('A' for Active; 'I' for Inactive)
REMARK    1  A    between atoms: C_9  and  N_10 
REMARK       I    between atoms: N_10  and  C_11 
REMARK    2  A    between atoms: C_11  and  C_12 
REMARK    3  A    between atoms: C_14  and  O_15 
REMARK    4  A    between atoms: O_15  and  C_16 
REMARK    5  A    between atoms: C_16  and  C_17 
ROOT
HETATM    1  C   UNL     1      -1.805   7.535 -30.801  1.00  0.00    -0.013 A 
HETATM    2  C   UNL     1      -0.764   7.074 -31.631  1.00  0.00     0.053 A 
HETATM    3  C   UNL     1      -0.911   7.021 -33.061  1.00  0.00     0.100 C 
HETATM    4  N   UNL     1      -1.025   6.995 -34.216  1.00  0.00    -0.191 NA
HETATM    5  C   UNL     1       0.452   6.659 -31.068  1.00  0.00     0.023 A 
HETATM    6  C   UNL     1       0.639   6.700 -29.686  1.00  0.00     0.002 A 
HETATM    7  C   UNL     1      -0.385   7.151 -28.859  1.00  0.00     0.001 A 
HETATM    8  C   UNL     1      -1.600   7.565 -29.410  1.00  0.00     0.011 A 
ENDROOT
BRANCH   1   9
HETATM    9  C   UNL     1      -3.130   7.992 -31.368  1.00  0.00     0.216 C 
BRANCH   9  10
HETATM   10  O   UNL     1      -3.759   6.872 -31.985  1.00  0.00    -0.347 OA
BRANCH  10  11
HETATM   11  C   UNL     1      -4.541   6.081 -31.191  1.00  0.00     0.070 A 
HETATM   12  C   UNL     1      -4.570   4.733 -31.558  1.00  0.00     0.053 A 
HETATM   13  C   UNL     1      -5.324   3.807 -30.826  1.00  0.00     0.035 A 
HETATM   14  C   UNL     1      -6.031   4.236 -29.696  1.00  0.00     0.017 A 
HETATM   15  C   UNL     1      -6.003   5.581 -29.327  1.00  0.00     0.004 A 
HETATM   16  C   UNL     1      -5.262   6.502 -30.073  1.00  0.00     0.037 A 
BRANCH  13  17
HETATM   17  C   UNL     1      -5.291   2.376 -31.242  1.00  0.00     0.256 C 
HETATM   18  N   UNL     1      -5.766   2.114 -32.518  1.00  0.00    -0.323 N 
HETATM   19  H   UNL     1      -5.967   2.913 -33.104  1.00  0.00     0.169 HD
HETATM   20  O   UNL     1      -4.857   1.545 -30.452  1.00  0.00    -0.267 OA
BRANCH  18  21
HETATM   21  C   UNL     1      -5.979   0.846 -33.100  1.00  0.00     0.035 A 
HETATM   22  C   UNL     1      -4.967  -0.104 -33.270  1.00  0.00     0.039 A 
HETATM   23  C   UNL     1      -5.289  -1.341 -33.807  1.00  0.00    -0.022 A 
HETATM   24  C   UNL     1      -4.380  -2.497 -34.035  1.00  0.00     0.274 C 
HETATM   25  C   UNL     1      -6.598  -1.657 -34.170  1.00  0.00    -0.025 A 
HETATM   26  N   UNL     1      -5.226  -3.505 -34.806  1.00  0.00    -0.067 N 
HETATM   27  C   UNL     1      -4.965  -4.923 -34.447  1.00  0.00     0.270 C 
HETATM   28  H   UNL     1      -4.991  -3.364 -35.795  1.00  0.00     0.280 HD
HETATM   29  C   UNL     1      -6.677  -3.065 -34.653  1.00  0.00     0.273 C 
HETATM   30  C   UNL     1      -7.616  -0.731 -34.020  1.00  0.00     0.012 A 
HETATM   31  C   UNL     1      -7.296   0.525 -33.487  1.00  0.00     0.030 A 
ENDBRANCH  18  21
ENDBRANCH  13  17
ENDBRANCH  10  11
ENDBRANCH   9  10
ENDBRANCH   1   9
TORSDOF 5
ENDMDL
MODEL 6
REMARK VINA RESULT:      -8.7      2.214      8.274
REMARK  5 active torsions:
REMARK  status: ('A' for Active; 'I' for Inactive)
REMARK    1  A    between atoms: C_9  and  N_10 
REMARK       I    between atoms: N_10  and  C_11 
REMARK    2  A    between atoms: C_11  and  C_12 
REMARK    3  A    between atoms: C_14  and  O_15 
REMARK    4  A    between atoms: O_15  and  C_16 
REMARK    5  A    between atoms: C_16  and  C_17 
ROOT
HETATM    1  C   UNL     1      -2.986   5.962 -32.239  1.00  0.00    -0.013 A 
HETATM    2  C   UNL     1      -2.236   7.080 -32.655  1.00  0.00     0.053 A 
HETATM    3  C   UNL     1      -2.305   8.334 -31.955  1.00  0.00     0.100 C 
HETATM    4  N   UNL     1      -2.348   9.341 -31.379  1.00  0.00    -0.191 NA
HETATM    5  C   UNL     1      -1.392   6.983 -33.772  1.00  0.00     0.023 A 
HETATM    6  C   UNL     1      -1.291   5.783 -34.477  1.00  0.00     0.002 A 
HETATM    7  C   UNL     1      -2.032   4.676 -34.074  1.00  0.00     0.001 A 
HETATM    8  C   UNL     1      -2.874   4.763 -32.965  1.00  0.00     0.011 A 
ENDROOT
BRANCH   1   9
HETATM    9  C   UNL     1      -3.905   6.025 -31.040  1.00  0.00     0.216 C 
BRANCH   9  10
HETATM   10  O   UNL     1      -5.139   6.604 -31.456  1.00  0.00    -0.347 OA
BRANCH  10  11
HETATM   11  C   UNL     1      -6.281   5.905 -31.181  1.00  0.00     0.070 A 
HETATM   12  C   UNL     1      -6.235   4.552 -31.529  1.00  0.00     0.053 A 
HETATM   13  C   UNL     1      -7.333   3.715 -31.295  1.00  0.00     0.035 A 
HETATM   14  C   UNL     1      -8.476   4.236 -30.677  1.00  0.00     0.017 A 
HETATM   15  C   UNL     1      -8.524   5.586 -30.327  1.00  0.00     0.004 A 
HETATM   16  C   UNL     1      -7.430   6.419 -30.580  1.00  0.00     0.037 A 
BRANCH  13  17
HETATM   17  C   UNL     1      -7.217   2.273 -31.655  1.00  0.00     0.256 C 
HETATM   18  N   UNL     1      -6.297   1.977 -32.648  1.00  0.00    -0.323 N 
HETATM   19  H   UNL     1      -5.691   2.730 -32.950  1.00  0.00     0.169 HD
HETATM   20  O   UNL     1      -7.922   1.462 -31.065  1.00  0.00    -0.267 OA
BRANCH  18  21
HETATM   21  C   UNL     1      -6.094   0.728 -33.272  1.00  0.00     0.035 A 
HETATM   22  C   UNL     1      -5.059  -0.147 -32.928  1.00  0.00     0.039 A 
HETATM   23  C   UNL     1      -4.976  -1.374 -33.567  1.00  0.00    -0.022 A 
HETATM   24  C   UNL     1      -3.985  -2.459 -33.324  1.00  0.00     0.274 C 
HETATM   25  C   UNL     1      -5.905  -1.754 -34.536  1.00  0.00    -0.025 A 
HETATM   26  N   UNL     1      -4.257  -3.480 -34.425  1.00  0.00    -0.067 N 
HETATM   27  C   UNL     1      -4.098  -4.895 -33.999  1.00  0.00     0.270 C 
HETATM   28  H   UNL     1      -3.575  -3.277 -35.165  1.00  0.00     0.280 HD
HETATM   29  C   UNL     1      -5.624  -3.140 -35.008  1.00  0.00     0.273 C 
HETATM   30  C   UNL     1      -6.932  -0.902 -34.900  1.00  0.00     0.012 A 
HETATM   31  C   UNL     1      -7.017   0.345 -34.266  1.00  0.00     0.030 A 
ENDBRANCH  18  21
ENDBRANCH  13  17
ENDBRANCH  10  11
ENDBRANCH   9  10
ENDBRANCH   1   9
TORSDOF 5
ENDMDL
MODEL 7
REMARK VINA RESULT:      -8.5      1.895      2.919
REMARK  5 active torsions:
REMARK  status: ('A' for Active; 'I' for Inactive)
REMARK    1  A    between atoms: C_9  and  N_10 
REMARK       I    between atoms: N_10  and  C_11 
REMARK    2  A    between atoms: C_11  and  C_12 
REMARK    3  A    between atoms: C_14  and  O_15 
REMARK    4  A    between atoms: O_15  and  C_16 
REMARK    5  A    between atoms: C_16  and  C_17 
ROOT
HETATM    1  C   UNL     1      -5.742  -1.104 -33.209  1.00  0.00    -0.013 A 
HETATM    2  C   UNL     1      -4.566  -1.876 -33.287  1.00  0.00     0.053 A 
HETATM    3  C   UNL     1      -3.413  -1.571 -32.484  1.00  0.00     0.100 C 
HETATM    4  N   UNL     1      -2.488  -1.335 -31.823  1.00  0.00    -0.191 NA
HETATM    5  C   UNL     1      -4.504  -2.974 -34.159  1.00  0.00     0.023 A 
HETATM    6  C   UNL     1      -5.602  -3.308 -34.952  1.00  0.00     0.002 A 
HETATM    7  C   UNL     1      -6.766  -2.548 -34.882  1.00  0.00     0.001 A 
HETATM    8  C   UNL     1      -6.837  -1.453 -34.019  1.00  0.00     0.011 A 
ENDROOT
BRANCH   1   9
HETATM    9  C   UNL     1      -5.850   0.086 -32.282  1.00  0.00     0.216 C 
BRANCH   9  10
HETATM   10  O   UNL     1      -4.845   1.028 -32.648  1.00  0.00    -0.347 OA
BRANCH  10  11
HETATM   11  C   UNL     1      -5.260   2.293 -32.959  1.00  0.00     0.070 A 
HETATM   12  C   UNL     1      -4.446   3.313 -32.460  1.00  0.00     0.053 A 
HETATM   13  C   UNL     1      -4.749   4.657 -32.711  1.00  0.00     0.035 A 
HETATM   14  C   UNL     1      -5.863   4.977 -33.495  1.00  0.00     0.017 A 
HETATM   15  C   UNL     1      -6.677   3.960 -33.995  1.00  0.00     0.004 A 
HETATM   16  C   UNL     1      -6.378   2.621 -33.727  1.00  0.00     0.037 A 
BRANCH  13  17
HETATM   17  C   UNL     1      -3.827   5.704 -32.183  1.00  0.00     0.256 C 
HETATM   18  N   UNL     1      -2.746   5.235 -31.453  1.00  0.00    -0.323 N 
HETATM   19  H   UNL     1      -2.596   4.234 -31.449  1.00  0.00     0.169 HD
HETATM   20  O   UNL     1      -4.075   6.880 -32.424  1.00  0.00    -0.267 OA
BRANCH  18  21
HETATM   21  C   UNL     1      -1.813   6.006 -30.728  1.00  0.00     0.035 A 
HETATM   22  C   UNL     1      -2.154   6.790 -29.623  1.00  0.00     0.039 A 
HETATM   23  C   UNL     1      -1.154   7.473 -28.947  1.00  0.00    -0.022 A 
HETATM   24  C   UNL     1      -1.294   8.324 -27.734  1.00  0.00     0.274 C 
HETATM   25  C   UNL     1       0.181   7.385 -29.343  1.00  0.00    -0.025 A 
HETATM   26  N   UNL     1       0.081   8.956 -27.547  1.00  0.00    -0.067 N 
HETATM   27  C   UNL     1       0.495   9.111 -26.128  1.00  0.00     0.270 C 
HETATM   28  H   UNL     1       0.020   9.885 -27.978  1.00  0.00     0.280 HD
HETATM   29  C   UNL     1       1.051   8.156 -28.410  1.00  0.00     0.273 C 
HETATM   30  C   UNL     1       0.543   6.622 -30.440  1.00  0.00     0.012 A 
HETATM   31  C   UNL     1      -0.464   5.938 -31.134  1.00  0.00     0.030 A 
ENDBRANCH  18  21
ENDBRANCH  13  17
ENDBRANCH  10  11
ENDBRANCH   9  10
ENDBRANCH   1   9
TORSDOF 5
ENDMDL
MODEL 8
REMARK VINA RESULT:      -8.4      1.782      4.738
REMARK  5 active torsions:
REMARK  status: ('A' for Active; 'I' for Inactive)
REMARK    1  A    between atoms: C_9  and  N_10 
REMARK       I    between atoms: N_10  and  C_11 
REMARK    2  A    between atoms: C_11  and  C_12 
REMARK    3  A    between atoms: C_14  and  O_15 
REMARK    4  A    between atoms: O_15  and  C_16 
REMARK    5  A    between atoms: C_16  and  C_17 
ROOT
HETATM    1  C   UNL     1      -9.592   1.624 -34.033  1.00  0.00    -0.013 A 
HETATM    2  C   UNL     1      -9.292   2.936 -33.616  1.00  0.00     0.053 A 
HETATM    3  C   UNL     1      -7.958   3.466 -33.708  1.00  0.00     0.100 C 
HETATM    4  N   UNL     1      -6.885   3.900 -33.798  1.00  0.00    -0.191 NA
HETATM    5  C   UNL     1     -10.306   3.759 -33.103  1.00  0.00     0.023 A 
HETATM    6  C   UNL     1     -11.614   3.286 -33.002  1.00  0.00     0.002 A 
HETATM    7  C   UNL     1     -11.918   1.990 -33.408  1.00  0.00     0.001 A 
HETATM    8  C   UNL     1     -10.916   1.163 -33.919  1.00  0.00     0.011 A 
ENDROOT
BRANCH   1   9
HETATM    9  C   UNL     1      -8.529   0.706 -34.592  1.00  0.00     0.216 C 
BRANCH   9  10
HETATM   10  O   UNL     1      -8.119  -0.183 -33.556  1.00  0.00    -0.347 OA
BRANCH  10  11
HETATM   11  C   UNL     1      -6.791  -0.498 -33.494  1.00  0.00     0.070 A 
HETATM   12  C   UNL     1      -5.977   0.505 -32.962  1.00  0.00     0.053 A 
HETATM   13  C   UNL     1      -4.596   0.313 -32.831  1.00  0.00     0.035 A 
HETATM   14  C   UNL     1      -4.032  -0.910 -33.212  1.00  0.00     0.017 A 
HETATM   15  C   UNL     1      -4.842  -1.915 -33.743  1.00  0.00     0.004 A 
HETATM   16  C   UNL     1      -6.218  -1.709 -33.886  1.00  0.00     0.037 A 
BRANCH  13  17
HETATM   17  C   UNL     1      -3.780   1.404 -32.225  1.00  0.00     0.256 C 
HETATM   18  N   UNL     1      -4.068   2.684 -32.672  1.00  0.00    -0.323 N 
HETATM   19  H   UNL     1      -4.884   2.791 -33.262  1.00  0.00     0.169 HD
HETATM   20  O   UNL     1      -2.932   1.109 -31.391  1.00  0.00    -0.267 OA
BRANCH  18  21
HETATM   21  C   UNL     1      -3.358   3.867 -32.374  1.00  0.00     0.035 A 
HETATM   22  C   UNL     1      -3.668   4.700 -31.295  1.00  0.00     0.039 A 
HETATM   23  C   UNL     1      -2.877   5.814 -31.058  1.00  0.00    -0.022 A 
HETATM   24  C   UNL     1      -3.007   6.801 -29.951  1.00  0.00     0.274 C 
HETATM   25  C   UNL     1      -1.779   6.112 -31.866  1.00  0.00    -0.025 A 
HETATM   26  N   UNL     1      -2.000   7.895 -30.292  1.00  0.00    -0.067 N 
HETATM   27  C   UNL     1      -1.312   8.482 -29.112  1.00  0.00     0.270 C 
HETATM   28  H   UNL     1      -2.540   8.631 -30.762  1.00  0.00     0.280 HD
HETATM   29  C   UNL     1      -1.068   7.316 -31.351  1.00  0.00     0.273 C 
HETATM   30  C   UNL     1      -1.458   5.308 -32.945  1.00  0.00     0.012 A 
HETATM   31  C   UNL     1      -2.259   4.186 -33.198  1.00  0.00     0.030 A 
ENDBRANCH  18  21
ENDBRANCH  13  17
ENDBRANCH  10  11
ENDBRANCH   9  10
ENDBRANCH   1   9
TORSDOF 5
ENDMDL
MODEL 9
REMARK VINA RESULT:      -8.4      4.847      8.945
REMARK  5 active torsions:
REMARK  status: ('A' for Active; 'I' for Inactive)
REMARK    1  A    between atoms: C_9  and  N_10 
REMARK       I    between atoms: N_10  and  C_11 
REMARK    2  A    between atoms: C_11  and  C_12 
REMARK    3  A    between atoms: C_14  and  O_15 
REMARK    4  A    between atoms: O_15  and  C_16 
REMARK    5  A    between atoms: C_16  and  C_17 
ROOT
HETATM    1  C   UNL     1      -6.064  -2.161 -34.715  1.00  0.00    -0.013 A 
HETATM    2  C   UNL     1      -4.841  -2.253 -34.021  1.00  0.00     0.053 A 
HETATM    3  C   UNL     1      -4.172  -1.083 -33.520  1.00  0.00     0.100 C 
HETATM    4  N   UNL     1      -3.641  -0.139 -33.102  1.00  0.00    -0.191 NA
HETATM    5  C   UNL     1      -4.253  -3.507 -33.798  1.00  0.00     0.023 A 
HETATM    6  C   UNL     1      -4.872  -4.668 -34.261  1.00  0.00     0.002 A 
HETATM    7  C   UNL     1      -6.077  -4.585 -34.951  1.00  0.00     0.001 A 
HETATM    8  C   UNL     1      -6.670  -3.342 -35.179  1.00  0.00     0.011 A 
ENDROOT
BRANCH   1   9
HETATM    9  C   UNL     1      -6.731  -0.829 -34.975  1.00  0.00     0.216 C 
BRANCH   9  10
HETATM   10  O   UNL     1      -7.804  -0.681 -34.049  1.00  0.00    -0.347 OA
BRANCH  10  11
HETATM   11  C   UNL     1      -8.085   0.585 -33.616  1.00  0.00     0.070 A 
HETATM   12  C   UNL     1      -9.410   0.986 -33.803  1.00  0.00     0.053 A 
HETATM   13  C   UNL     1      -9.838   2.256 -33.398  1.00  0.00     0.035 A 
HETATM   14  C   UNL     1      -8.931   3.120 -32.772  1.00  0.00     0.017 A 
HETATM   15  C   UNL     1      -7.607   2.722 -32.582  1.00  0.00     0.004 A 
HETATM   16  C   UNL     1      -7.184   1.459 -33.005  1.00  0.00     0.037 A 
BRANCH  13  17
HETATM   17  C   UNL     1     -11.271   2.619 -33.591  1.00  0.00     0.256 C 
HETATM   18  N   UNL     1     -12.068   2.525 -32.461  1.00  0.00    -0.323 N 
HETATM   19  H   UNL     1     -11.598   2.350 -31.582  1.00  0.00     0.169 HD
HETATM   20  O   UNL     1     -11.643   2.971 -34.705  1.00  0.00    -0.267 OA
BRANCH  18  21
HETATM   21  C   UNL     1     -13.470   2.668 -32.397  1.00  0.00     0.035 A 
HETATM   22  C   UNL     1     -14.106   3.817 -31.918  1.00  0.00     0.039 A 
HETATM   23  C   UNL     1     -15.491   3.880 -31.944  1.00  0.00    -0.022 A 
HETATM   24  C   UNL     1     -16.357   5.015 -31.522  1.00  0.00     0.274 C 
HETATM   25  C   UNL     1     -16.257   2.827 -32.445  1.00  0.00    -0.025 A 
HETATM   26  N   UNL     1     -17.777   4.462 -31.597  1.00  0.00    -0.067 N 
HETATM   27  C   UNL     1     -18.791   5.444 -32.063  1.00  0.00     0.270 C 
HETATM   28  H   UNL     1     -18.012   4.171 -30.640  1.00  0.00     0.280 HD
HETATM   29  C   UNL     1     -17.705   3.181 -32.419  1.00  0.00     0.273 C 
HETATM   30  C   UNL     1     -15.652   1.676 -32.917  1.00  0.00     0.012 A 
HETATM   31  C   UNL     1     -14.252   1.601 -32.884  1.00  0.00     0.030 A 
ENDBRANCH  18  21
ENDBRANCH  13  17
ENDBRANCH  10  11
ENDBRANCH   9  10
ENDBRANCH   1   9
TORSDOF 5
ENDMDL
MODEL 10
REMARK VINA RESULT:      -8.2      2.926     10.024
REMARK  5 active torsions:
REMARK  status: ('A' for Active; 'I' for Inactive)
REMARK    1  A    between atoms: C_9  and  N_10 
REMARK       I    between atoms: N_10  and  C_11 
REMARK    2  A    between atoms: C_11  and  C_12 
REMARK    3  A    between atoms: C_14  and  O_15 
REMARK    4  A    between atoms: O_15  and  C_16 
REMARK    5  A    between atoms: C_16  and  C_17 
ROOT
HETATM    1  C   UNL     1      -0.611   7.407 -28.445  1.00  0.00    -0.013 A 
HETATM    2  C   UNL     1      -1.035   7.598 -27.115  1.00  0.00     0.053 A 
HETATM    3  C   UNL     1      -2.339   7.183 -26.675  1.00  0.00     0.100 C 
HETATM    4  N   UNL     1      -3.386   6.832 -26.316  1.00  0.00    -0.191 NA
HETATM    5  C   UNL     1      -0.174   8.198 -26.183  1.00  0.00     0.023 A 
HETATM    6  C   UNL     1       1.103   8.610 -26.567  1.00  0.00     0.002 A 
HETATM    7  C   UNL     1       1.526   8.428 -27.879  1.00  0.00     0.001 A 
HETATM    8  C   UNL     1       0.677   7.833 -28.814  1.00  0.00     0.011 A 
ENDROOT
BRANCH   1   9
HETATM    9  C   UNL     1      -1.508   6.763 -29.479  1.00  0.00     0.216 C 
BRANCH   9  10
HETATM   10  O   UNL     1      -1.229   7.360 -30.743  1.00  0.00    -0.347 OA
BRANCH  10  11
HETATM   11  C   UNL     1      -1.448   6.596 -31.855  1.00  0.00     0.070 A 
HETATM   12  C   UNL     1      -2.305   5.510 -31.658  1.00  0.00     0.053 A 
HETATM   13  C   UNL     1      -2.623   4.648 -32.715  1.00  0.00     0.035 A 
HETATM   14  C   UNL     1      -2.098   4.898 -33.989  1.00  0.00     0.017 A 
HETATM   15  C   UNL     1      -1.242   5.983 -34.188  1.00  0.00     0.004 A 
HETATM   16  C   UNL     1      -0.916   6.828 -33.124  1.00  0.00     0.037 A 
BRANCH  13  17
HETATM   17  C   UNL     1      -3.569   3.525 -32.458  1.00  0.00     0.256 C 
HETATM   18  N   UNL     1      -4.697   3.498 -33.263  1.00  0.00    -0.323 N 
HETATM   19  H   UNL     1      -4.724   4.151 -34.036  1.00  0.00     0.169 HD
HETATM   20  O   UNL     1      -3.296   2.718 -31.576  1.00  0.00    -0.267 OA
BRANCH  18  21
HETATM   21  C   UNL     1      -5.810   2.640 -33.136  1.00  0.00     0.035 A 
HETATM   22  C   UNL     1      -7.133   3.091 -33.116  1.00  0.00     0.039 A 
HETATM   23  C   UNL     1      -8.159   2.162 -33.038  1.00  0.00    -0.022 A 
HETATM   24  C   UNL     1      -9.624   2.425 -33.043  1.00  0.00     0.274 C 
HETATM   25  C   UNL     1      -7.898   0.793 -32.988  1.00  0.00    -0.025 A 
HETATM   26  N   UNL     1     -10.258   1.068 -32.752  1.00  0.00    -0.067 N 
HETATM   27  C   UNL     1     -11.527   0.816 -33.486  1.00  0.00     0.270 C 
HETATM   28  H   UNL     1     -10.452   1.063 -31.744  1.00  0.00     0.280 HD
HETATM   29  C   UNL     1      -9.173   0.021 -32.978  1.00  0.00     0.273 C 
HETATM   30  C   UNL     1      -6.597   0.322 -32.997  1.00  0.00     0.012 A 
HETATM   31  C   UNL     1      -5.554   1.255 -33.066  1.00  0.00     0.030 A 
ENDBRANCH  18  21
ENDBRANCH  13  17
ENDBRANCH  10  11
ENDBRANCH   9  10
ENDBRANCH   1   9
TORSDOF 5
ENDMDL
