MODEL 1
REMARK VINA RESULT:      -9.0      0.000      0.000
REMARK  8 active torsions:
REMARK  status: ('A' for Active; 'I' for Inactive)
REMARK    1  A    between atoms: O_2  and  C_3 
REMARK    2  A    between atoms: C_4  and  O_5 
REMARK    3  A    between atoms: C_6  and  O_7 
REMARK    4  A    between atoms: C_10  and  C_11 
REMARK    5  A    between atoms: C_11  and  N_12 
REMARK    6  A    between atoms: C_16  and  C_17 
REMARK       I    between atoms: C_17  and  N_18 
REMARK    7  A    between atoms: N_21  and  C_23 
REMARK    8  A    between atoms: C_23  and  C_24 
ROOT
HETATM    1  N   UNL     1      -4.151   1.021 -31.708  1.00  0.00    -0.067 N 
HETATM    2  H   UNL     1      -3.463   1.567 -31.172  1.00  0.00     0.280 HD
HETATM    3  C   UNL     1      -5.062   1.996 -32.407  1.00  0.00     0.236 C 
HETATM    4  C   UNL     1      -5.873   2.800 -31.391  1.00  0.00     0.042 C 
HETATM    5  C   UNL     1      -6.683   1.902 -30.454  1.00  0.00     0.081 C 
HETATM    6  C   UNL     1      -5.748   0.884 -29.785  1.00  0.00     0.042 C 
HETATM    7  C   UNL     1      -4.866   0.101 -30.750  1.00  0.00     0.236 C 
ENDROOT
BRANCH   5   8
HETATM    8  C   UNL     1      -7.803   1.225 -31.251  1.00  0.00     0.224 C 
HETATM    9  N   UNL     1      -8.956   1.947 -31.566  1.00  0.00    -0.349 N 
HETATM   10  C   UNL     1      -9.948   1.219 -32.376  1.00  0.00     0.153 C 
HETATM   11  C   UNL     1      -9.510   2.985 -30.683  1.00  0.00     0.153 C 
HETATM   12  C   UNL     1     -10.943   2.135 -33.098  1.00  0.00     0.255 C 
HETATM   13  N   UNL     1     -11.608   3.074 -32.104  1.00  0.00    -0.064 N 
HETATM   14  H   UNL     1     -12.124   2.491 -31.432  1.00  0.00     0.280 HD
HETATM   15  C   UNL     1     -10.568   3.887 -31.355  1.00  0.00     0.255 C 
HETATM   16  O   UNL     1      -7.609   0.105 -31.727  1.00  0.00    -0.273 OA
BRANCH  13  17
HETATM   17  C   UNL     1     -12.643   3.985 -32.747  1.00  0.00     0.273 C 
BRANCH  17  18
HETATM   18  C   UNL     1     -14.063   3.533 -32.533  1.00  0.00    -0.030 A 
HETATM   19  C   UNL     1     -15.025   4.451 -32.073  1.00  0.00     0.048 A 
HETATM   20  C   UNL     1     -16.327   4.019 -31.941  1.00  0.00     0.105 A 
HETATM   21  C   UNL     1     -16.698   2.731 -32.237  1.00  0.00     0.105 A 
HETATM   22  O   UNL     1     -17.373   4.782 -31.531  1.00  0.00    -0.323 OA
HETATM   23  O   UNL     1     -18.025   2.520 -32.045  1.00  0.00    -0.323 OA
HETATM   24  C   UNL     1     -15.784   1.801 -32.680  1.00  0.00     0.040 A 
HETATM   25  C   UNL     1     -18.447   3.813 -31.559  1.00  0.00     0.352 A 
HETATM   26  C   UNL     1     -14.454   2.206 -32.830  1.00  0.00     0.012 A 
ENDBRANCH  17  18
ENDBRANCH  13  17
ENDBRANCH   5   8
BRANCH   1  27
HETATM   27  C   UNL     1      -3.340   0.184 -32.693  1.00  0.00     0.273 C 
BRANCH  27  28
HETATM   28  C   UNL     1      -4.150  -0.856 -33.416  1.00  0.00    -0.027 A 
HETATM   29  C   UNL     1      -5.404  -0.521 -33.944  1.00  0.00     0.048 A 
HETATM   30  C   UNL     1      -6.167  -1.487 -34.592  1.00  0.00     0.104 A 
HETATM   31  C   UNL     1      -5.703  -2.798 -34.690  1.00  0.00     0.133 A 
HETATM   32  C   UNL     1      -4.454  -3.156 -34.171  1.00  0.00     0.104 A 
HETATM   33  C   UNL     1      -3.678  -2.179 -33.540  1.00  0.00     0.048 A 
BRANCH  30  34
HETATM   34  O   UNL     1      -7.406  -1.135 -35.048  1.00  0.00    -0.353 OA
HETATM   35  C   UNL     1      -7.461   0.270 -35.303  1.00  0.00     0.210 C 
ENDBRANCH  30  34
BRANCH  31  36
HETATM   36  O   UNL     1      -6.479  -3.743 -35.306  1.00  0.00    -0.356 OA
HETATM   37  H   UNL     1      -6.109  -3.862 -36.202  1.00  0.00     0.218 HD
ENDBRANCH  31  36
BRANCH  32  38
HETATM   38  O   UNL     1      -4.118  -4.474 -34.327  1.00  0.00    -0.353 OA
HETATM   39  C   UNL     1      -3.824  -5.223 -33.155  1.00  0.00     0.210 C 
ENDBRANCH  32  38
ENDBRANCH  27  28
ENDBRANCH   1  27
TORSDOF 8
ENDMDL
MODEL 2
REMARK VINA RESULT:      -8.9      4.734     10.429
REMARK  8 active torsions:
REMARK  status: ('A' for Active; 'I' for Inactive)
REMARK    1  A    between atoms: O_2  and  C_3 
REMARK    2  A    between atoms: C_4  and  O_5 
REMARK    3  A    between atoms: C_6  and  O_7 
REMARK    4  A    between atoms: C_10  and  C_11 
REMARK    5  A    between atoms: C_11  and  N_12 
REMARK    6  A    between atoms: C_16  and  C_17 
REMARK       I    between atoms: C_17  and  N_18 
REMARK    7  A    between atoms: N_21  and  C_23 
REMARK    8  A    between atoms: C_23  and  C_24 
ROOT
HETATM    1  N   UNL     1      -8.659  -0.191 -33.197  1.00  0.00    -0.067 N 
HETATM    2  H   UNL     1      -8.470  -1.179 -33.419  1.00  0.00     0.280 HD
HETATM    3  C   UNL     1      -8.546   0.593 -34.479  1.00  0.00     0.236 C 
HETATM    4  C   UNL     1      -7.113   0.555 -35.011  1.00  0.00     0.042 C 
HETATM    5  C   UNL     1      -6.101   1.071 -33.987  1.00  0.00     0.081 C 
HETATM    6  C   UNL     1      -6.260   0.294 -32.671  1.00  0.00     0.042 C 
HETATM    7  C   UNL     1      -7.684   0.243 -32.131  1.00  0.00     0.236 C 
ENDROOT
BRANCH   5   8
HETATM    8  C   UNL     1      -6.301   2.578 -33.797  1.00  0.00     0.224 C 
HETATM    9  N   UNL     1      -5.205   3.384 -33.484  1.00  0.00    -0.349 N 
HETATM   10  C   UNL     1      -5.496   4.823 -33.373  1.00  0.00     0.153 C 
HETATM   11  C   UNL     1      -4.078   2.909 -32.664  1.00  0.00     0.153 C 
HETATM   12  C   UNL     1      -4.256   5.714 -33.507  1.00  0.00     0.255 C 
HETATM   13  N   UNL     1      -3.188   5.279 -32.515  1.00  0.00    -0.064 N 
HETATM   14  H   UNL     1      -3.581   5.398 -31.572  1.00  0.00     0.280 HD
HETATM   15  C   UNL     1      -2.831   3.817 -32.719  1.00  0.00     0.255 C 
HETATM   16  O   UNL     1      -7.394   3.078 -34.069  1.00  0.00    -0.273 OA
BRANCH  13  17
HETATM   17  C   UNL     1      -1.942   6.150 -32.562  1.00  0.00     0.273 C 
BRANCH  17  18
HETATM   18  C   UNL     1      -1.161   6.158 -31.276  1.00  0.00    -0.030 A 
HETATM   19  C   UNL     1      -1.659   6.858 -30.162  1.00  0.00     0.048 A 
HETATM   20  C   UNL     1      -0.948   6.799 -28.983  1.00  0.00     0.105 A 
HETATM   21  C   UNL     1       0.223   6.091 -28.877  1.00  0.00     0.105 A 
HETATM   22  O   UNL     1      -1.302   7.398 -27.817  1.00  0.00    -0.323 OA
HETATM   23  O   UNL     1       0.757   6.160 -27.631  1.00  0.00    -0.323 OA
HETATM   24  C   UNL     1       0.750   5.402 -29.947  1.00  0.00     0.040 A 
HETATM   25  C   UNL     1      -0.193   7.023 -26.967  1.00  0.00     0.352 A 
HETATM   26  C   UNL     1       0.050   5.436 -31.159  1.00  0.00     0.012 A 
ENDBRANCH  17  18
ENDBRANCH  13  17
ENDBRANCH   5   8
BRANCH   1  27
HETATM   27  C   UNL     1     -10.073  -0.157 -32.625  1.00  0.00     0.273 C 
BRANCH  27  28
HETATM   28  C   UNL     1     -10.940   0.921 -33.214  1.00  0.00    -0.027 A 
HETATM   29  C   UNL     1     -10.575   2.266 -33.071  1.00  0.00     0.048 A 
HETATM   30  C   UNL     1     -11.386   3.267 -33.594  1.00  0.00     0.104 A 
HETATM   31  C   UNL     1     -12.581   2.938 -34.234  1.00  0.00     0.133 A 
HETATM   32  C   UNL     1     -12.966   1.603 -34.390  1.00  0.00     0.104 A 
HETATM   33  C   UNL     1     -12.138   0.597 -33.883  1.00  0.00     0.048 A 
BRANCH  30  34
HETATM   34  O   UNL     1     -11.023   4.569 -33.389  1.00  0.00    -0.353 OA
HETATM   35  C   UNL     1     -10.201   5.029 -34.463  1.00  0.00     0.210 C 
ENDBRANCH  30  34
BRANCH  31  36
HETATM   36  O   UNL     1     -13.383   3.938 -34.718  1.00  0.00    -0.356 OA
HETATM   37  H   UNL     1     -13.975   4.195 -33.985  1.00  0.00     0.218 HD
ENDBRANCH  31  36
BRANCH  32  38
HETATM   38  O   UNL     1     -14.162   1.415 -35.029  1.00  0.00    -0.353 OA
HETATM   39  C   UNL     1     -15.167   0.675 -34.347  1.00  0.00     0.210 C 
ENDBRANCH  32  38
ENDBRANCH  27  28
ENDBRANCH   1  27
TORSDOF 8
ENDMDL
MODEL 3
REMARK VINA RESULT:      -8.9      5.197      9.553
REMARK  8 active torsions:
REMARK  status: ('A' for Active; 'I' for Inactive)
REMARK    1  A    between atoms: O_2  and  C_3 
REMARK    2  A    between atoms: C_4  and  O_5 
REMARK    3  A    between atoms: C_6  and  O_7 
REMARK    4  A    between atoms: C_10  and  C_11 
REMARK    5  A    between atoms: C_11  and  N_12 
REMARK    6  A    between atoms: C_16  and  C_17 
REMARK       I    between atoms: C_17  and  N_18 
REMARK    7  A    between atoms: N_21  and  C_23 
REMARK    8  A    between atoms: C_23  and  C_24 
ROOT
HETATM    1  N   UNL     1      -8.171   1.743 -32.467  1.00  0.00    -0.067 N 
HETATM    2  H   UNL     1      -9.107   2.142 -32.309  1.00  0.00     0.280 HD
HETATM    3  C   UNL     1      -7.271   2.242 -31.366  1.00  0.00     0.236 C 
HETATM    4  C   UNL     1      -7.096   3.758 -31.458  1.00  0.00     0.042 C 
HETATM    5  C   UNL     1      -6.556   4.199 -32.820  1.00  0.00     0.081 C 
HETATM    6  C   UNL     1      -7.457   3.643 -33.933  1.00  0.00     0.042 C 
HETATM    7  C   UNL     1      -7.720   2.145 -33.850  1.00  0.00     0.236 C 
ENDROOT
BRANCH   5   8
HETATM    8  C   UNL     1      -5.104   3.729 -32.961  1.00  0.00     0.224 C 
HETATM    9  N   UNL     1      -4.063   4.621 -32.697  1.00  0.00    -0.349 N 
HETATM   10  C   UNL     1      -2.709   4.056 -32.813  1.00  0.00     0.153 C 
HETATM   11  C   UNL     1      -4.165   6.064 -32.972  1.00  0.00     0.153 C 
HETATM   12  C   UNL     1      -1.637   4.870 -32.079  1.00  0.00     0.255 C 
HETATM   13  N   UNL     1      -1.681   6.322 -32.531  1.00  0.00    -0.064 N 
HETATM   14  H   UNL     1      -1.474   6.334 -33.538  1.00  0.00     0.280 HD
HETATM   15  C   UNL     1      -3.062   6.912 -32.305  1.00  0.00     0.255 C 
HETATM   16  O   UNL     1      -4.876   2.534 -33.159  1.00  0.00    -0.273 OA
BRANCH  13  17
HETATM   17  C   UNL     1      -0.613   7.182 -31.873  1.00  0.00     0.273 C 
BRANCH  17  18
HETATM   18  C   UNL     1      -0.479   6.954 -30.391  1.00  0.00    -0.030 A 
HETATM   19  C   UNL     1      -1.409   7.537 -29.510  1.00  0.00     0.048 A 
HETATM   20  C   UNL     1      -1.291   7.263 -28.165  1.00  0.00     0.105 A 
HETATM   21  C   UNL     1      -0.298   6.454 -27.673  1.00  0.00     0.105 A 
HETATM   22  O   UNL     1      -2.116   7.727 -27.190  1.00  0.00    -0.323 OA
HETATM   23  O   UNL     1      -0.368   6.312 -26.325  1.00  0.00    -0.323 OA
HETATM   24  C   UNL     1       0.638   5.874 -28.502  1.00  0.00     0.040 A 
HETATM   25  C   UNL     1      -1.501   7.152 -26.013  1.00  0.00     0.352 A 
HETATM   26  C   UNL     1       0.545   6.127 -29.875  1.00  0.00     0.012 A 
ENDBRANCH  17  18
ENDBRANCH  13  17
ENDBRANCH   5   8
BRANCH   1  27
HETATM   27  C   UNL     1      -8.351   0.229 -32.420  1.00  0.00     0.273 C 
BRANCH  27  28
HETATM   28  C   UNL     1      -7.111  -0.541 -32.781  1.00  0.00    -0.027 A 
HETATM   29  C   UNL     1      -7.115  -1.387 -33.897  1.00  0.00     0.048 A 
HETATM   30  C   UNL     1      -5.977  -2.119 -34.220  1.00  0.00     0.104 A 
HETATM   31  C   UNL     1      -4.840  -2.038 -33.417  1.00  0.00     0.133 A 
HETATM   32  C   UNL     1      -4.812  -1.199 -32.298  1.00  0.00     0.104 A 
HETATM   33  C   UNL     1      -5.949  -0.447 -31.988  1.00  0.00     0.048 A 
BRANCH  30  34
HETATM   34  O   UNL     1      -6.036  -2.973 -35.285  1.00  0.00    -0.353 OA
HETATM   35  C   UNL     1      -6.724  -4.172 -34.922  1.00  0.00     0.210 C 
ENDBRANCH  30  34
BRANCH  31  36
HETATM   36  O   UNL     1      -3.738  -2.787 -33.732  1.00  0.00    -0.356 OA
HETATM   37  H   UNL     1      -4.062  -3.690 -33.919  1.00  0.00     0.218 HD
ENDBRANCH  31  36
BRANCH  32  38
HETATM   38  O   UNL     1      -3.640  -1.215 -31.591  1.00  0.00    -0.353 OA
HETATM   39  C   UNL     1      -3.070   0.037 -31.228  1.00  0.00     0.210 C 
ENDBRANCH  32  38
ENDBRANCH  27  28
ENDBRANCH   1  27
TORSDOF 8
ENDMDL
MODEL 4
REMARK VINA RESULT:      -8.8      4.917     10.592
REMARK  8 active torsions:
REMARK  status: ('A' for Active; 'I' for Inactive)
REMARK    1  A    between atoms: O_2  and  C_3 
REMARK    2  A    between atoms: C_4  and  O_5 
REMARK    3  A    between atoms: C_6  and  O_7 
REMARK    4  A    between atoms: C_10  and  C_11 
REMARK    5  A    between atoms: C_11  and  N_12 
REMARK    6  A    between atoms: C_16  and  C_17 
REMARK       I    between atoms: C_17  and  N_18 
REMARK    7  A    between atoms: N_21  and  C_23 
REMARK    8  A    between atoms: C_23  and  C_24 
ROOT
HETATM    1  N   UNL     1      -8.620  -0.094 -33.169  1.00  0.00    -0.067 N 
HETATM    2  H   UNL     1      -8.458  -1.074 -33.441  1.00  0.00     0.280 HD
HETATM    3  C   UNL     1      -8.512   0.749 -34.413  1.00  0.00     0.236 C 
HETATM    4  C   UNL     1      -7.090   0.705 -34.972  1.00  0.00     0.042 C 
HETATM    5  C   UNL     1      -6.048   1.148 -33.943  1.00  0.00     0.081 C 
HETATM    6  C   UNL     1      -6.202   0.312 -32.665  1.00  0.00     0.042 C 
HETATM    7  C   UNL     1      -7.617   0.266 -32.101  1.00  0.00     0.236 C 
ENDROOT
BRANCH   5   8
HETATM    8  C   UNL     1      -6.210   2.649 -33.678  1.00  0.00     0.224 C 
HETATM    9  N   UNL     1      -5.080   3.429 -33.424  1.00  0.00    -0.349 N 
HETATM   10  C   UNL     1      -5.341   4.865 -33.232  1.00  0.00     0.153 C 
HETATM   11  C   UNL     1      -3.896   2.908 -32.721  1.00  0.00     0.153 C 
HETATM   12  C   UNL     1      -4.103   5.747 -33.432  1.00  0.00     0.255 C 
HETATM   13  N   UNL     1      -2.963   5.259 -32.552  1.00  0.00    -0.064 N 
HETATM   14  H   UNL     1      -3.275   5.344 -31.575  1.00  0.00     0.280 HD
HETATM   15  C   UNL     1      -2.645   3.804 -32.843  1.00  0.00     0.255 C 
HETATM   16  O   UNL     1      -7.314   3.171 -33.837  1.00  0.00    -0.273 OA
BRANCH  13  17
HETATM   17  C   UNL     1      -1.713   6.118 -32.667  1.00  0.00     0.273 C 
BRANCH  17  18
HETATM   18  C   UNL     1      -0.946   6.246 -31.378  1.00  0.00    -0.030 A 
HETATM   19  C   UNL     1      -1.104   7.398 -30.585  1.00  0.00     0.048 A 
HETATM   20  C   UNL     1      -0.431   7.460 -29.384  1.00  0.00     0.105 A 
HETATM   21  C   UNL     1       0.384   6.442 -28.956  1.00  0.00     0.105 A 
HETATM   22  O   UNL     1      -0.492   8.487 -28.498  1.00  0.00    -0.323 OA
HETATM   23  O   UNL     1       0.944   6.703 -27.747  1.00  0.00    -0.323 OA
HETATM   24  C   UNL     1       0.573   5.304 -29.708  1.00  0.00     0.040 A 
HETATM   25  C   UNL     1       0.417   8.020 -27.473  1.00  0.00     0.352 A 
HETATM   26  C   UNL     1      -0.099   5.205 -30.931  1.00  0.00     0.012 A 
ENDBRANCH  17  18
ENDBRANCH  13  17
ENDBRANCH   5   8
BRANCH   1  27
HETATM   27  C   UNL     1     -10.023  -0.057 -32.569  1.00  0.00     0.273 C 
BRANCH  27  28
HETATM   28  C   UNL     1     -10.883   1.052 -33.108  1.00  0.00    -0.027 A 
HETATM   29  C   UNL     1     -12.061   0.748 -33.804  1.00  0.00     0.048 A 
HETATM   30  C   UNL     1     -12.846   1.771 -34.325  1.00  0.00     0.104 A 
HETATM   31  C   UNL     1     -12.449   3.100 -34.185  1.00  0.00     0.133 A 
HETATM   32  C   UNL     1     -11.278   3.429 -33.493  1.00  0.00     0.104 A 
HETATM   33  C   UNL     1     -10.502   2.401 -32.951  1.00  0.00     0.048 A 
BRANCH  30  34
HETATM   34  O   UNL     1     -13.959   1.432 -35.041  1.00  0.00    -0.353 OA
HETATM   35  C   UNL     1     -14.876   0.705 -34.221  1.00  0.00     0.210 C 
ENDBRANCH  30  34
BRANCH  31  36
HETATM   36  O   UNL     1     -13.219   4.094 -34.729  1.00  0.00    -0.356 OA
HETATM   37  H   UNL     1     -13.279   4.797 -34.052  1.00  0.00     0.218 HD
ENDBRANCH  31  36
BRANCH  32  38
HETATM   38  O   UNL     1     -10.998   4.768 -33.433  1.00  0.00    -0.353 OA
HETATM   39  C   UNL     1     -10.110   5.211 -32.414  1.00  0.00     0.210 C 
ENDBRANCH  32  38
ENDBRANCH  27  28
ENDBRANCH   1  27
TORSDOF 8
ENDMDL
MODEL 5
REMARK VINA RESULT:      -8.8      5.101      9.707
REMARK  8 active torsions:
REMARK  status: ('A' for Active; 'I' for Inactive)
REMARK    1  A    between atoms: O_2  and  C_3 
REMARK    2  A    between atoms: C_4  and  O_5 
REMARK    3  A    between atoms: C_6  and  O_7 
REMARK    4  A    between atoms: C_10  and  C_11 
REMARK    5  A    between atoms: C_11  and  N_12 
REMARK    6  A    between atoms: C_16  and  C_17 
REMARK       I    between atoms: C_17  and  N_18 
REMARK    7  A    between atoms: N_21  and  C_23 
REMARK    8  A    between atoms: C_23  and  C_24 
ROOT
HETATM    1  N   UNL     1      -8.199   2.255 -32.066  1.00  0.00    -0.067 N 
HETATM    2  H   UNL     1      -9.092   2.708 -31.828  1.00  0.00     0.280 HD
HETATM    3  C   UNL     1      -7.150   2.792 -31.127  1.00  0.00     0.236 C 
HETATM    4  C   UNL     1      -6.932   4.287 -31.361  1.00  0.00     0.042 C 
HETATM    5  C   UNL     1      -6.550   4.598 -32.809  1.00  0.00     0.081 C 
HETATM    6  C   UNL     1      -7.603   4.004 -33.756  1.00  0.00     0.042 C 
HETATM    7  C   UNL     1      -7.910   2.530 -33.521  1.00  0.00     0.236 C 
ENDROOT
BRANCH   5   8
HETATM    8  C   UNL     1      -5.146   4.052 -33.088  1.00  0.00     0.224 C 
HETATM    9  N   UNL     1      -4.031   4.849 -32.821  1.00  0.00    -0.349 N 
HETATM   10  C   UNL     1      -2.730   4.211 -33.076  1.00  0.00     0.153 C 
HETATM   11  C   UNL     1      -4.050   6.314 -32.965  1.00  0.00     0.153 C 
HETATM   12  C   UNL     1      -1.561   4.887 -32.351  1.00  0.00     0.255 C 
HETATM   13  N   UNL     1      -1.532   6.373 -32.673  1.00  0.00    -0.064 N 
HETATM   14  H   UNL     1      -1.387   6.462 -33.688  1.00  0.00     0.280 HD
HETATM   15  C   UNL     1      -2.851   7.027 -32.305  1.00  0.00     0.255 C 
HETATM   16  O   UNL     1      -5.014   2.867 -33.402  1.00  0.00    -0.273 OA
BRANCH  13  17
HETATM   17  C   UNL     1      -0.367   7.101 -32.019  1.00  0.00     0.273 C 
BRANCH  17  18
HETATM   18  C   UNL     1      -0.256   6.858 -30.538  1.00  0.00    -0.030 A 
HETATM   19  C   UNL     1      -1.055   7.600 -29.648  1.00  0.00     0.048 A 
HETATM   20  C   UNL     1      -0.970   7.315 -28.303  1.00  0.00     0.105 A 
HETATM   21  C   UNL     1      -0.130   6.343 -27.819  1.00  0.00     0.105 A 
HETATM   22  O   UNL     1      -1.684   7.923 -27.321  1.00  0.00    -0.323 OA
HETATM   23  O   UNL     1      -0.206   6.220 -26.469  1.00  0.00    -0.323 OA
HETATM   24  C   UNL     1       0.675   5.603 -28.656  1.00  0.00     0.040 A 
HETATM   25  C   UNL     1      -1.166   7.251 -26.148  1.00  0.00     0.352 A 
HETATM   26  C   UNL     1       0.610   5.863 -30.030  1.00  0.00     0.012 A 
ENDBRANCH  17  18
ENDBRANCH  13  17
ENDBRANCH   5   8
BRANCH   1  27
HETATM   27  C   UNL     1      -8.429   0.758 -31.876  1.00  0.00     0.273 C 
BRANCH  27  28
HETATM   28  C   UNL     1      -7.264  -0.092 -32.301  1.00  0.00    -0.027 A 
HETATM   29  C   UNL     1      -6.071  -0.059 -31.568  1.00  0.00     0.048 A 
HETATM   30  C   UNL     1      -4.983  -0.826 -31.972  1.00  0.00     0.104 A 
HETATM   31  C   UNL     1      -5.065  -1.606 -33.125  1.00  0.00     0.133 A 
HETATM   32  C   UNL     1      -6.246  -1.656 -33.873  1.00  0.00     0.104 A 
HETATM   33  C   UNL     1      -7.346  -0.902 -33.453  1.00  0.00     0.048 A 
BRANCH  30  34
HETATM   34  O   UNL     1      -3.821  -0.727 -31.260  1.00  0.00    -0.353 OA
HETATM   35  C   UNL     1      -3.325   0.613 -31.304  1.00  0.00     0.210 C 
ENDBRANCH  30  34
BRANCH  31  36
HETATM   36  O   UNL     1      -3.976  -2.333 -33.525  1.00  0.00    -0.356 OA
HETATM   37  H   UNL     1      -3.797  -2.977 -32.812  1.00  0.00     0.218 HD
ENDBRANCH  31  36
BRANCH  32  38
HETATM   38  O   UNL     1      -6.194  -2.454 -34.985  1.00  0.00    -0.353 OA
HETATM   39  C   UNL     1      -6.736  -3.765 -34.882  1.00  0.00     0.210 C 
ENDBRANCH  32  38
ENDBRANCH  27  28
ENDBRANCH   1  27
TORSDOF 8
ENDMDL
MODEL 6
REMARK VINA RESULT:      -8.7      5.151      9.411
REMARK  8 active torsions:
REMARK  status: ('A' for Active; 'I' for Inactive)
REMARK    1  A    between atoms: O_2  and  C_3 
REMARK    2  A    between atoms: C_4  and  O_5 
REMARK    3  A    between atoms: C_6  and  O_7 
REMARK    4  A    between atoms: C_10  and  C_11 
REMARK    5  A    between atoms: C_11  and  N_12 
REMARK    6  A    between atoms: C_16  and  C_17 
REMARK       I    between atoms: C_17  and  N_18 
REMARK    7  A    between atoms: N_21  and  C_23 
REMARK    8  A    between atoms: C_23  and  C_24 
ROOT
HETATM    1  N   UNL     1      -6.102   7.027 -30.722  1.00  0.00    -0.067 N 
HETATM    2  H   UNL     1      -6.865   7.716 -30.670  1.00  0.00     0.280 HD
HETATM    3  C   UNL     1      -6.442   6.052 -31.819  1.00  0.00     0.236 C 
HETATM    4  C   UNL     1      -7.698   5.255 -31.463  1.00  0.00     0.042 C 
HETATM    5  C   UNL     1      -7.559   4.519 -30.129  1.00  0.00     0.081 C 
HETATM    6  C   UNL     1      -7.166   5.518 -29.031  1.00  0.00     0.042 C 
HETATM    7  C   UNL     1      -5.959   6.387 -29.363  1.00  0.00     0.236 C 
ENDROOT
BRANCH   5   8
HETATM    8  C   UNL     1      -6.532   3.392 -30.282  1.00  0.00     0.224 C 
HETATM    9  N   UNL     1      -6.614   2.529 -31.377  1.00  0.00    -0.349 N 
HETATM   10  C   UNL     1      -5.550   1.514 -31.455  1.00  0.00     0.153 C 
HETATM   11  C   UNL     1      -7.895   2.142 -31.988  1.00  0.00     0.153 C 
HETATM   12  C   UNL     1      -5.375   0.914 -32.854  1.00  0.00     0.255 C 
HETATM   13  N   UNL     1      -6.704   0.378 -33.365  1.00  0.00    -0.064 N 
HETATM   14  H   UNL     1      -7.000  -0.367 -32.721  1.00  0.00     0.280 HD
HETATM   15  C   UNL     1      -7.757   1.471 -33.371  1.00  0.00     0.255 C 
HETATM   16  O   UNL     1      -5.564   3.354 -29.520  1.00  0.00    -0.273 OA
BRANCH  13  17
HETATM   17  C   UNL     1      -6.595  -0.274 -34.736  1.00  0.00     0.273 C 
BRANCH  17  18
HETATM   18  C   UNL     1      -6.156  -1.713 -34.688  1.00  0.00    -0.030 A 
HETATM   19  C   UNL     1      -4.904  -2.042 -34.138  1.00  0.00     0.048 A 
HETATM   20  C   UNL     1      -4.555  -3.373 -34.059  1.00  0.00     0.105 A 
HETATM   21  C   UNL     1      -5.388  -4.368 -34.506  1.00  0.00     0.105 A 
HETATM   22  O   UNL     1      -3.398  -3.856 -33.539  1.00  0.00    -0.323 OA
HETATM   23  O   UNL     1      -4.856  -5.604 -34.328  1.00  0.00    -0.323 OA
HETATM   24  C   UNL     1      -6.617  -4.087 -35.061  1.00  0.00     0.040 A 
HETATM   25  C   UNL     1      -3.574  -5.277 -33.749  1.00  0.00     0.352 A 
HETATM   26  C   UNL     1      -7.005  -2.745 -35.152  1.00  0.00     0.012 A 
ENDBRANCH  17  18
ENDBRANCH  13  17
ENDBRANCH   5   8
BRANCH   1  27
HETATM   27  C   UNL     1      -4.840   7.826 -31.034  1.00  0.00     0.273 C 
BRANCH  27  28
HETATM   28  C   UNL     1      -3.601   6.983 -31.145  1.00  0.00    -0.027 A 
HETATM   29  C   UNL     1      -2.659   6.985 -30.107  1.00  0.00     0.048 A 
HETATM   30  C   UNL     1      -1.500   6.224 -30.217  1.00  0.00     0.104 A 
HETATM   31  C   UNL     1      -1.255   5.483 -31.372  1.00  0.00     0.133 A 
HETATM   32  C   UNL     1      -2.181   5.463 -32.421  1.00  0.00     0.104 A 
HETATM   33  C   UNL     1      -3.356   6.211 -32.299  1.00  0.00     0.048 A 
BRANCH  30  34
HETATM   34  O   UNL     1      -0.582   6.293 -29.207  1.00  0.00    -0.353 OA
HETATM   35  C   UNL     1       0.209   7.477 -29.335  1.00  0.00     0.210 C 
ENDBRANCH  30  34
BRANCH  31  36
HETATM   36  O   UNL     1      -0.095   4.762 -31.476  1.00  0.00    -0.356 OA
HETATM   37  H   UNL     1       0.348   4.825 -30.607  1.00  0.00     0.218 HD
ENDBRANCH  31  36
BRANCH  32  38
HETATM   38  O   UNL     1      -1.818   4.702 -33.499  1.00  0.00    -0.353 OA
HETATM   39  C   UNL     1      -1.533   5.377 -34.718  1.00  0.00     0.210 C 
ENDBRANCH  32  38
ENDBRANCH  27  28
ENDBRANCH   1  27
TORSDOF 8
ENDMDL
MODEL 7
REMARK VINA RESULT:      -8.7      6.050     10.902
REMARK  8 active torsions:
REMARK  status: ('A' for Active; 'I' for Inactive)
REMARK    1  A    between atoms: O_2  and  C_3 
REMARK    2  A    between atoms: C_4  and  O_5 
REMARK    3  A    between atoms: C_6  and  O_7 
REMARK    4  A    between atoms: C_10  and  C_11 
REMARK    5  A    between atoms: C_11  and  N_12 
REMARK    6  A    between atoms: C_16  and  C_17 
REMARK       I    between atoms: C_17  and  N_18 
REMARK    7  A    between atoms: N_21  and  C_23 
REMARK    8  A    between atoms: C_23  and  C_24 
ROOT
HETATM    1  N   UNL     1      -1.854   7.917 -30.571  1.00  0.00    -0.067 N 
HETATM    2  H   UNL     1      -0.925   7.921 -30.128  1.00  0.00     0.280 HD
HETATM    3  C   UNL     1      -2.476   6.569 -30.316  1.00  0.00     0.236 C 
HETATM    4  C   UNL     1      -1.680   5.467 -31.015  1.00  0.00     0.042 C 
HETATM    5  C   UNL     1      -1.551   5.710 -32.520  1.00  0.00     0.081 C 
HETATM    6  C   UNL     1      -0.960   7.107 -32.764  1.00  0.00     0.042 C 
HETATM    7  C   UNL     1      -1.675   8.237 -32.034  1.00  0.00     0.236 C 
ENDROOT
BRANCH   5   8
HETATM    8  C   UNL     1      -2.925   5.539 -33.177  1.00  0.00     0.224 C 
HETATM    9  N   UNL     1      -3.639   4.356 -32.982  1.00  0.00    -0.349 N 
HETATM   10  C   UNL     1      -4.967   4.314 -33.614  1.00  0.00     0.153 C 
HETATM   11  C   UNL     1      -2.980   3.049 -32.821  1.00  0.00     0.153 C 
HETATM   12  C   UNL     1      -5.901   3.256 -33.015  1.00  0.00     0.255 C 
HETATM   13  N   UNL     1      -5.227   1.893 -33.031  1.00  0.00    -0.064 N 
HETATM   14  H   UNL     1      -5.045   1.654 -34.014  1.00  0.00     0.280 HD
HETATM   15  C   UNL     1      -3.907   1.938 -32.282  1.00  0.00     0.255 C 
HETATM   16  O   UNL     1      -3.444   6.503 -33.743  1.00  0.00    -0.273 OA
BRANCH  13  17
HETATM   17  C   UNL     1      -6.116   0.783 -32.489  1.00  0.00     0.273 C 
BRANCH  17  18
HETATM   18  C   UNL     1      -5.930  -0.537 -33.187  1.00  0.00    -0.030 A 
HETATM   19  C   UNL     1      -4.806  -1.330 -32.890  1.00  0.00     0.048 A 
HETATM   20  C   UNL     1      -4.694  -2.558 -33.505  1.00  0.00     0.105 A 
HETATM   21  C   UNL     1      -5.637  -3.014 -34.393  1.00  0.00     0.105 A 
HETATM   22  O   UNL     1      -3.687  -3.448 -33.313  1.00  0.00    -0.323 OA
HETATM   23  O   UNL     1      -5.337  -4.246 -34.876  1.00  0.00    -0.323 OA
HETATM   24  C   UNL     1      -6.745  -2.262 -34.718  1.00  0.00     0.040 A 
HETATM   25  C   UNL     1      -4.078  -4.506 -34.219  1.00  0.00     0.352 A 
HETATM   26  C   UNL     1      -6.893  -1.012 -34.108  1.00  0.00     0.012 A 
ENDBRANCH  17  18
ENDBRANCH  13  17
ENDBRANCH   5   8
BRANCH   1  27
HETATM   27  C   UNL     1      -2.635   9.047 -29.905  1.00  0.00     0.273 C 
BRANCH  27  28
HETATM   28  C   UNL     1      -3.169   8.693 -28.545  1.00  0.00    -0.027 A 
HETATM   29  C   UNL     1      -4.536   8.435 -28.376  1.00  0.00     0.048 A 
HETATM   30  C   UNL     1      -5.037   8.131 -27.114  1.00  0.00     0.104 A 
HETATM   31  C   UNL     1      -4.188   8.115 -26.008  1.00  0.00     0.133 A 
HETATM   32  C   UNL     1      -2.820   8.368 -26.152  1.00  0.00     0.104 A 
HETATM   33  C   UNL     1      -2.314   8.651 -27.424  1.00  0.00     0.048 A 
BRANCH  30  34
HETATM   34  O   UNL     1      -6.383   7.937 -26.982  1.00  0.00    -0.353 OA
HETATM   35  C   UNL     1      -7.076   8.476 -28.109  1.00  0.00     0.210 C 
ENDBRANCH  30  34
BRANCH  31  36
HETATM   36  O   UNL     1      -4.703   7.842 -24.768  1.00  0.00    -0.356 OA
HETATM   37  H   UNL     1      -4.396   8.559 -24.180  1.00  0.00     0.218 HD
ENDBRANCH  31  36
BRANCH  32  38
HETATM   38  O   UNL     1      -2.098   8.327 -24.989  1.00  0.00    -0.353 OA
HETATM   39  C   UNL     1      -1.398   9.504 -24.605  1.00  0.00     0.210 C 
ENDBRANCH  32  38
ENDBRANCH  27  28
ENDBRANCH   1  27
TORSDOF 8
ENDMDL
MODEL 8
REMARK VINA RESULT:      -8.7      5.363      9.550
REMARK  8 active torsions:
REMARK  status: ('A' for Active; 'I' for Inactive)
REMARK    1  A    between atoms: O_2  and  C_3 
REMARK    2  A    between atoms: C_4  and  O_5 
REMARK    3  A    between atoms: C_6  and  O_7 
REMARK    4  A    between atoms: C_10  and  C_11 
REMARK    5  A    between atoms: C_11  and  N_12 
REMARK    6  A    between atoms: C_16  and  C_17 
REMARK       I    between atoms: C_17  and  N_18 
REMARK    7  A    between atoms: N_21  and  C_23 
REMARK    8  A    between atoms: C_23  and  C_24 
ROOT
HETATM    1  N   UNL     1      -5.472   7.095 -30.095  1.00  0.00    -0.067 N 
HETATM    2  H   UNL     1      -6.223   7.786 -29.962  1.00  0.00     0.280 HD
HETATM    3  C   UNL     1      -5.772   6.332 -31.359  1.00  0.00     0.236 C 
HETATM    4  C   UNL     1      -7.058   5.521 -31.207  1.00  0.00     0.042 C 
HETATM    5  C   UNL     1      -7.002   4.563 -30.015  1.00  0.00     0.081 C 
HETATM    6  C   UNL     1      -6.649   5.348 -28.743  1.00  0.00     0.042 C 
HETATM    7  C   UNL     1      -5.411   6.228 -28.862  1.00  0.00     0.236 C 
ENDROOT
BRANCH   5   8
HETATM    8  C   UNL     1      -5.989   3.451 -30.310  1.00  0.00     0.224 C 
HETATM    9  N   UNL     1      -6.227   2.566 -31.363  1.00  0.00    -0.349 N 
HETATM   10  C   UNL     1      -5.169   1.569 -31.593  1.00  0.00     0.153 C 
HETATM   11  C   UNL     1      -7.581   2.144 -31.755  1.00  0.00     0.153 C 
HETATM   12  C   UNL     1      -5.207   0.943 -32.992  1.00  0.00     0.255 C 
HETATM   13  N   UNL     1      -6.588   0.374 -33.275  1.00  0.00    -0.064 N 
HETATM   14  H   UNL     1      -6.762  -0.363 -32.579  1.00  0.00     0.280 HD
HETATM   15  C   UNL     1      -7.651   1.448 -33.131  1.00  0.00     0.255 C 
HETATM   16  O   UNL     1      -4.912   3.446 -29.712  1.00  0.00    -0.273 OA
BRANCH  13  17
HETATM   17  C   UNL     1      -6.686  -0.303 -34.634  1.00  0.00     0.273 C 
BRANCH  17  18
HETATM   18  C   UNL     1      -6.229  -1.737 -34.630  1.00  0.00    -0.030 A 
HETATM   19  C   UNL     1      -4.948  -2.059 -34.144  1.00  0.00     0.048 A 
HETATM   20  C   UNL     1      -4.582  -3.387 -34.102  1.00  0.00     0.105 A 
HETATM   21  C   UNL     1      -5.423  -4.386 -34.525  1.00  0.00     0.105 A 
HETATM   22  O   UNL     1      -3.395  -3.864 -33.644  1.00  0.00    -0.323 OA
HETATM   23  O   UNL     1      -4.869  -5.618 -34.392  1.00  0.00    -0.323 OA
HETATM   24  C   UNL     1      -6.680  -4.111 -35.018  1.00  0.00     0.040 A 
HETATM   25  C   UNL     1      -3.565  -5.284 -33.868  1.00  0.00     0.352 A 
HETATM   26  C   UNL     1      -7.087  -2.773 -35.069  1.00  0.00     0.012 A 
ENDBRANCH  17  18
ENDBRANCH  13  17
ENDBRANCH   5   8
BRANCH   1  27
HETATM   27  C   UNL     1      -4.181   7.902 -30.203  1.00  0.00     0.273 C 
BRANCH  27  28
HETATM   28  C   UNL     1      -2.938   7.057 -30.216  1.00  0.00    -0.027 A 
HETATM   29  C   UNL     1      -2.742   6.117 -31.236  1.00  0.00     0.048 A 
HETATM   30  C   UNL     1      -1.605   5.317 -31.238  1.00  0.00     0.104 A 
HETATM   31  C   UNL     1      -0.671   5.424 -30.208  1.00  0.00     0.133 A 
HETATM   32  C   UNL     1      -0.843   6.356 -29.179  1.00  0.00     0.104 A 
HETATM   33  C   UNL     1      -1.976   7.175 -29.191  1.00  0.00     0.048 A 
BRANCH  30  34
HETATM   34  O   UNL     1      -1.476   4.376 -32.221  1.00  0.00    -0.353 OA
HETATM   35  C   UNL     1      -2.750   4.081 -32.796  1.00  0.00     0.210 C 
ENDBRANCH  30  34
BRANCH  31  36
HETATM   36  O   UNL     1       0.429   4.608 -30.209  1.00  0.00    -0.356 OA
HETATM   37  H   UNL     1       0.196   3.829 -29.667  1.00  0.00     0.218 HD
ENDBRANCH  31  36
BRANCH  32  38
HETATM   38  O   UNL     1       0.141   6.356 -28.227  1.00  0.00    -0.353 OA
HETATM   39  C   UNL     1       0.183   7.452 -27.322  1.00  0.00     0.210 C 
ENDBRANCH  32  38
ENDBRANCH  27  28
ENDBRANCH   1  27
TORSDOF 8
ENDMDL
MODEL 9
REMARK VINA RESULT:      -8.7      6.040     10.962
REMARK  8 active torsions:
REMARK  status: ('A' for Active; 'I' for Inactive)
REMARK    1  A    between atoms: O_2  and  C_3 
REMARK    2  A    between atoms: C_4  and  O_5 
REMARK    3  A    between atoms: C_6  and  O_7 
REMARK    4  A    between atoms: C_10  and  C_11 
REMARK    5  A    between atoms: C_11  and  N_12 
REMARK    6  A    between atoms: C_16  and  C_17 
REMARK       I    between atoms: C_17  and  N_18 
REMARK    7  A    between atoms: N_21  and  C_23 
REMARK    8  A    between atoms: C_23  and  C_24 
ROOT
HETATM    1  N   UNL     1      -1.761   7.958 -30.633  1.00  0.00    -0.067 N 
HETATM    2  H   UNL     1      -0.824   7.954 -30.205  1.00  0.00     0.280 HD
HETATM    3  C   UNL     1      -2.407   6.631 -30.331  1.00  0.00     0.236 C 
HETATM    4  C   UNL     1      -1.646   5.493 -31.011  1.00  0.00     0.042 C 
HETATM    5  C   UNL     1      -1.536   5.693 -32.524  1.00  0.00     0.081 C 
HETATM    6  C   UNL     1      -0.918   7.068 -32.816  1.00  0.00     0.042 C 
HETATM    7  C   UNL     1      -1.598   8.234 -32.107  1.00  0.00     0.236 C 
ENDROOT
BRANCH   5   8
HETATM    8  C   UNL     1      -2.923   5.534 -33.155  1.00  0.00     0.224 C 
HETATM    9  N   UNL     1      -3.637   4.351 -32.959  1.00  0.00    -0.349 N 
HETATM   10  C   UNL     1      -4.978   4.321 -33.565  1.00  0.00     0.153 C 
HETATM   11  C   UNL     1      -2.981   3.040 -32.825  1.00  0.00     0.153 C 
HETATM   12  C   UNL     1      -5.904   3.260 -32.959  1.00  0.00     0.255 C 
HETATM   13  N   UNL     1      -5.237   1.894 -33.002  1.00  0.00    -0.064 N 
HETATM   14  H   UNL     1      -5.075   1.665 -33.992  1.00  0.00     0.280 HD
HETATM   15  C   UNL     1      -3.901   1.927 -32.280  1.00  0.00     0.255 C 
HETATM   16  O   UNL     1      -3.449   6.505 -33.701  1.00  0.00    -0.273 OA
BRANCH  13  17
HETATM   17  C   UNL     1      -6.119   0.783 -32.454  1.00  0.00     0.273 C 
BRANCH  17  18
HETATM   18  C   UNL     1      -5.939  -0.535 -33.158  1.00  0.00    -0.030 A 
HETATM   19  C   UNL     1      -4.808  -1.325 -32.881  1.00  0.00     0.048 A 
HETATM   20  C   UNL     1      -4.701  -2.551 -33.500  1.00  0.00     0.105 A 
HETATM   21  C   UNL     1      -5.655  -3.008 -34.374  1.00  0.00     0.105 A 
HETATM   22  O   UNL     1      -3.687  -3.438 -33.326  1.00  0.00    -0.323 OA
HETATM   23  O   UNL     1      -5.359  -4.239 -34.865  1.00  0.00    -0.323 OA
HETATM   24  C   UNL     1      -6.771  -2.260 -34.680  1.00  0.00     0.040 A 
HETATM   25  C   UNL     1      -4.088  -4.495 -34.228  1.00  0.00     0.352 A 
HETATM   26  C   UNL     1      -6.914  -1.012 -34.065  1.00  0.00     0.012 A 
ENDBRANCH  17  18
ENDBRANCH  13  17
ENDBRANCH   5   8
BRANCH   1  27
HETATM   27  C   UNL     1      -2.507   9.122 -29.987  1.00  0.00     0.273 C 
BRANCH  27  28
HETATM   28  C   UNL     1      -3.086   8.797 -28.638  1.00  0.00    -0.027 A 
HETATM   29  C   UNL     1      -2.259   8.786 -27.507  1.00  0.00     0.048 A 
HETATM   30  C   UNL     1      -2.786   8.461 -26.262  1.00  0.00     0.104 A 
HETATM   31  C   UNL     1      -4.131   8.115 -26.138  1.00  0.00     0.133 A 
HETATM   32  C   UNL     1      -4.977   8.119 -27.253  1.00  0.00     0.104 A 
HETATM   33  C   UNL     1      -4.450   8.467 -28.500  1.00  0.00     0.048 A 
BRANCH  30  34
HETATM   34  O   UNL     1      -1.937   8.411 -25.192  1.00  0.00    -0.353 OA
HETATM   35  C   UNL     1      -0.594   8.658 -25.612  1.00  0.00     0.210 C 
ENDBRANCH  30  34
BRANCH  31  36
HETATM   36  O   UNL     1      -4.628   7.770 -24.909  1.00  0.00    -0.356 OA
HETATM   37  H   UNL     1      -4.541   8.563 -24.345  1.00  0.00     0.218 HD
ENDBRANCH  31  36
BRANCH  32  38
HETATM   38  O   UNL     1      -6.271   7.754 -26.998  1.00  0.00    -0.353 OA
HETATM   39  C   UNL     1      -7.273   8.200 -27.905  1.00  0.00     0.210 C 
ENDBRANCH  32  38
ENDBRANCH  27  28
ENDBRANCH   1  27
TORSDOF 8
ENDMDL
MODEL 10
REMARK VINA RESULT:      -8.6      6.238     10.323
REMARK  8 active torsions:
REMARK  status: ('A' for Active; 'I' for Inactive)
REMARK    1  A    between atoms: O_2  and  C_3 
REMARK    2  A    between atoms: C_4  and  O_5 
REMARK    3  A    between atoms: C_6  and  O_7 
REMARK    4  A    between atoms: C_10  and  C_11 
REMARK    5  A    between atoms: C_11  and  N_12 
REMARK    6  A    between atoms: C_16  and  C_17 
REMARK       I    between atoms: C_17  and  N_18 
REMARK    7  A    between atoms: N_21  and  C_23 
REMARK    8  A    between atoms: C_23  and  C_24 
ROOT
HETATM    1  N   UNL     1      -0.226   5.927 -31.702  1.00  0.00    -0.067 N 
HETATM    2  H   UNL     1       0.557   5.835 -32.364  1.00  0.00     0.280 HD
HETATM    3  C   UNL     1      -1.205   4.821 -31.998  1.00  0.00     0.236 C 
HETATM    4  C   UNL     1      -1.816   4.997 -33.388  1.00  0.00     0.042 C 
HETATM    5  C   UNL     1      -2.494   6.359 -33.555  1.00  0.00     0.081 C 
HETATM    6  C   UNL     1      -1.497   7.474 -33.205  1.00  0.00     0.042 C 
HETATM    7  C   UNL     1      -0.807   7.311 -31.857  1.00  0.00     0.236 C 
ENDROOT
BRANCH   5   8
HETATM    8  C   UNL     1      -3.749   6.407 -32.678  1.00  0.00     0.224 C 
HETATM    9  N   UNL     1      -4.763   5.468 -32.875  1.00  0.00    -0.349 N 
HETATM   10  C   UNL     1      -5.901   5.571 -31.947  1.00  0.00     0.153 C 
HETATM   11  C   UNL     1      -5.084   4.912 -34.200  1.00  0.00     0.153 C 
HETATM   12  C   UNL     1      -6.741   4.291 -31.860  1.00  0.00     0.255 C 
HETATM   13  N   UNL     1      -7.185   3.859 -33.248  1.00  0.00    -0.064 N 
HETATM   14  H   UNL     1      -7.771   4.614 -33.630  1.00  0.00     0.280 HD
HETATM   15  C   UNL     1      -5.985   3.660 -34.157  1.00  0.00     0.255 C 
HETATM   16  O   UNL     1      -3.781   7.177 -31.716  1.00  0.00    -0.273 OA
BRANCH  13  17
HETATM   17  C   UNL     1      -8.062   2.616 -33.233  1.00  0.00     0.273 C 
BRANCH  17  18
HETATM   18  C   UNL     1      -7.346   1.365 -33.666  1.00  0.00    -0.030 A 
HETATM   19  C   UNL     1      -6.379   0.787 -32.822  1.00  0.00     0.048 A 
HETATM   20  C   UNL     1      -5.782  -0.388 -33.223  1.00  0.00     0.105 A 
HETATM   21  C   UNL     1      -6.100  -0.994 -34.413  1.00  0.00     0.105 A 
HETATM   22  O   UNL     1      -4.851  -1.080 -32.518  1.00  0.00    -0.323 OA
HETATM   23  O   UNL     1      -5.402  -2.142 -34.609  1.00  0.00    -0.323 OA
HETATM   24  C   UNL     1      -7.032  -0.454 -35.271  1.00  0.00     0.040 A 
HETATM   25  C   UNL     1      -4.580  -2.177 -33.422  1.00  0.00     0.352 A 
HETATM   26  C   UNL     1      -7.662   0.736 -34.893  1.00  0.00     0.012 A 
ENDBRANCH  17  18
ENDBRANCH  13  17
ENDBRANCH   5   8
BRANCH   1  27
HETATM   27  C   UNL     1       0.388   5.796 -30.312  1.00  0.00     0.273 C 
BRANCH  27  28
HETATM   28  C   UNL     1      -0.127   6.805 -29.324  1.00  0.00    -0.027 A 
HETATM   29  C   UNL     1       0.762   7.690 -28.701  1.00  0.00     0.048 A 
HETATM   30  C   UNL     1       0.292   8.609 -27.768  1.00  0.00     0.104 A 
HETATM   31  C   UNL     1      -1.059   8.631 -27.426  1.00  0.00     0.133 A 
HETATM   32  C   UNL     1      -1.967   7.758 -28.035  1.00  0.00     0.104 A 
HETATM   33  C   UNL     1      -1.496   6.851 -28.988  1.00  0.00     0.048 A 
BRANCH  30  34
HETATM   34  O   UNL     1       1.198   9.420 -27.144  1.00  0.00    -0.353 OA
HETATM   35  C   UNL     1       1.964   8.672 -26.197  1.00  0.00     0.210 C 
ENDBRANCH  30  34
BRANCH  31  36
HETATM   36  O   UNL     1      -1.501   9.523 -26.484  1.00  0.00    -0.356 OA
HETATM   37  H   UNL     1      -0.837  10.239 -26.451  1.00  0.00     0.218 HD
ENDBRANCH  31  36
BRANCH  32  38
HETATM   38  O   UNL     1      -3.262   7.877 -27.607  1.00  0.00    -0.353 OA
HETATM   39  C   UNL     1      -3.794   6.823 -26.814  1.00  0.00     0.210 C 
ENDBRANCH  32  38
ENDBRANCH  27  28
ENDBRANCH   1  27
TORSDOF 8
ENDMDL
