MODEL 1
REMARK VINA RESULT:      -9.2      0.000      0.000
REMARK  4 active torsions:
REMARK  status: ('A' for Active; 'I' for Inactive)
REMARK    1  A    between atoms: O_2  and  C_3 
REMARK    2  A    between atoms: C_6  and  C_7 
REMARK    3  A    between atoms: C_12  and  N_13 
REMARK    4  A    between atoms: C_15  and  C_16 
ROOT
HETATM    1  C   UNL     1      -8.959   0.757 -33.069  1.00  0.00     0.135 C 
HETATM    2  N   UNL     1      -8.840   1.536 -31.841  1.00  0.00    -0.214 N 
HETATM    3  C   UNL     1      -7.631   1.959 -31.423  1.00  0.00     0.736 A 
HETATM    4  N   UNL     1      -6.533   1.892 -32.235  1.00  0.00    -0.074 N 
HETATM    5  N   UNL     1      -5.442   2.399 -31.638  1.00  0.00     0.037 NA
HETATM    6  C   UNL     1      -5.951   2.751 -30.459  1.00  0.00     0.753 A 
HETATM    7  N   UNL     1      -7.274   2.474 -30.276  1.00  0.00     0.131 NA
HETATM    8  C   UNL     1      -6.534   1.324 -33.575  1.00  0.00     0.164 C 
HETATM    9  C   UNL     1      -7.970   1.284 -34.128  1.00  0.00     0.063 C 
HETATM   10  H   UNL     1      -9.554   1.382 -31.134  1.00  0.00     0.178 HD
ENDROOT
BRANCH   1  11
HETATM   11  C   UNL     1     -10.377   0.818 -33.611  1.00  0.00    -0.035 A 
HETATM   12  C   UNL     1     -11.386  -0.045 -33.156  1.00  0.00     0.012 A 
HETATM   13  C   UNL     1     -12.693   0.070 -33.637  1.00  0.00     0.037 A 
HETATM   14  C   UNL     1     -13.027   1.061 -34.561  1.00  0.00     0.068 A 
HETATM   15  C   UNL     1     -12.033   1.922 -35.024  1.00  0.00     0.037 A 
HETATM   16  C   UNL     1     -10.720   1.801 -34.552  1.00  0.00     0.012 A 
BRANCH  14  17
HETATM   17  O   UNL     1     -14.342   1.078 -34.933  1.00  0.00    -0.356 OA
HETATM   18  C   UNL     1     -15.302   1.036 -33.885  1.00  0.00     0.210 C 
ENDBRANCH  14  17
ENDBRANCH   1  11
BRANCH   8  19
HETATM   19  C   UNL     1      -5.861  -0.044 -33.647  1.00  0.00    -0.031 A 
HETATM   20  C   UNL     1      -6.476  -1.174 -34.215  1.00  0.00     0.028 A 
HETATM   21  C   UNL     1      -5.800  -2.394 -34.271  1.00  0.00     0.011 A 
HETATM   22 BR   UNL     1      -6.650  -3.900 -35.036  1.00  0.00    -0.051 Br
HETATM   23  C   UNL     1      -4.505  -2.513 -33.773  1.00  0.00     0.019 A 
HETATM   24  C   UNL     1      -3.880  -1.403 -33.214  1.00  0.00     0.002 A 
HETATM   25  C   UNL     1      -4.550  -0.178 -33.152  1.00  0.00     0.009 A 
ENDBRANCH   8  19
BRANCH   6  26
HETATM   26  N   UNL     1      -5.271   3.304 -29.459  1.00  0.00    -0.229 N 
HETATM   27  H   UNL     1      -5.454   2.951 -28.531  1.00  0.00     0.174 HD
HETATM   28  H   UNL     1      -5.111   4.301 -29.516  1.00  0.00     0.174 HD
ENDBRANCH   6  26
TORSDOF 4
ENDMDL
MODEL 2
REMARK VINA RESULT:      -8.8      3.519      6.707
REMARK  4 active torsions:
REMARK  status: ('A' for Active; 'I' for Inactive)
REMARK    1  A    between atoms: O_2  and  C_3 
REMARK    2  A    between atoms: C_6  and  C_7 
REMARK    3  A    between atoms: C_12  and  N_13 
REMARK    4  A    between atoms: C_15  and  C_16 
ROOT
HETATM    1  C   UNL     1      -7.265   0.085 -34.187  1.00  0.00     0.135 C 
HETATM    2  N   UNL     1      -6.392   1.237 -34.389  1.00  0.00    -0.214 N 
HETATM    3  C   UNL     1      -6.760   2.452 -33.939  1.00  0.00     0.736 A 
HETATM    4  N   UNL     1      -7.816   2.605 -33.082  1.00  0.00    -0.074 N 
HETATM    5  N   UNL     1      -7.986   3.889 -32.729  1.00  0.00     0.037 NA
HETATM    6  C   UNL     1      -7.000   4.464 -33.416  1.00  0.00     0.753 A 
HETATM    7  N   UNL     1      -6.247   3.628 -34.188  1.00  0.00     0.131 NA
HETATM    8  C   UNL     1      -8.665   1.516 -32.622  1.00  0.00     0.164 C 
HETATM    9  C   UNL     1      -7.942   0.171 -32.804  1.00  0.00     0.063 C 
HETATM   10  H   UNL     1      -5.773   1.202 -35.196  1.00  0.00     0.178 HD
ENDROOT
BRANCH   1  11
HETATM   11  C   UNL     1      -6.482  -1.212 -34.299  1.00  0.00    -0.035 A 
HETATM   12  C   UNL     1      -5.140  -1.308 -33.900  1.00  0.00     0.012 A 
HETATM   13  C   UNL     1      -4.461  -2.527 -33.968  1.00  0.00     0.037 A 
HETATM   14  C   UNL     1      -5.110  -3.679 -34.410  1.00  0.00     0.068 A 
HETATM   15  C   UNL     1      -6.442  -3.598 -34.813  1.00  0.00     0.037 A 
HETATM   16  C   UNL     1      -7.122  -2.374 -34.757  1.00  0.00     0.012 A 
BRANCH  14  17
HETATM   17  O   UNL     1      -4.340  -4.808 -34.407  1.00  0.00    -0.356 OA
HETATM   18  C   UNL     1      -3.307  -4.874 -33.432  1.00  0.00     0.210 C 
ENDBRANCH  14  17
ENDBRANCH   1  11
BRANCH   8  19
HETATM   19  C   UNL     1     -10.043   1.513 -33.281  1.00  0.00    -0.031 A 
HETATM   20  C   UNL     1     -10.512   2.568 -34.085  1.00  0.00     0.028 A 
HETATM   21  C   UNL     1     -11.773   2.497 -34.680  1.00  0.00     0.011 A 
HETATM   22 BR   UNL     1     -12.382   3.930 -35.753  1.00  0.00    -0.051 Br
HETATM   23  C   UNL     1     -12.585   1.382 -34.493  1.00  0.00     0.019 A 
HETATM   24  C   UNL     1     -12.133   0.327 -33.705  1.00  0.00     0.002 A 
HETATM   25  C   UNL     1     -10.873   0.390 -33.106  1.00  0.00     0.009 A 
ENDBRANCH   8  19
BRANCH   6  26
HETATM   26  N   UNL     1      -6.728   5.765 -33.431  1.00  0.00    -0.229 N 
HETATM   27  H   UNL     1      -7.501   6.396 -33.273  1.00  0.00     0.174 HD
HETATM   28  H   UNL     1      -6.049   6.079 -34.111  1.00  0.00     0.174 HD
ENDBRANCH   6  26
TORSDOF 4
ENDMDL
MODEL 3
REMARK VINA RESULT:      -8.8      3.294      6.578
REMARK  4 active torsions:
REMARK  status: ('A' for Active; 'I' for Inactive)
REMARK    1  A    between atoms: O_2  and  C_3 
REMARK    2  A    between atoms: C_6  and  C_7 
REMARK    3  A    between atoms: C_12  and  N_13 
REMARK    4  A    between atoms: C_15  and  C_16 
ROOT
HETATM    1  C   UNL     1      -7.224   0.494 -33.198  1.00  0.00     0.135 C 
HETATM    2  N   UNL     1      -6.492   1.363 -32.282  1.00  0.00    -0.214 N 
HETATM    3  C   UNL     1      -7.160   2.214 -31.478  1.00  0.00     0.736 A 
HETATM    4  N   UNL     1      -8.514   2.124 -31.314  1.00  0.00    -0.074 N 
HETATM    5  N   UNL     1      -8.971   3.040 -30.444  1.00  0.00     0.037 NA
HETATM    6  C   UNL     1      -7.835   3.658 -30.124  1.00  0.00     0.753 A 
HETATM    7  N   UNL     1      -6.713   3.205 -30.753  1.00  0.00     0.131 NA
HETATM    8  C   UNL     1      -9.365   1.169 -32.007  1.00  0.00     0.164 C 
HETATM    9  C   UNL     1      -8.520  -0.006 -32.530  1.00  0.00     0.063 C 
HETATM   10  H   UNL     1      -5.547   1.619 -32.556  1.00  0.00     0.178 HD
ENDROOT
BRANCH   1  11
HETATM   11  C   UNL     1      -6.369  -0.690 -33.617  1.00  0.00    -0.035 A 
HETATM   12  C   UNL     1      -5.087  -0.906 -33.089  1.00  0.00     0.012 A 
HETATM   13  C   UNL     1      -4.345  -2.032 -33.456  1.00  0.00     0.037 A 
HETATM   14  C   UNL     1      -4.873  -2.976 -34.336  1.00  0.00     0.068 A 
HETATM   15  C   UNL     1      -6.144  -2.772 -34.871  1.00  0.00     0.037 A 
HETATM   16  C   UNL     1      -6.885  -1.638 -34.514  1.00  0.00     0.012 A 
BRANCH  14  17
HETATM   17  O   UNL     1      -4.055  -4.040 -34.595  1.00  0.00    -0.356 OA
HETATM   18  C   UNL     1      -3.476  -4.689 -33.470  1.00  0.00     0.210 C 
ENDBRANCH  14  17
ENDBRANCH   1  11
BRANCH   8  19
HETATM   19  C   UNL     1     -10.199   1.805 -33.117  1.00  0.00    -0.031 A 
HETATM   20  C   UNL     1      -9.946   3.092 -33.625  1.00  0.00     0.028 A 
HETATM   21  C   UNL     1     -10.729   3.612 -34.657  1.00  0.00     0.011 A 
HETATM   22 BR   UNL     1     -10.371   5.347 -35.320  1.00  0.00    -0.051 Br
HETATM   23  C   UNL     1     -11.769   2.867 -35.205  1.00  0.00     0.019 A 
HETATM   24  C   UNL     1     -12.029   1.589 -34.718  1.00  0.00     0.002 A 
HETATM   25  C   UNL     1     -11.250   1.061 -33.685  1.00  0.00     0.009 A 
ENDBRANCH   8  19
BRANCH   6  26
HETATM   26  N   UNL     1      -7.726   4.684 -29.284  1.00  0.00    -0.229 N 
HETATM   27  H   UNL     1      -7.471   4.468 -28.331  1.00  0.00     0.174 HD
HETATM   28  H   UNL     1      -8.398   5.431 -29.390  1.00  0.00     0.174 HD
ENDBRANCH   6  26
TORSDOF 4
ENDMDL
MODEL 4
REMARK VINA RESULT:      -8.8      4.520      6.238
REMARK  4 active torsions:
REMARK  status: ('A' for Active; 'I' for Inactive)
REMARK    1  A    between atoms: O_2  and  C_3 
REMARK    2  A    between atoms: C_6  and  C_7 
REMARK    3  A    between atoms: C_12  and  N_13 
REMARK    4  A    between atoms: C_15  and  C_16 
ROOT
HETATM    1  C   UNL     1      -5.312   1.093 -32.969  1.00  0.00     0.135 C 
HETATM    2  N   UNL     1      -5.794   1.115 -31.592  1.00  0.00    -0.214 N 
HETATM    3  C   UNL     1      -6.129   2.283 -31.010  1.00  0.00     0.736 A 
HETATM    4  N   UNL     1      -6.266   3.430 -31.743  1.00  0.00    -0.074 N 
HETATM    5  N   UNL     1      -6.641   4.467 -30.976  1.00  0.00     0.037 NA
HETATM    6  C   UNL     1      -6.707   3.876 -29.784  1.00  0.00     0.753 A 
HETATM    7  N   UNL     1      -6.376   2.553 -29.755  1.00  0.00     0.131 NA
HETATM    8  C   UNL     1      -6.018   3.526 -33.173  1.00  0.00     0.164 C 
HETATM    9  C   UNL     1      -6.081   2.129 -33.814  1.00  0.00     0.063 C 
HETATM   10  H   UNL     1      -5.473   0.363 -30.986  1.00  0.00     0.178 HD
ENDROOT
BRANCH   1  11
HETATM   11  C   UNL     1      -5.474  -0.291 -33.576  1.00  0.00    -0.035 A 
HETATM   12  C   UNL     1      -4.442  -1.241 -33.546  1.00  0.00     0.012 A 
HETATM   13  C   UNL     1      -4.638  -2.522 -34.067  1.00  0.00     0.037 A 
HETATM   14  C   UNL     1      -5.871  -2.892 -34.604  1.00  0.00     0.068 A 
HETATM   15  C   UNL     1      -6.903  -1.956 -34.644  1.00  0.00     0.037 A 
HETATM   16  C   UNL     1      -6.706  -0.667 -34.132  1.00  0.00     0.012 A 
BRANCH  14  17
HETATM   17  O   UNL     1      -5.936  -4.179 -35.059  1.00  0.00    -0.356 OA
HETATM   18  C   UNL     1      -5.003  -5.099 -34.508  1.00  0.00     0.210 C 
ENDBRANCH  14  17
ENDBRANCH   1  11
BRANCH   8  19
HETATM   19  C   UNL     1      -4.712   4.244 -33.507  1.00  0.00    -0.031 A 
HETATM   20  C   UNL     1      -3.639   4.346 -32.603  1.00  0.00     0.028 A 
HETATM   21  C   UNL     1      -2.461   4.996 -32.974  1.00  0.00     0.011 A 
HETATM   22 BR   UNL     1      -1.035   5.124 -31.738  1.00  0.00    -0.051 Br
HETATM   23  C   UNL     1      -2.322   5.547 -34.244  1.00  0.00     0.019 A 
HETATM   24  C   UNL     1      -3.372   5.449 -35.154  1.00  0.00     0.002 A 
HETATM   25  C   UNL     1      -4.556   4.802 -34.790  1.00  0.00     0.009 A 
ENDBRANCH   8  19
BRANCH   6  26
HETATM   26  N   UNL     1      -7.029   4.478 -28.643  1.00  0.00    -0.229 N 
HETATM   27  H   UNL     1      -7.323   3.884 -27.880  1.00  0.00     0.174 HD
HETATM   28  H   UNL     1      -7.521   5.358 -28.716  1.00  0.00     0.174 HD
ENDBRANCH   6  26
TORSDOF 4
ENDMDL
MODEL 5
REMARK VINA RESULT:      -8.3      4.333      7.248
REMARK  4 active torsions:
REMARK  status: ('A' for Active; 'I' for Inactive)
REMARK    1  A    between atoms: O_2  and  C_3 
REMARK    2  A    between atoms: C_6  and  C_7 
REMARK    3  A    between atoms: C_12  and  N_13 
REMARK    4  A    between atoms: C_15  and  C_16 
ROOT
HETATM    1  C   UNL     1      -4.353   2.709 -32.541  1.00  0.00     0.135 C 
HETATM    2  N   UNL     1      -5.706   3.191 -32.795  1.00  0.00    -0.214 N 
HETATM    3  C   UNL     1      -6.769   2.436 -32.456  1.00  0.00     0.736 A 
HETATM    4  N   UNL     1      -6.633   1.334 -31.658  1.00  0.00    -0.074 N 
HETATM    5  N   UNL     1      -7.817   0.750 -31.412  1.00  0.00     0.037 NA
HETATM    6  C   UNL     1      -8.630   1.550 -32.100  1.00  0.00     0.753 A 
HETATM    7  N   UNL     1      -8.029   2.573 -32.773  1.00  0.00     0.131 NA
HETATM    8  C   UNL     1      -5.362   0.837 -31.150  1.00  0.00     0.164 C 
HETATM    9  C   UNL     1      -4.305   1.953 -31.198  1.00  0.00     0.063 C 
HETATM   10  H   UNL     1      -5.820   3.840 -33.571  1.00  0.00     0.178 HD
ENDROOT
BRANCH   1  11
HETATM   11  C   UNL     1      -3.364   3.863 -32.521  1.00  0.00    -0.035 A 
HETATM   12  C   UNL     1      -2.372   3.975 -31.535  1.00  0.00     0.012 A 
HETATM   13  C   UNL     1      -1.445   5.020 -31.572  1.00  0.00     0.037 A 
HETATM   14  C   UNL     1      -1.471   5.958 -32.604  1.00  0.00     0.068 A 
HETATM   15  C   UNL     1      -2.454   5.861 -33.587  1.00  0.00     0.037 A 
HETATM   16  C   UNL     1      -3.391   4.821 -33.546  1.00  0.00     0.012 A 
BRANCH  14  17
HETATM   17  O   UNL     1      -0.497   6.914 -32.534  1.00  0.00    -0.356 OA
HETATM   18  C   UNL     1       0.315   6.915 -31.366  1.00  0.00     0.210 C 
ENDBRANCH  14  17
ENDBRANCH   1  11
BRANCH   8  19
HETATM   19  C   UNL     1      -4.886  -0.426 -31.863  1.00  0.00    -0.031 A 
HETATM   20  C   UNL     1      -5.590  -1.020 -32.926  1.00  0.00     0.028 A 
HETATM   21  C   UNL     1      -5.092  -2.163 -33.554  1.00  0.00     0.011 A 
HETATM   22 BR   UNL     1      -6.060  -2.944 -34.978  1.00  0.00    -0.051 Br
HETATM   23  C   UNL     1      -3.890  -2.732 -33.144  1.00  0.00     0.019 A 
HETATM   24  C   UNL     1      -3.177  -2.153 -32.097  1.00  0.00     0.002 A 
HETATM   25  C   UNL     1      -3.669  -1.010 -31.463  1.00  0.00     0.009 A 
ENDBRANCH   8  19
BRANCH   6  26
HETATM   26  N   UNL     1      -9.948   1.404 -32.204  1.00  0.00    -0.229 N 
HETATM   27  H   UNL     1     -10.420   0.952 -31.434  1.00  0.00     0.174 HD
HETATM   28  H   UNL     1     -10.309   1.180 -33.120  1.00  0.00     0.174 HD
ENDBRANCH   6  26
TORSDOF 4
ENDMDL
MODEL 6
REMARK VINA RESULT:      -8.2      4.515      6.316
REMARK  4 active torsions:
REMARK  status: ('A' for Active; 'I' for Inactive)
REMARK    1  A    between atoms: O_2  and  C_3 
REMARK    2  A    between atoms: C_6  and  C_7 
REMARK    3  A    between atoms: C_12  and  N_13 
REMARK    4  A    between atoms: C_15  and  C_16 
ROOT
HETATM    1  C   UNL     1      -6.012   1.469 -32.976  1.00  0.00     0.135 C 
HETATM    2  N   UNL     1      -6.974   1.528 -31.880  1.00  0.00    -0.214 N 
HETATM    3  C   UNL     1      -7.574   2.693 -31.567  1.00  0.00     0.736 A 
HETATM    4  N   UNL     1      -7.497   3.779 -32.395  1.00  0.00    -0.074 N 
HETATM    5  N   UNL     1      -8.195   4.821 -31.914  1.00  0.00     0.037 NA
HETATM    6  C   UNL     1      -8.665   4.297 -30.784  1.00  0.00     0.753 A 
HETATM    7  N   UNL     1      -8.288   3.013 -30.520  1.00  0.00     0.131 NA
HETATM    8  C   UNL     1      -6.738   3.814 -33.637  1.00  0.00     0.164 C 
HETATM    9  C   UNL     1      -6.472   2.381 -34.131  1.00  0.00     0.063 C 
HETATM   10  H   UNL     1      -6.857   0.845 -31.135  1.00  0.00     0.178 HD
ENDROOT
BRANCH   1  11
HETATM   11  C   UNL     1      -5.850   0.044 -33.476  1.00  0.00    -0.035 A 
HETATM   12  C   UNL     1      -6.866  -0.617 -34.182  1.00  0.00     0.012 A 
HETATM   13  C   UNL     1      -6.667  -1.910 -34.674  1.00  0.00     0.037 A 
HETATM   14  C   UNL     1      -5.447  -2.560 -34.493  1.00  0.00     0.068 A 
HETATM   15  C   UNL     1      -4.430  -1.917 -33.789  1.00  0.00     0.037 A 
HETATM   16  C   UNL     1      -4.630  -0.625 -33.286  1.00  0.00     0.012 A 
BRANCH  14  17
HETATM   17  O   UNL     1      -5.377  -3.811 -35.041  1.00  0.00    -0.356 OA
HETATM   18  C   UNL     1      -6.610  -4.491 -35.238  1.00  0.00     0.210 C 
ENDBRANCH  14  17
ENDBRANCH   1  11
BRANCH   8  19
HETATM   19  C   UNL     1      -5.449   4.624 -33.527  1.00  0.00    -0.031 A 
HETATM   20  C   UNL     1      -4.977   5.157 -32.313  1.00  0.00     0.028 A 
HETATM   21  C   UNL     1      -3.779   5.871 -32.273  1.00  0.00     0.011 A 
HETATM   22 BR   UNL     1      -3.169   6.580 -30.629  1.00  0.00    -0.051 Br
HETATM   23  C   UNL     1      -3.027   6.065 -33.428  1.00  0.00     0.019 A 
HETATM   24  C   UNL     1      -3.476   5.539 -34.636  1.00  0.00     0.002 A 
HETATM   25  C   UNL     1      -4.675   4.824 -34.686  1.00  0.00     0.009 A 
ENDBRANCH   8  19
BRANCH   6  26
HETATM   26  N   UNL     1      -9.427   4.932 -29.899  1.00  0.00    -0.229 N 
HETATM   27  H   UNL     1      -9.753   5.854 -30.154  1.00  0.00     0.174 HD
HETATM   28  H   UNL     1      -9.184   4.817 -28.924  1.00  0.00     0.174 HD
ENDBRANCH   6  26
TORSDOF 4
ENDMDL
MODEL 7
REMARK VINA RESULT:      -8.1      3.953      6.660
REMARK  4 active torsions:
REMARK  status: ('A' for Active; 'I' for Inactive)
REMARK    1  A    between atoms: O_2  and  C_3 
REMARK    2  A    between atoms: C_6  and  C_7 
REMARK    3  A    between atoms: C_12  and  N_13 
REMARK    4  A    between atoms: C_15  and  C_16 
ROOT
HETATM    1  C   UNL     1      -6.712   0.528 -33.323  1.00  0.00     0.135 C 
HETATM    2  N   UNL     1      -8.082   0.336 -32.857  1.00  0.00    -0.214 N 
HETATM    3  C   UNL     1      -8.949   1.367 -32.861  1.00  0.00     0.736 A 
HETATM    4  N   UNL     1      -8.664   2.535 -33.514  1.00  0.00    -0.074 N 
HETATM    5  N   UNL     1      -9.676   3.413 -33.424  1.00  0.00     0.037 NA
HETATM    6  C   UNL     1     -10.542   2.712 -32.695  1.00  0.00     0.753 A 
HETATM    7  N   UNL     1     -10.128   1.472 -32.307  1.00  0.00     0.131 NA
HETATM    8  C   UNL     1      -7.412   2.806 -34.205  1.00  0.00     0.164 C 
HETATM    9  C   UNL     1      -6.695   1.485 -34.532  1.00  0.00     0.063 C 
HETATM   10  H   UNL     1      -8.229  -0.400 -32.170  1.00  0.00     0.178 HD
ENDROOT
BRANCH   1  11
HETATM   11  C   UNL     1      -6.081  -0.800 -33.706  1.00  0.00    -0.035 A 
HETATM   12  C   UNL     1      -4.776  -1.142 -33.323  1.00  0.00     0.012 A 
HETATM   13  C   UNL     1      -4.242  -2.392 -33.647  1.00  0.00     0.037 A 
HETATM   14  C   UNL     1      -5.004  -3.335 -34.337  1.00  0.00     0.068 A 
HETATM   15  C   UNL     1      -6.301  -3.006 -34.727  1.00  0.00     0.037 A 
HETATM   16  C   UNL     1      -6.835  -1.750 -34.413  1.00  0.00     0.012 A 
BRANCH  14  17
HETATM   17  O   UNL     1      -4.371  -4.523 -34.571  1.00  0.00    -0.356 OA
HETATM   18  C   UNL     1      -3.487  -4.986 -33.559  1.00  0.00     0.210 C 
ENDBRANCH  14  17
ENDBRANCH   1  11
BRANCH   8  19
HETATM   19  C   UNL     1      -6.506   3.771 -33.445  1.00  0.00    -0.031 A 
HETATM   20  C   UNL     1      -6.519   3.895 -32.044  1.00  0.00     0.028 A 
HETATM   21  C   UNL     1      -5.649   4.779 -31.404  1.00  0.00     0.011 A 
HETATM   22 BR   UNL     1      -5.690   4.930 -29.519  1.00  0.00    -0.051 Br
HETATM   23  C   UNL     1      -4.751   5.549 -32.137  1.00  0.00     0.019 A 
HETATM   24  C   UNL     1      -4.720   5.434 -33.525  1.00  0.00     0.002 A 
HETATM   25  C   UNL     1      -5.588   4.552 -34.173  1.00  0.00     0.009 A 
ENDBRANCH   8  19
BRANCH   6  26
HETATM   26  N   UNL     1     -11.737   3.139 -32.297  1.00  0.00    -0.229 N 
HETATM   27  H   UNL     1     -12.302   2.489 -31.768  1.00  0.00     0.174 HD
HETATM   28  H   UNL     1     -12.248   3.725 -32.943  1.00  0.00     0.174 HD
ENDBRANCH   6  26
TORSDOF 4
ENDMDL
MODEL 8
REMARK VINA RESULT:      -8.0      3.373      6.283
REMARK  4 active torsions:
REMARK  status: ('A' for Active; 'I' for Inactive)
REMARK    1  A    between atoms: O_2  and  C_3 
REMARK    2  A    between atoms: C_6  and  C_7 
REMARK    3  A    between atoms: C_12  and  N_13 
REMARK    4  A    between atoms: C_15  and  C_16 
ROOT
HETATM    1  C   UNL     1      -6.360   0.585 -32.857  1.00  0.00     0.135 C 
HETATM    2  N   UNL     1      -5.161   1.417 -32.823  1.00  0.00    -0.214 N 
HETATM    3  C   UNL     1      -5.087   2.464 -31.979  1.00  0.00     0.736 A 
HETATM    4  N   UNL     1      -6.000   2.636 -30.976  1.00  0.00    -0.074 N 
HETATM    5  N   UNL     1      -5.721   3.718 -30.230  1.00  0.00     0.037 NA
HETATM    6  C   UNL     1      -4.625   4.160 -30.844  1.00  0.00     0.753 A 
HETATM    7  N   UNL     1      -4.221   3.442 -31.931  1.00  0.00     0.131 NA
HETATM    8  C   UNL     1      -7.147   1.769 -30.750  1.00  0.00     0.164 C 
HETATM    9  C   UNL     1      -6.920   0.408 -31.431  1.00  0.00     0.063 C 
HETATM   10  H   UNL     1      -4.618   1.466 -33.682  1.00  0.00     0.178 HD
ENDROOT
BRANCH   1  11
HETATM   11  C   UNL     1      -6.057  -0.773 -33.466  1.00  0.00    -0.035 A 
HETATM   12  C   UNL     1      -4.785  -1.358 -33.385  1.00  0.00     0.012 A 
HETATM   13  C   UNL     1      -4.550  -2.631 -33.910  1.00  0.00     0.037 A 
HETATM   14  C   UNL     1      -5.583  -3.357 -34.504  1.00  0.00     0.068 A 
HETATM   15  C   UNL     1      -6.851  -2.786 -34.596  1.00  0.00     0.037 A 
HETATM   16  C   UNL     1      -7.086  -1.505 -34.080  1.00  0.00     0.012 A 
BRANCH  14  17
HETATM   17  O   UNL     1      -5.226  -4.596 -34.958  1.00  0.00    -0.356 OA
HETATM   18  C   UNL     1      -4.315  -5.333 -34.152  1.00  0.00     0.210 C 
ENDBRANCH  14  17
ENDBRANCH   1  11
BRANCH   8  19
HETATM   19  C   UNL     1      -8.469   2.402 -31.176  1.00  0.00    -0.031 A 
HETATM   20  C   UNL     1      -9.182   1.997 -32.319  1.00  0.00     0.028 A 
HETATM   21  C   UNL     1     -10.398   2.599 -32.645  1.00  0.00     0.011 A 
HETATM   22 BR   UNL     1     -11.334   2.040 -34.190  1.00  0.00    -0.051 Br
HETATM   23  C   UNL     1     -10.931   3.605 -31.843  1.00  0.00     0.019 A 
HETATM   24  C   UNL     1     -10.242   4.013 -30.705  1.00  0.00     0.002 A 
HETATM   25  C   UNL     1      -9.023   3.416 -30.372  1.00  0.00     0.009 A 
ENDBRANCH   8  19
BRANCH   6  26
HETATM   26  N   UNL     1      -3.936   5.245 -30.503  1.00  0.00    -0.229 N 
HETATM   27  H   UNL     1      -4.166   5.674 -29.619  1.00  0.00     0.174 HD
HETATM   28  H   UNL     1      -3.708   5.890 -31.247  1.00  0.00     0.174 HD
ENDBRANCH   6  26
TORSDOF 4
ENDMDL
MODEL 9
REMARK VINA RESULT:      -8.0      4.224      7.428
REMARK  4 active torsions:
REMARK  status: ('A' for Active; 'I' for Inactive)
REMARK    1  A    between atoms: O_2  and  C_3 
REMARK    2  A    between atoms: C_6  and  C_7 
REMARK    3  A    between atoms: C_12  and  N_13 
REMARK    4  A    between atoms: C_15  and  C_16 
ROOT
HETATM    1  C   UNL     1      -5.625   1.664 -32.679  1.00  0.00     0.135 C 
HETATM    2  N   UNL     1      -4.859   0.422 -32.702  1.00  0.00    -0.214 N 
HETATM    3  C   UNL     1      -5.255  -0.603 -33.482  1.00  0.00     0.736 A 
HETATM    4  N   UNL     1      -6.215  -0.438 -34.441  1.00  0.00    -0.074 N 
HETATM    5  N   UNL     1      -6.430  -1.573 -35.128  1.00  0.00     0.037 NA
HETATM    6  C   UNL     1      -5.568  -2.389 -34.525  1.00  0.00     0.753 A 
HETATM    7  N   UNL     1      -4.852  -1.846 -33.498  1.00  0.00     0.131 NA
HETATM    8  C   UNL     1      -6.933   0.805 -34.682  1.00  0.00     0.164 C 
HETATM    9  C   UNL     1      -6.147   1.989 -34.093  1.00  0.00     0.063 C 
HETATM   10  H   UNL     1      -4.334   0.197 -31.860  1.00  0.00     0.178 HD
ENDROOT
BRANCH   1  11
HETATM   11  C   UNL     1      -4.775   2.813 -32.165  1.00  0.00    -0.035 A 
HETATM   12  C   UNL     1      -3.379   2.828 -32.308  1.00  0.00     0.012 A 
HETATM   13  C   UNL     1      -2.629   3.923 -31.871  1.00  0.00     0.037 A 
HETATM   14  C   UNL     1      -3.255   5.034 -31.306  1.00  0.00     0.068 A 
HETATM   15  C   UNL     1      -4.641   5.030 -31.153  1.00  0.00     0.037 A 
HETATM   16  C   UNL     1      -5.394   3.929 -31.581  1.00  0.00     0.012 A 
BRANCH  14  17
HETATM   17  O   UNL     1      -2.410   6.044 -30.941  1.00  0.00    -0.356 OA
HETATM   18  C   UNL     1      -1.040   5.887 -31.287  1.00  0.00     0.210 C 
ENDBRANCH  14  17
ENDBRANCH   1  11
BRANCH   8  19
HETATM   19  C   UNL     1      -8.372   0.772 -34.173  1.00  0.00    -0.031 A 
HETATM   20  C   UNL     1      -9.388   1.598 -34.688  1.00  0.00     0.028 A 
HETATM   21  C   UNL     1     -10.692   1.506 -34.198  1.00  0.00     0.011 A 
HETATM   22 BR   UNL     1     -12.037   2.632 -34.903  1.00  0.00    -0.051 Br
HETATM   23  C   UNL     1     -11.012   0.593 -33.198  1.00  0.00     0.019 A 
HETATM   24  C   UNL     1     -10.020  -0.237 -32.682  1.00  0.00     0.002 A 
HETATM   25  C   UNL     1      -8.713  -0.151 -33.166  1.00  0.00     0.009 A 
ENDBRANCH   8  19
BRANCH   6  26
HETATM   26  N   UNL     1      -5.386  -3.673 -34.821  1.00  0.00    -0.229 N 
HETATM   27  H   UNL     1      -4.777  -3.880 -35.600  1.00  0.00     0.174 HD
HETATM   28  H   UNL     1      -6.190  -4.278 -34.731  1.00  0.00     0.174 HD
ENDBRANCH   6  26
TORSDOF 4
ENDMDL
MODEL 10
REMARK VINA RESULT:      -7.9      3.371      4.582
REMARK  4 active torsions:
REMARK  status: ('A' for Active; 'I' for Inactive)
REMARK    1  A    between atoms: O_2  and  C_3 
REMARK    2  A    between atoms: C_6  and  C_7 
REMARK    3  A    between atoms: C_12  and  N_13 
REMARK    4  A    between atoms: C_15  and  C_16 
ROOT
HETATM    1  C   UNL     1      -7.046   1.280 -33.215  1.00  0.00     0.135 C 
HETATM    2  N   UNL     1      -6.360  -0.003 -33.107  1.00  0.00    -0.214 N 
HETATM    3  C   UNL     1      -5.135  -0.071 -32.548  1.00  0.00     0.736 A 
HETATM    4  N   UNL     1      -4.609   0.984 -31.856  1.00  0.00    -0.074 N 
HETATM    5  N   UNL     1      -3.399   0.692 -31.351  1.00  0.00     0.037 NA
HETATM    6  C   UNL     1      -3.250  -0.559 -31.782  1.00  0.00     0.753 A 
HETATM    7  N   UNL     1      -4.272  -1.053 -32.539  1.00  0.00     0.131 NA
HETATM    8  C   UNL     1      -5.264   2.274 -31.699  1.00  0.00     0.164 C 
HETATM    9  C   UNL     1      -6.774   2.132 -31.959  1.00  0.00     0.063 C 
HETATM   10  H   UNL     1      -6.599  -0.707 -33.801  1.00  0.00     0.178 HD
ENDROOT
BRANCH   1  11
HETATM   11  C   UNL     1      -8.541   1.079 -33.390  1.00  0.00    -0.035 A 
HETATM   12  C   UNL     1      -9.230   0.031 -32.760  1.00  0.00     0.012 A 
HETATM   13  C   UNL     1     -10.614  -0.097 -32.899  1.00  0.00     0.037 A 
HETATM   14  C   UNL     1     -11.344   0.827 -33.646  1.00  0.00     0.068 A 
HETATM   15  C   UNL     1     -10.671   1.871 -34.281  1.00  0.00     0.037 A 
HETATM   16  C   UNL     1      -9.282   1.995 -34.152  1.00  0.00     0.012 A 
BRANCH  14  17
HETATM   17  O   UNL     1     -12.691   0.600 -33.684  1.00  0.00    -0.356 OA
HETATM   18  C   UNL     1     -13.485   1.577 -34.344  1.00  0.00     0.210 C 
ENDBRANCH  14  17
ENDBRANCH   1  11
BRANCH   8  19
HETATM   19  C   UNL     1      -4.642   3.370 -32.561  1.00  0.00    -0.031 A 
HETATM   20  C   UNL     1      -3.343   3.868 -32.350  1.00  0.00     0.028 A 
HETATM   21  C   UNL     1      -2.820   4.856 -33.186  1.00  0.00     0.011 A 
HETATM   22 BR   UNL     1      -1.073   5.512 -32.878  1.00  0.00    -0.051 Br
HETATM   23  C   UNL     1      -3.569   5.361 -34.245  1.00  0.00     0.019 A 
HETATM   24  C   UNL     1      -4.853   4.875 -34.471  1.00  0.00     0.002 A 
HETATM   25  C   UNL     1      -5.385   3.887 -33.638  1.00  0.00     0.009 A 
ENDBRANCH   8  19
BRANCH   6  26
HETATM   26  N   UNL     1      -2.188  -1.328 -31.564  1.00  0.00    -0.229 N 
HETATM   27  H   UNL     1      -1.600  -1.084 -30.780  1.00  0.00     0.174 HD
HETATM   28  H   UNL     1      -1.697  -1.667 -32.380  1.00  0.00     0.174 HD
ENDBRANCH   6  26
TORSDOF 4
ENDMDL
