MODEL 1
REMARK VINA RESULT:      -8.7      0.000      0.000
REMARK  3 active torsions:
REMARK  status: ('A' for Active; 'I' for Inactive)
REMARK    1  A    between atoms: C_10  and  C_11 
REMARK       I    between atoms: C_11  and  N_12 
REMARK    2  A    between atoms: N_12  and  C_13 
REMARK    3  A    between atoms: C_16  and  N_17 
ROOT
HETATM    1  C   UNL     1      -4.639   3.490 -31.238  1.00  0.00     0.258 C 
HETATM    2  N   UNL     1      -4.546   2.860 -32.459  1.00  0.00    -0.322 N 
HETATM    3  O   UNL     1      -4.898   2.915 -30.184  1.00  0.00    -0.267 OA
HETATM    4  H   UNL     1      -4.405   3.447 -33.270  1.00  0.00     0.169 HD
ENDROOT
BRANCH   2   5
HETATM    5  C   UNL     1      -4.518   1.471 -32.701  1.00  0.00     0.052 A 
HETATM    6  C   UNL     1      -3.462   0.620 -32.413  1.00  0.00     0.148 A 
HETATM    7  N   UNL     1      -3.427  -0.697 -32.757  1.00  0.00    -0.247 NA
HETATM    8  C   UNL     1      -4.477  -1.230 -33.415  1.00  0.00     0.105 A 
HETATM    9  C   UNL     1      -5.590  -0.442 -33.709  1.00  0.00     0.047 A 
HETATM   10  C   UNL     1      -5.613   0.908 -33.347  1.00  0.00     0.034 A 
BRANCH   8  11
HETATM   11  N   UNL     1      -4.397  -2.551 -33.881  1.00  0.00    -0.258 NA
HETATM   12  C   UNL     1      -5.666  -3.107 -34.406  1.00  0.00     0.199 C 
HETATM   13  C   UNL     1      -5.565  -4.584 -34.835  1.00  0.00     0.231 C 
HETATM   14  O   UNL     1      -6.403  -5.109 -35.569  1.00  0.00    -0.272 OA
HETATM   15  N   UNL     1      -4.556  -5.353 -34.309  1.00  0.00    -0.359 N 
HETATM   16  C   UNL     1      -3.374  -4.756 -33.721  1.00  0.00     0.137 C 
HETATM   17  H   UNL     1      -4.506  -6.289 -34.689  1.00  0.00     0.162 HD
HETATM   18  C   UNL     1      -3.682  -3.459 -32.968  1.00  0.00     0.117 C 
ENDBRANCH   8  11
ENDBRANCH   2   5
BRANCH   1  19
HETATM   19  C   UNL     1      -4.384   4.940 -31.252  1.00  0.00     0.063 A 
HETATM   20  C   UNL     1      -3.275   5.732 -31.730  1.00  0.00     0.046 A 
HETATM   21  C   UNL     1      -2.050   5.475 -32.384  1.00  0.00     0.130 A 
HETATM   22  C   UNL     1      -3.548   7.070 -31.413  1.00  0.00     0.046 A 
HETATM   23  C   UNL     1      -1.159   6.507 -32.690  1.00  0.00     0.043 A 
HETATM   24  F   UNL     1      -1.712   4.226 -32.735  1.00  0.00    -0.205 F 
HETATM   25  C   UNL     1      -1.466   7.817 -32.349  1.00  0.00     0.005 A 
HETATM   26  C   UNL     1      -2.668   8.123 -31.705  1.00  0.00     0.030 A 
HETATM   27  N   UNL     1      -4.773   7.104 -30.795  1.00  0.00    -0.364 N 
HETATM   28  H   UNL     1      -5.224   7.942 -30.451  1.00  0.00     0.165 HD
HETATM   29  C   UNL     1      -5.280   5.842 -30.694  1.00  0.00     0.106 A 
ENDBRANCH   1  19
TORSDOF 3
ENDMDL
MODEL 2
REMARK VINA RESULT:      -8.6      5.227      8.969
REMARK  3 active torsions:
REMARK  status: ('A' for Active; 'I' for Inactive)
REMARK    1  A    between atoms: C_10  and  C_11 
REMARK       I    between atoms: C_11  and  N_12 
REMARK    2  A    between atoms: N_12  and  C_13 
REMARK    3  A    between atoms: C_16  and  N_17 
ROOT
HETATM    1  C   UNL     1      -5.641   0.172 -32.969  1.00  0.00     0.258 C 
HETATM    2  N   UNL     1      -6.974  -0.176 -32.973  1.00  0.00    -0.322 N 
HETATM    3  O   UNL     1      -5.228   1.315 -33.145  1.00  0.00    -0.267 OA
HETATM    4  H   UNL     1      -7.192  -1.160 -32.896  1.00  0.00     0.169 HD
ENDROOT
BRANCH   2   5
HETATM    5  C   UNL     1      -8.083   0.695 -32.965  1.00  0.00     0.052 A 
HETATM    6  C   UNL     1      -8.456   1.522 -31.916  1.00  0.00     0.148 A 
HETATM    7  N   UNL     1      -9.591   2.272 -31.901  1.00  0.00    -0.247 NA
HETATM    8  C   UNL     1     -10.419   2.228 -32.966  1.00  0.00     0.105 A 
HETATM    9  C   UNL     1     -10.092   1.445 -34.072  1.00  0.00     0.047 A 
HETATM   10  C   UNL     1      -8.920   0.682 -34.074  1.00  0.00     0.034 A 
BRANCH   8  11
HETATM   11  N   UNL     1     -11.649   2.899 -32.908  1.00  0.00    -0.258 NA
HETATM   12  C   UNL     1     -12.842   2.034 -33.056  1.00  0.00     0.199 C 
HETATM   13  C   UNL     1     -14.174   2.810 -33.069  1.00  0.00     0.231 C 
HETATM   14  O   UNL     1     -15.255   2.255 -32.869  1.00  0.00    -0.272 OA
HETATM   15  N   UNL     1     -14.153   4.143 -33.399  1.00  0.00    -0.359 N 
HETATM   16  C   UNL     1     -12.936   4.925 -33.325  1.00  0.00     0.137 C 
HETATM   17  H   UNL     1     -15.049   4.605 -33.316  1.00  0.00     0.162 HD
HETATM   18  C   UNL     1     -11.696   4.122 -33.727  1.00  0.00     0.117 C 
ENDBRANCH   8  11
ENDBRANCH   2   5
BRANCH   1  19
HETATM   19  C   UNL     1      -4.699  -0.930 -32.715  1.00  0.00     0.063 A 
HETATM   20  C   UNL     1      -4.570  -2.254 -33.276  1.00  0.00     0.046 A 
HETATM   21  C   UNL     1      -5.230  -3.004 -34.275  1.00  0.00     0.130 A 
HETATM   22  C   UNL     1      -3.525  -2.897 -32.597  1.00  0.00     0.046 A 
HETATM   23  C   UNL     1      -4.859  -4.319 -34.560  1.00  0.00     0.043 A 
HETATM   24  F   UNL     1      -6.233  -2.464 -34.982  1.00  0.00    -0.205 F 
HETATM   25  C   UNL     1      -3.824  -4.921 -33.856  1.00  0.00     0.005 A 
HETATM   26  C   UNL     1      -3.137  -4.219 -32.861  1.00  0.00     0.030 A 
HETATM   27  N   UNL     1      -3.020  -2.007 -31.683  1.00  0.00    -0.364 N 
HETATM   28  H   UNL     1      -2.258  -2.201 -31.047  1.00  0.00     0.165 HD
HETATM   29  C   UNL     1      -3.710  -0.832 -31.745  1.00  0.00     0.106 A 
ENDBRANCH   1  19
TORSDOF 3
ENDMDL
MODEL 3
REMARK VINA RESULT:      -8.6      5.714      9.606
REMARK  3 active torsions:
REMARK  status: ('A' for Active; 'I' for Inactive)
REMARK    1  A    between atoms: C_10  and  C_11 
REMARK       I    between atoms: C_11  and  N_12 
REMARK    2  A    between atoms: N_12  and  C_13 
REMARK    3  A    between atoms: C_16  and  N_17 
ROOT
HETATM    1  C   UNL     1      -6.829  -0.212 -34.251  1.00  0.00     0.258 C 
HETATM    2  N   UNL     1      -7.768  -0.010 -33.264  1.00  0.00    -0.322 N 
HETATM    3  O   UNL     1      -6.900   0.271 -35.378  1.00  0.00    -0.267 OA
HETATM    4  H   UNL     1      -7.644  -0.522 -32.401  1.00  0.00     0.169 HD
ENDROOT
BRANCH   2   5
HETATM    5  C   UNL     1      -8.832   0.915 -33.276  1.00  0.00     0.052 A 
HETATM    6  C   UNL     1      -8.723   2.277 -33.047  1.00  0.00     0.148 A 
HETATM    7  N   UNL     1      -9.785   3.125 -32.961  1.00  0.00    -0.247 NA
HETATM    8  C   UNL     1     -11.031   2.630 -33.111  1.00  0.00     0.105 A 
HETATM    9  C   UNL     1     -11.216   1.274 -33.378  1.00  0.00     0.047 A 
HETATM   10  C   UNL     1     -10.115   0.417 -33.466  1.00  0.00     0.034 A 
BRANCH   8  11
HETATM   11  N   UNL     1     -12.134   3.472 -32.903  1.00  0.00    -0.258 NA
HETATM   12  C   UNL     1     -13.407   2.773 -32.611  1.00  0.00     0.199 C 
HETATM   13  C   UNL     1     -14.615   3.721 -32.466  1.00  0.00     0.231 C 
HETATM   14  O   UNL     1     -15.662   3.365 -31.926  1.00  0.00    -0.272 OA
HETATM   15  N   UNL     1     -14.543   4.968 -33.037  1.00  0.00    -0.359 N 
HETATM   16  C   UNL     1     -13.273   5.569 -33.389  1.00  0.00     0.137 C 
HETATM   17  H   UNL     1     -15.338   5.561 -32.840  1.00  0.00     0.162 HD
HETATM   18  C   UNL     1     -12.259   4.544 -33.904  1.00  0.00     0.117 C 
ENDBRANCH   8  11
ENDBRANCH   2   5
BRANCH   1  19
HETATM   19  C   UNL     1      -5.680  -1.051 -33.872  1.00  0.00     0.063 A 
HETATM   20  C   UNL     1      -5.385  -2.451 -34.069  1.00  0.00     0.046 A 
HETATM   21  C   UNL     1      -6.017  -3.544 -34.703  1.00  0.00     0.130 A 
HETATM   22  C   UNL     1      -4.167  -2.717 -33.427  1.00  0.00     0.046 A 
HETATM   23  C   UNL     1      -5.453  -4.821 -34.681  1.00  0.00     0.043 A 
HETATM   24  F   UNL     1      -7.179  -3.378 -35.350  1.00  0.00    -0.205 F 
HETATM   25  C   UNL     1      -4.249  -5.042 -34.026  1.00  0.00     0.005 A 
HETATM   26  C   UNL     1      -3.583  -3.992 -33.388  1.00  0.00     0.030 A 
HETATM   27  N   UNL     1      -3.722  -1.538 -32.886  1.00  0.00    -0.364 N 
HETATM   28  H   UNL     1      -2.865  -1.430 -32.359  1.00  0.00     0.165 HD
HETATM   29  C   UNL     1      -4.614  -0.538 -33.145  1.00  0.00     0.106 A 
ENDBRANCH   1  19
TORSDOF 3
ENDMDL
MODEL 4
REMARK VINA RESULT:      -8.4      2.281      2.699
REMARK  3 active torsions:
REMARK  status: ('A' for Active; 'I' for Inactive)
REMARK    1  A    between atoms: C_10  and  C_11 
REMARK       I    between atoms: C_11  and  N_12 
REMARK    2  A    between atoms: N_12  and  C_13 
REMARK    3  A    between atoms: C_16  and  N_17 
ROOT
HETATM    1  C   UNL     1      -2.512   4.392 -31.632  1.00  0.00     0.258 C 
HETATM    2  N   UNL     1      -3.389   3.560 -30.973  1.00  0.00    -0.322 N 
HETATM    3  O   UNL     1      -1.875   4.070 -32.632  1.00  0.00    -0.267 OA
HETATM    4  H   UNL     1      -3.797   3.908 -30.116  1.00  0.00     0.169 HD
ENDROOT
BRANCH   2   5
HETATM    5  C   UNL     1      -3.871   2.310 -31.413  1.00  0.00     0.052 A 
HETATM    6  C   UNL     1      -3.320   1.076 -31.106  1.00  0.00     0.148 A 
HETATM    7  N   UNL     1      -3.748  -0.104 -31.633  1.00  0.00    -0.247 NA
HETATM    8  C   UNL     1      -4.777  -0.097 -32.506  1.00  0.00     0.105 A 
HETATM    9  C   UNL     1      -5.403   1.105 -32.836  1.00  0.00     0.047 A 
HETATM   10  C   UNL     1      -4.954   2.308 -32.284  1.00  0.00     0.034 A 
BRANCH   8  11
HETATM   11  N   UNL     1      -5.143  -1.290 -33.146  1.00  0.00    -0.258 NA
HETATM   12  C   UNL     1      -4.028  -2.230 -33.403  1.00  0.00     0.199 C 
HETATM   13  C   UNL     1      -4.449  -3.494 -34.178  1.00  0.00     0.231 C 
HETATM   14  O   UNL     1      -3.748  -4.507 -34.205  1.00  0.00    -0.272 OA
HETATM   15  N   UNL     1      -5.598  -3.452 -34.928  1.00  0.00    -0.359 N 
HETATM   16  C   UNL     1      -6.619  -2.451 -34.697  1.00  0.00     0.137 C 
HETATM   17  H   UNL     1      -5.852  -4.336 -35.350  1.00  0.00     0.162 HD
HETATM   18  C   UNL     1      -6.034  -1.093 -34.302  1.00  0.00     0.117 C 
ENDBRANCH   8  11
ENDBRANCH   2   5
BRANCH   1  19
HETATM   19  C   UNL     1      -2.382   5.748 -31.073  1.00  0.00     0.063 A 
HETATM   20  C   UNL     1      -1.398   6.359 -30.210  1.00  0.00     0.046 A 
HETATM   21  C   UNL     1      -0.191   5.953 -29.599  1.00  0.00     0.130 A 
HETATM   22  C   UNL     1      -1.827   7.667 -29.945  1.00  0.00     0.046 A 
HETATM   23  C   UNL     1       0.528   6.816 -28.768  1.00  0.00     0.043 A 
HETATM   24  F   UNL     1       0.300   4.723 -29.806  1.00  0.00    -0.205 F 
HETATM   25  C   UNL     1       0.061   8.101 -28.525  1.00  0.00     0.005 A 
HETATM   26  C   UNL     1      -1.125   8.550 -29.110  1.00  0.00     0.030 A 
HETATM   27  N   UNL     1      -3.000   7.861 -30.629  1.00  0.00    -0.364 N 
HETATM   28  H   UNL     1      -3.541   8.716 -30.619  1.00  0.00     0.165 HD
HETATM   29  C   UNL     1      -3.340   6.725 -31.305  1.00  0.00     0.106 A 
ENDBRANCH   1  19
TORSDOF 3
ENDMDL
MODEL 5
REMARK VINA RESULT:      -8.3      2.629      9.424
REMARK  3 active torsions:
REMARK  status: ('A' for Active; 'I' for Inactive)
REMARK    1  A    between atoms: C_10  and  C_11 
REMARK       I    between atoms: C_11  and  N_12 
REMARK    2  A    between atoms: N_12  and  C_13 
REMARK    3  A    between atoms: C_16  and  N_17 
ROOT
HETATM    1  C   UNL     1      -4.803   0.054 -32.508  1.00  0.00     0.258 C 
HETATM    2  N   UNL     1      -4.820   1.341 -32.999  1.00  0.00    -0.322 N 
HETATM    3  O   UNL     1      -4.263  -0.274 -31.455  1.00  0.00    -0.267 OA
HETATM    4  H   UNL     1      -5.228   1.479 -33.914  1.00  0.00     0.169 HD
ENDROOT
BRANCH   2   5
HETATM    5  C   UNL     1      -4.427   2.516 -32.325  1.00  0.00     0.052 A 
HETATM    6  C   UNL     1      -5.272   3.390 -31.661  1.00  0.00     0.148 A 
HETATM    7  N   UNL     1      -4.874   4.570 -31.112  1.00  0.00    -0.247 NA
HETATM    8  C   UNL     1      -3.576   4.929 -31.202  1.00  0.00     0.105 A 
HETATM    9  C   UNL     1      -2.660   4.083 -31.827  1.00  0.00     0.047 A 
HETATM   10  C   UNL     1      -3.085   2.872 -32.383  1.00  0.00     0.034 A 
BRANCH   8  11
HETATM   11  N   UNL     1      -3.180   6.196 -30.749  1.00  0.00    -0.258 NA
HETATM   12  C   UNL     1      -3.805   7.337 -31.457  1.00  0.00     0.199 C 
HETATM   13  C   UNL     1      -3.291   8.713 -30.991  1.00  0.00     0.231 C 
HETATM   14  O   UNL     1      -3.904   9.754 -31.230  1.00  0.00    -0.272 OA
HETATM   15  N   UNL     1      -2.070   8.780 -30.366  1.00  0.00    -0.359 N 
HETATM   16  C   UNL     1      -1.457   7.611 -29.768  1.00  0.00     0.137 C 
HETATM   17  H   UNL     1      -1.829   9.700 -30.022  1.00  0.00     0.162 HD
HETATM   18  C   UNL     1      -1.726   6.333 -30.567  1.00  0.00     0.117 C 
ENDBRANCH   8  11
ENDBRANCH   2   5
BRANCH   1  19
HETATM   19  C   UNL     1      -5.511  -0.946 -33.325  1.00  0.00     0.063 A 
HETATM   20  C   UNL     1      -5.190  -2.302 -33.702  1.00  0.00     0.046 A 
HETATM   21  C   UNL     1      -4.142  -3.211 -33.435  1.00  0.00     0.130 A 
HETATM   22  C   UNL     1      -6.206  -2.751 -34.558  1.00  0.00     0.046 A 
HETATM   23  C   UNL     1      -4.124  -4.486 -34.004  1.00  0.00     0.043 A 
HETATM   24  F   UNL     1      -3.135  -2.871 -32.619  1.00  0.00    -0.205 F 
HETATM   25  C   UNL     1      -5.146  -4.886 -34.855  1.00  0.00     0.005 A 
HETATM   26  C   UNL     1      -6.208  -4.024 -35.146  1.00  0.00     0.030 A 
HETATM   27  N   UNL     1      -7.118  -1.733 -34.681  1.00  0.00    -0.364 N 
HETATM   28  H   UNL     1      -7.958  -1.773 -35.244  1.00  0.00     0.165 HD
HETATM   29  C   UNL     1      -6.715  -0.653 -33.951  1.00  0.00     0.106 A 
ENDBRANCH   1  19
TORSDOF 3
ENDMDL
MODEL 6
REMARK VINA RESULT:      -8.0      2.848      9.332
REMARK  3 active torsions:
REMARK  status: ('A' for Active; 'I' for Inactive)
REMARK    1  A    between atoms: C_10  and  C_11 
REMARK       I    between atoms: C_11  and  N_12 
REMARK    2  A    between atoms: N_12  and  C_13 
REMARK    3  A    between atoms: C_16  and  N_17 
ROOT
HETATM    1  C   UNL     1      -4.739   1.148 -32.143  1.00  0.00     0.258 C 
HETATM    2  N   UNL     1      -4.705   2.394 -32.729  1.00  0.00    -0.322 N 
HETATM    3  O   UNL     1      -4.055   0.822 -31.177  1.00  0.00    -0.267 OA
HETATM    4  H   UNL     1      -5.255   2.523 -33.567  1.00  0.00     0.169 HD
ENDROOT
BRANCH   2   5
HETATM    5  C   UNL     1      -4.072   3.552 -32.233  1.00  0.00     0.052 A 
HETATM    6  C   UNL     1      -2.721   3.845 -32.337  1.00  0.00     0.148 A 
HETATM    7  N   UNL     1      -2.125   4.921 -31.755  1.00  0.00    -0.247 NA
HETATM    8  C   UNL     1      -2.879   5.774 -31.031  1.00  0.00     0.105 A 
HETATM    9  C   UNL     1      -4.252   5.562 -30.910  1.00  0.00     0.047 A 
HETATM   10  C   UNL     1      -4.850   4.454 -31.516  1.00  0.00     0.034 A 
BRANCH   8  11
HETATM   11  N   UNL     1      -2.254   6.815 -30.327  1.00  0.00    -0.258 NA
HETATM   12  C   UNL     1      -0.901   6.499 -29.815  1.00  0.00     0.199 C 
HETATM   13  C   UNL     1      -0.274   7.633 -28.979  1.00  0.00     0.231 C 
HETATM   14  O   UNL     1       0.934   7.680 -28.745  1.00  0.00    -0.272 OA
HETATM   15  N   UNL     1      -1.106   8.565 -28.410  1.00  0.00    -0.359 N 
HETATM   16  C   UNL     1      -2.457   8.771 -28.891  1.00  0.00     0.137 C 
HETATM   17  H   UNL     1      -0.624   9.320 -27.939  1.00  0.00     0.162 HD
HETATM   18  C   UNL     1      -3.127   7.470 -29.339  1.00  0.00     0.117 C 
ENDBRANCH   8  11
ENDBRANCH   2   5
BRANCH   1  19
HETATM   19  C   UNL     1      -5.687   0.192 -32.740  1.00  0.00     0.063 A 
HETATM   20  C   UNL     1      -5.507  -1.085 -33.390  1.00  0.00     0.046 A 
HETATM   21  C   UNL     1      -4.415  -1.932 -33.683  1.00  0.00     0.130 A 
HETATM   22  C   UNL     1      -6.768  -1.514 -33.827  1.00  0.00     0.046 A 
HETATM   23  C   UNL     1      -4.591  -3.130 -34.378  1.00  0.00     0.043 A 
HETATM   24  F   UNL     1      -3.174  -1.605 -33.293  1.00  0.00    -0.205 F 
HETATM   25  C   UNL     1      -5.857  -3.513 -34.800  1.00  0.00     0.005 A 
HETATM   26  C   UNL     1      -6.970  -2.711 -34.531  1.00  0.00     0.030 A 
HETATM   27  N   UNL     1      -7.680  -0.565 -33.443  1.00  0.00    -0.364 N 
HETATM   28  H   UNL     1      -8.674  -0.609 -33.629  1.00  0.00     0.165 HD
HETATM   29  C   UNL     1      -7.048   0.456 -32.795  1.00  0.00     0.106 A 
ENDBRANCH   1  19
TORSDOF 3
ENDMDL
MODEL 7
REMARK VINA RESULT:      -7.9      4.735      8.957
REMARK  3 active torsions:
REMARK  status: ('A' for Active; 'I' for Inactive)
REMARK    1  A    between atoms: C_10  and  C_11 
REMARK       I    between atoms: C_11  and  N_12 
REMARK    2  A    between atoms: N_12  and  C_13 
REMARK    3  A    between atoms: C_16  and  N_17 
ROOT
HETATM    1  C   UNL     1      -8.448   2.421 -32.656  1.00  0.00     0.258 C 
HETATM    2  N   UNL     1      -7.254   1.962 -33.167  1.00  0.00    -0.322 N 
HETATM    3  O   UNL     1      -8.565   3.454 -32.002  1.00  0.00    -0.267 OA
HETATM    4  H   UNL     1      -7.266   1.059 -33.623  1.00  0.00     0.169 HD
ENDROOT
BRANCH   2   5
HETATM    5  C   UNL     1      -6.028   2.656 -33.225  1.00  0.00     0.052 A 
HETATM    6  C   UNL     1      -4.884   2.342 -32.507  1.00  0.00     0.148 A 
HETATM    7  N   UNL     1      -3.752   3.096 -32.507  1.00  0.00    -0.247 NA
HETATM    8  C   UNL     1      -3.714   4.222 -33.250  1.00  0.00     0.105 A 
HETATM    9  C   UNL     1      -4.815   4.583 -34.025  1.00  0.00     0.047 A 
HETATM   10  C   UNL     1      -5.971   3.797 -34.017  1.00  0.00     0.034 A 
BRANCH   8  11
HETATM   11  N   UNL     1      -2.599   5.068 -33.160  1.00  0.00    -0.258 NA
HETATM   12  C   UNL     1      -1.729   4.833 -31.983  1.00  0.00     0.199 C 
HETATM   13  C   UNL     1      -0.558   5.829 -31.869  1.00  0.00     0.231 C 
HETATM   14  O   UNL     1       0.422   5.605 -31.159  1.00  0.00    -0.272 OA
HETATM   15  N   UNL     1      -0.659   7.038 -32.514  1.00  0.00    -0.359 N 
HETATM   16  C   UNL     1      -1.594   7.242 -33.602  1.00  0.00     0.137 C 
HETATM   17  H   UNL     1       0.173   7.610 -32.457  1.00  0.00     0.162 HD
HETATM   18  C   UNL     1      -2.910   6.487 -33.397  1.00  0.00     0.117 C 
ENDBRANCH   8  11
ENDBRANCH   2   5
BRANCH   1  19
HETATM   19  C   UNL     1      -9.627   1.594 -32.959  1.00  0.00     0.063 A 
HETATM   20  C   UNL     1     -10.863   1.872 -33.652  1.00  0.00     0.046 A 
HETATM   21  C   UNL     1     -11.423   2.979 -34.328  1.00  0.00     0.130 A 
HETATM   22  C   UNL     1     -11.656   0.718 -33.575  1.00  0.00     0.046 A 
HETATM   23  C   UNL     1     -12.703   2.920 -34.882  1.00  0.00     0.043 A 
HETATM   24  F   UNL     1     -10.731   4.119 -34.460  1.00  0.00    -0.205 F 
HETATM   25  C   UNL     1     -13.459   1.760 -34.774  1.00  0.00     0.005 A 
HETATM   26  C   UNL     1     -12.947   0.636 -34.118  1.00  0.00     0.030 A 
HETATM   27  N   UNL     1     -10.936  -0.229 -32.892  1.00  0.00    -0.364 N 
HETATM   28  H   UNL     1     -11.263  -1.164 -32.681  1.00  0.00     0.165 HD
HETATM   29  C   UNL     1      -9.726   0.280 -32.521  1.00  0.00     0.106 A 
ENDBRANCH   1  19
TORSDOF 3
ENDMDL
MODEL 8
REMARK VINA RESULT:      -7.9      3.331      9.607
REMARK  3 active torsions:
REMARK  status: ('A' for Active; 'I' for Inactive)
REMARK    1  A    between atoms: C_10  and  C_11 
REMARK       I    between atoms: C_11  and  N_12 
REMARK    2  A    between atoms: N_12  and  C_13 
REMARK    3  A    between atoms: C_16  and  N_17 
ROOT
HETATM    1  C   UNL     1      -5.497   0.414 -32.737  1.00  0.00     0.258 C 
HETATM    2  N   UNL     1      -5.480   0.800 -31.415  1.00  0.00    -0.322 N 
HETATM    3  O   UNL     1      -5.946   1.103 -33.649  1.00  0.00    -0.267 OA
HETATM    4  H   UNL     1      -5.156   0.118 -30.741  1.00  0.00     0.169 HD
ENDROOT
BRANCH   2   5
HETATM    5  C   UNL     1      -5.762   2.080 -30.896  1.00  0.00     0.052 A 
HETATM    6  C   UNL     1      -4.878   3.146 -30.843  1.00  0.00     0.148 A 
HETATM    7  N   UNL     1      -5.150   4.335 -30.241  1.00  0.00    -0.247 NA
HETATM    8  C   UNL     1      -6.353   4.513 -29.656  1.00  0.00     0.105 A 
HETATM    9  C   UNL     1      -7.306   3.497 -29.699  1.00  0.00     0.047 A 
HETATM   10  C   UNL     1      -7.013   2.281 -30.325  1.00  0.00     0.034 A 
BRANCH   8  11
HETATM   11  N   UNL     1      -6.596   5.687 -28.927  1.00  0.00    -0.258 NA
HETATM   12  C   UNL     1      -8.016   5.927 -28.583  1.00  0.00     0.199 C 
HETATM   13  C   UNL     1      -8.261   7.263 -27.854  1.00  0.00     0.231 C 
HETATM   14  O   UNL     1      -9.296   7.483 -27.224  1.00  0.00    -0.272 OA
HETATM   15  N   UNL     1      -7.330   8.263 -27.987  1.00  0.00    -0.359 N 
HETATM   16  C   UNL     1      -5.974   7.987 -28.418  1.00  0.00     0.137 C 
HETATM   17  H   UNL     1      -7.517   9.082 -27.424  1.00  0.00     0.162 HD
HETATM   18  C   UNL     1      -5.905   6.872 -29.465  1.00  0.00     0.117 C 
ENDBRANCH   8  11
ENDBRANCH   2   5
BRANCH   1  19
HETATM   19  C   UNL     1      -4.909  -0.906 -33.020  1.00  0.00     0.063 A 
HETATM   20  C   UNL     1      -5.388  -2.049 -33.760  1.00  0.00     0.046 A 
HETATM   21  C   UNL     1      -6.540  -2.362 -34.515  1.00  0.00     0.130 A 
HETATM   22  C   UNL     1      -4.427  -3.062 -33.635  1.00  0.00     0.046 A 
HETATM   23  C   UNL     1      -6.708  -3.620 -35.098  1.00  0.00     0.043 A 
HETATM   24  F   UNL     1      -7.505  -1.450 -34.697  1.00  0.00    -0.205 F 
HETATM   25  C   UNL     1      -5.734  -4.598 -34.940  1.00  0.00     0.005 A 
HETATM   26  C   UNL     1      -4.574  -4.336 -34.206  1.00  0.00     0.030 A 
HETATM   27  N   UNL     1      -3.398  -2.560 -32.879  1.00  0.00    -0.364 N 
HETATM   28  H   UNL     1      -2.565  -3.074 -32.621  1.00  0.00     0.165 HD
HETATM   29  C   UNL     1      -3.674  -1.277 -32.508  1.00  0.00     0.106 A 
ENDBRANCH   1  19
TORSDOF 3
ENDMDL
MODEL 9
REMARK VINA RESULT:      -7.8      4.615      9.658
REMARK  3 active torsions:
REMARK  status: ('A' for Active; 'I' for Inactive)
REMARK    1  A    between atoms: C_10  and  C_11 
REMARK       I    between atoms: C_11  and  N_12 
REMARK    2  A    between atoms: N_12  and  C_13 
REMARK    3  A    between atoms: C_16  and  N_17 
ROOT
HETATM    1  C   UNL     1      -6.148  -0.050 -33.241  1.00  0.00     0.258 C 
HETATM    2  N   UNL     1      -6.991   0.022 -32.154  1.00  0.00    -0.322 N 
HETATM    3  O   UNL     1      -6.140   0.764 -34.161  1.00  0.00    -0.267 OA
HETATM    4  H   UNL     1      -6.961  -0.747 -31.498  1.00  0.00     0.169 HD
ENDROOT
BRANCH   2   5
HETATM    5  C   UNL     1      -7.822   1.101 -31.790  1.00  0.00     0.052 A 
HETATM    6  C   UNL     1      -9.086   1.359 -32.298  1.00  0.00     0.148 A 
HETATM    7  N   UNL     1      -9.817   2.467 -32.002  1.00  0.00    -0.247 NA
HETATM    8  C   UNL     1      -9.302   3.385 -31.157  1.00  0.00     0.105 A 
HETATM    9  C   UNL     1      -8.050   3.177 -30.580  1.00  0.00     0.047 A 
HETATM   10  C   UNL     1      -7.312   2.031 -30.892  1.00  0.00     0.034 A 
BRANCH   8  11
HETATM   11  N   UNL     1      -9.994   4.586 -30.943  1.00  0.00    -0.258 NA
HETATM   12  C   UNL     1      -9.336   5.529 -30.008  1.00  0.00     0.199 C 
HETATM   13  C   UNL     1     -10.159   6.803 -29.732  1.00  0.00     0.231 C 
HETATM   14  O   UNL     1      -9.651   7.815 -29.247  1.00  0.00    -0.272 OA
HETATM   15  N   UNL     1     -11.513   6.771 -29.955  1.00  0.00    -0.359 N 
HETATM   16  C   UNL     1     -12.119   5.769 -30.807  1.00  0.00     0.137 C 
HETATM   17  H   UNL     1     -11.977   7.660 -29.824  1.00  0.00     0.162 HD
HETATM   18  C   UNL     1     -11.433   4.405 -30.691  1.00  0.00     0.117 C 
ENDBRANCH   8  11
ENDBRANCH   2   5
BRANCH   1  19
HETATM   19  C   UNL     1      -5.205  -1.180 -33.239  1.00  0.00     0.063 A 
HETATM   20  C   UNL     1      -5.255  -2.496 -33.832  1.00  0.00     0.046 A 
HETATM   21  C   UNL     1      -6.161  -3.208 -34.649  1.00  0.00     0.130 A 
HETATM   22  C   UNL     1      -4.097  -3.179 -33.436  1.00  0.00     0.046 A 
HETATM   23  C   UNL     1      -5.909  -4.527 -35.034  1.00  0.00     0.043 A 
HETATM   24  F   UNL     1      -7.289  -2.629 -35.084  1.00  0.00    -0.205 F 
HETATM   25  C   UNL     1      -4.753  -5.169 -34.611  1.00  0.00     0.005 A 
HETATM   26  C   UNL     1      -3.824  -4.505 -33.805  1.00  0.00     0.030 A 
HETATM   27  N   UNL     1      -3.358  -2.320 -32.662  1.00  0.00    -0.364 N 
HETATM   28  H   UNL     1      -2.470  -2.547 -32.233  1.00  0.00     0.165 HD
HETATM   29  C   UNL     1      -4.007  -1.127 -32.538  1.00  0.00     0.106 A 
ENDBRANCH   1  19
TORSDOF 3
ENDMDL
MODEL 10
REMARK VINA RESULT:      -7.8      1.706      2.505
REMARK  3 active torsions:
REMARK  status: ('A' for Active; 'I' for Inactive)
REMARK    1  A    between atoms: C_10  and  C_11 
REMARK       I    between atoms: C_11  and  N_12 
REMARK    2  A    between atoms: N_12  and  C_13 
REMARK    3  A    between atoms: C_16  and  N_17 
ROOT
HETATM    1  C   UNL     1      -3.155   3.484 -31.952  1.00  0.00     0.258 C 
HETATM    2  N   UNL     1      -3.647   2.406 -31.250  1.00  0.00    -0.322 N 
HETATM    3  O   UNL     1      -2.606   3.399 -33.048  1.00  0.00    -0.267 OA
HETATM    4  H   UNL     1      -4.010   2.587 -30.324  1.00  0.00     0.169 HD
ENDROOT
BRANCH   2   5
HETATM    5  C   UNL     1      -3.804   1.084 -31.716  1.00  0.00     0.052 A 
HETATM    6  C   UNL     1      -3.016   0.001 -31.361  1.00  0.00     0.148 A 
HETATM    7  N   UNL     1      -3.129  -1.239 -31.910  1.00  0.00    -0.247 NA
HETATM    8  C   UNL     1      -4.065  -1.452 -32.859  1.00  0.00     0.105 A 
HETATM    9  C   UNL     1      -4.917  -0.417 -33.243  1.00  0.00     0.047 A 
HETATM   10  C   UNL     1      -4.791   0.850 -32.667  1.00  0.00     0.034 A 
BRANCH   8  11
HETATM   11  N   UNL     1      -4.107  -2.690 -33.517  1.00  0.00    -0.258 NA
HETATM   12  C   UNL     1      -5.417  -3.036 -34.115  1.00  0.00     0.199 C 
HETATM   13  C   UNL     1      -5.453  -4.436 -34.761  1.00  0.00     0.231 C 
HETATM   14  O   UNL     1      -6.329  -4.763 -35.562  1.00  0.00    -0.272 OA
HETATM   15  N   UNL     1      -4.529  -5.368 -34.359  1.00  0.00    -0.359 N 
HETATM   16  C   UNL     1      -3.302  -4.982 -33.692  1.00  0.00     0.137 C 
HETATM   17  H   UNL     1      -4.564  -6.238 -34.874  1.00  0.00     0.162 HD
HETATM   18  C   UNL     1      -3.492  -3.789 -32.752  1.00  0.00     0.117 C 
ENDBRANCH   8  11
ENDBRANCH   2   5
BRANCH   1  19
HETATM   19  C   UNL     1      -3.345   4.797 -31.314  1.00  0.00     0.063 A 
HETATM   20  C   UNL     1      -4.521   5.502 -30.861  1.00  0.00     0.046 A 
HETATM   21  C   UNL     1      -5.907   5.236 -30.806  1.00  0.00     0.130 A 
HETATM   22  C   UNL     1      -4.104   6.756 -30.394  1.00  0.00     0.046 A 
HETATM   23  C   UNL     1      -6.809   6.183 -30.315  1.00  0.00     0.043 A 
HETATM   24  F   UNL     1      -6.394   4.058 -31.221  1.00  0.00    -0.205 F 
HETATM   25  C   UNL     1      -6.353   7.417 -29.872  1.00  0.00     0.005 A 
HETATM   26  C   UNL     1      -4.991   7.726 -29.902  1.00  0.00     0.030 A 
HETATM   27  N   UNL     1      -2.740   6.811 -30.528  1.00  0.00    -0.364 N 
HETATM   28  H   UNL     1      -2.165   7.604 -30.273  1.00  0.00     0.165 HD
HETATM   29  C   UNL     1      -2.276   5.650 -31.074  1.00  0.00     0.106 A 
ENDBRANCH   1  19
TORSDOF 3
ENDMDL
