MODEL 1
REMARK VINA RESULT:     -10.4      0.000      0.000
REMARK  7 active torsions:
REMARK  status: ('A' for Active; 'I' for Inactive)
REMARK    1  A    between atoms: C_2  and  C_3 
REMARK    2  A    between atoms: C_6  and  C_7 
REMARK    3  A    between atoms: C_10  and  C_11 
REMARK       I    between atoms: C_11  and  N_12 
REMARK    4  A    between atoms: N_12  and  C_13 
REMARK    5  A    between atoms: C_25  and  C_26 
REMARK       I    between atoms: C_26  and  N_27 
REMARK    6  A    between atoms: N_27  and  C_28 
REMARK    7  A    between atoms: C_31  and  O_32 
ROOT
HETATM    1  C   UNL     1      -7.818   1.388 -32.310  1.00  0.00     0.185 C 
HETATM    2  N   UNL     1      -6.775   2.068 -31.528  1.00  0.00    -0.239 N 
HETATM    3  C   UNL     1      -6.285   3.318 -31.822  1.00  0.00     0.142 A 
HETATM    4  C   UNL     1      -5.264   3.540 -30.916  1.00  0.00     0.097 A 
HETATM    5  C   UNL     1      -5.323   2.411 -30.055  1.00  0.00     0.160 A 
HETATM    6  N   UNL     1      -6.254   1.522 -30.410  1.00  0.00    -0.181 NA
HETATM    7  N   UNL     1      -6.875   4.030 -32.820  1.00  0.00    -0.343 N 
HETATM    8  C   UNL     1      -8.079   3.616 -33.414  1.00  0.00     0.021 C 
HETATM    9  C   UNL     1      -8.753   4.647 -34.289  1.00  0.00     0.069 C 
HETATM   10  C   UNL     1      -8.581   2.374 -33.181  1.00  0.00     0.061 C 
HETATM   11  H   UNL     1      -6.751   5.043 -32.853  1.00  0.00     0.167 HD
ENDROOT
BRANCH  10  12
HETATM   12  C   UNL     1      -9.988   2.019 -33.563  1.00  0.00     0.256 C 
HETATM   13  N   UNL     1     -10.938   2.282 -32.598  1.00  0.00    -0.323 N 
HETATM   14  H   UNL     1     -10.627   2.567 -31.679  1.00  0.00     0.169 HD
HETATM   15  O   UNL     1     -10.214   1.590 -34.690  1.00  0.00    -0.267 OA
BRANCH  13  16
HETATM   16  C   UNL     1     -12.343   2.230 -32.743  1.00  0.00     0.035 A 
HETATM   17  C   UNL     1     -13.223   3.192 -32.250  1.00  0.00     0.032 A 
HETATM   18  C   UNL     1     -14.606   3.033 -32.407  1.00  0.00     0.039 A 
HETATM   19  C   UNL     1     -15.132   1.910 -33.045  1.00  0.00     0.068 A 
HETATM   20  C   UNL     1     -14.258   0.950 -33.551  1.00  0.00     0.039 A 
HETATM   21  C   UNL     1     -12.873   1.114 -33.405  1.00  0.00     0.032 A 
BRANCH  19  22
HETATM   22  O   UNL     1     -16.496   1.873 -33.112  1.00  0.00    -0.356 OA
HETATM   23  C   UNL     1     -17.206   2.676 -32.177  1.00  0.00     0.210 C 
ENDBRANCH  19  22
ENDBRANCH  13  16
ENDBRANCH  10  12
BRANCH   1  24
HETATM   24  C   UNL     1      -7.170   0.232 -33.080  1.00  0.00    -0.029 A 
HETATM   25  C   UNL     1      -7.961  -0.860 -33.472  1.00  0.00     0.010 A 
HETATM   26  C   UNL     1      -7.400  -1.947 -34.145  1.00  0.00     0.007 A 
HETATM   27  C   UNL     1      -6.034  -1.970 -34.448  1.00  0.00    -0.059 A 
HETATM   28  C   UNL     1      -5.240  -0.886 -34.062  1.00  0.00     0.007 A 
HETATM   29  C   UNL     1      -5.795   0.198 -33.374  1.00  0.00     0.010 A 
BRANCH  27  30
HETATM   30  C   UNL     1      -5.426  -3.157 -35.151  1.00  0.00     0.034 C 
HETATM   31  C   UNL     1      -6.372  -4.347 -35.206  1.00  0.00     0.010 C 
ENDBRANCH  27  30
ENDBRANCH   1  24
BRANCH   4  32
HETATM   32  C   UNL     1      -4.332   4.645 -30.768  1.00  0.00     0.261 C 
HETATM   33  N   UNL     1      -3.108   4.445 -31.380  1.00  0.00    -0.323 N 
HETATM   34  H   UNL     1      -2.973   3.545 -31.819  1.00  0.00     0.169 HD
HETATM   35  O   UNL     1      -4.654   5.632 -30.114  1.00  0.00    -0.267 OA
BRANCH  33  36
HETATM   36  C   UNL     1      -1.998   5.317 -31.382  1.00  0.00     0.035 A 
HETATM   37  C   UNL     1      -1.991   6.571 -31.997  1.00  0.00     0.029 A 
HETATM   38  C   UNL     1      -0.855   7.385 -31.943  1.00  0.00     0.002 A 
HETATM   39  C   UNL     1       0.289   6.948 -31.282  1.00  0.00     0.000 A 
HETATM   40  C   UNL     1       0.296   5.698 -30.670  1.00  0.00     0.002 A 
HETATM   41  C   UNL     1      -0.844   4.889 -30.714  1.00  0.00     0.029 A 
ENDBRANCH  33  36
ENDBRANCH   4  32
TORSDOF 7
ENDMDL
MODEL 2
REMARK VINA RESULT:      -9.8      2.024      9.410
REMARK  7 active torsions:
REMARK  status: ('A' for Active; 'I' for Inactive)
REMARK    1  A    between atoms: C_2  and  C_3 
REMARK    2  A    between atoms: C_6  and  C_7 
REMARK    3  A    between atoms: C_10  and  C_11 
REMARK       I    between atoms: C_11  and  N_12 
REMARK    4  A    between atoms: N_12  and  C_13 
REMARK    5  A    between atoms: C_25  and  C_26 
REMARK       I    between atoms: C_26  and  N_27 
REMARK    6  A    between atoms: N_27  and  C_28 
REMARK    7  A    between atoms: C_31  and  O_32 
ROOT
HETATM    1  C   UNL     1      -5.474   0.837 -33.343  1.00  0.00     0.185 C 
HETATM    2  N   UNL     1      -6.885   0.744 -33.746  1.00  0.00    -0.239 N 
HETATM    3  C   UNL     1      -7.944   0.919 -32.887  1.00  0.00     0.142 A 
HETATM    4  C   UNL     1      -9.077   0.651 -33.634  1.00  0.00     0.097 A 
HETATM    5  C   UNL     1      -8.577   0.454 -34.949  1.00  0.00     0.160 A 
HETATM    6  N   UNL     1      -7.246   0.530 -35.028  1.00  0.00    -0.181 NA
HETATM    7  N   UNL     1      -7.687   1.322 -31.613  1.00  0.00    -0.343 N 
HETATM    8  C   UNL     1      -6.411   1.752 -31.214  1.00  0.00     0.021 C 
HETATM    9  C   UNL     1      -6.354   2.436 -29.868  1.00  0.00     0.069 C 
HETATM   10  C   UNL     1      -5.330   1.565 -32.015  1.00  0.00     0.061 C 
HETATM   11  H   UNL     1      -8.434   1.751 -31.064  1.00  0.00     0.167 HD
ENDROOT
BRANCH  10  12
HETATM   12  C   UNL     1      -4.030   2.265 -31.745  1.00  0.00     0.256 C 
HETATM   13  N   UNL     1      -3.945   3.549 -32.242  1.00  0.00    -0.323 N 
HETATM   14  H   UNL     1      -4.684   3.883 -32.846  1.00  0.00     0.169 HD
HETATM   15  O   UNL     1      -3.174   1.701 -31.071  1.00  0.00    -0.267 OA
BRANCH  13  16
HETATM   16  C   UNL     1      -2.934   4.503 -31.983  1.00  0.00     0.035 A 
HETATM   17  C   UNL     1      -1.732   4.588 -32.682  1.00  0.00     0.032 A 
HETATM   18  C   UNL     1      -0.771   5.542 -32.325  1.00  0.00     0.039 A 
HETATM   19  C   UNL     1      -0.989   6.416 -31.260  1.00  0.00     0.068 A 
HETATM   20  C   UNL     1      -2.193   6.345 -30.564  1.00  0.00     0.039 A 
HETATM   21  C   UNL     1      -3.161   5.398 -30.928  1.00  0.00     0.032 A 
BRANCH  19  22
HETATM   22  O   UNL     1       0.039   7.282 -31.008  1.00  0.00    -0.356 OA
HETATM   23  C   UNL     1       0.442   7.423 -29.652  1.00  0.00     0.210 C 
ENDBRANCH  19  22
ENDBRANCH  13  16
ENDBRANCH  10  12
BRANCH   1  24
HETATM   24  C   UNL     1      -4.871  -0.572 -33.362  1.00  0.00    -0.029 A 
HETATM   25  C   UNL     1      -5.210  -1.449 -34.405  1.00  0.00     0.010 A 
HETATM   26  C   UNL     1      -4.708  -2.752 -34.438  1.00  0.00     0.007 A 
HETATM   27  C   UNL     1      -3.851  -3.211 -33.432  1.00  0.00    -0.059 A 
HETATM   28  C   UNL     1      -3.509  -2.344 -32.390  1.00  0.00     0.007 A 
HETATM   29  C   UNL     1      -4.022  -1.043 -32.346  1.00  0.00     0.010 A 
BRANCH  27  30
HETATM   30  C   UNL     1      -3.332  -4.626 -33.456  1.00  0.00     0.034 C 
HETATM   31  C   UNL     1      -4.281  -5.581 -34.164  1.00  0.00     0.010 C 
ENDBRANCH  27  30
ENDBRANCH   1  24
BRANCH   4  32
HETATM   32  C   UNL     1     -10.482   0.604 -33.266  1.00  0.00     0.261 C 
HETATM   33  N   UNL     1     -11.160   1.795 -33.453  1.00  0.00    -0.323 N 
HETATM   34  H   UNL     1     -10.606   2.575 -33.777  1.00  0.00     0.169 HD
HETATM   35  O   UNL     1     -10.957  -0.427 -32.801  1.00  0.00    -0.267 OA
BRANCH  33  36
HETATM   36  C   UNL     1     -12.514   2.066 -33.159  1.00  0.00     0.035 A 
HETATM   37  C   UNL     1     -12.943   3.132 -32.365  1.00  0.00     0.029 A 
HETATM   38  C   UNL     1     -14.305   3.344 -32.130  1.00  0.00     0.002 A 
HETATM   39  C   UNL     1     -15.252   2.485 -32.680  1.00  0.00     0.000 A 
HETATM   40  C   UNL     1     -14.837   1.416 -33.469  1.00  0.00     0.002 A 
HETATM   41  C   UNL     1     -13.475   1.211 -33.713  1.00  0.00     0.029 A 
ENDBRANCH  33  36
ENDBRANCH   4  32
TORSDOF 7
ENDMDL
MODEL 3
REMARK VINA RESULT:      -9.6      2.036      9.602
REMARK  7 active torsions:
REMARK  status: ('A' for Active; 'I' for Inactive)
REMARK    1  A    between atoms: C_2  and  C_3 
REMARK    2  A    between atoms: C_6  and  C_7 
REMARK    3  A    between atoms: C_10  and  C_11 
REMARK       I    between atoms: C_11  and  N_12 
REMARK    4  A    between atoms: N_12  and  C_13 
REMARK    5  A    between atoms: C_25  and  C_26 
REMARK       I    between atoms: C_26  and  N_27 
REMARK    6  A    between atoms: N_27  and  C_28 
REMARK    7  A    between atoms: C_31  and  O_32 
ROOT
HETATM    1  C   UNL     1      -7.420   2.624 -33.196  1.00  0.00     0.185 C 
HETATM    2  N   UNL     1      -8.838   3.003 -33.272  1.00  0.00    -0.239 N 
HETATM    3  C   UNL     1      -9.638   3.219 -32.175  1.00  0.00     0.142 A 
HETATM    4  C   UNL     1     -10.905   3.451 -32.678  1.00  0.00     0.097 A 
HETATM    5  C   UNL     1     -10.712   3.476 -34.086  1.00  0.00     0.160 A 
HETATM    6  N   UNL     1      -9.453   3.224 -34.453  1.00  0.00    -0.181 NA
HETATM    7  N   UNL     1      -9.066   3.202 -30.940  1.00  0.00    -0.343 N 
HETATM    8  C   UNL     1      -7.672   3.174 -30.770  1.00  0.00     0.021 C 
HETATM    9  C   UNL     1      -7.189   3.452 -29.365  1.00  0.00     0.069 C 
HETATM   10  C   UNL     1      -6.845   2.926 -31.820  1.00  0.00     0.061 C 
HETATM   11  H   UNL     1      -9.546   3.654 -30.160  1.00  0.00     0.167 HD
ENDROOT
BRANCH  10  12
HETATM   12  C   UNL     1      -5.368   3.176 -31.724  1.00  0.00     0.256 C 
HETATM   13  N   UNL     1      -4.968   4.449 -32.072  1.00  0.00    -0.323 N 
HETATM   14  H   UNL     1      -5.650   5.075 -32.478  1.00  0.00     0.169 HD
HETATM   15  O   UNL     1      -4.636   2.287 -31.299  1.00  0.00    -0.267 OA
BRANCH  13  16
HETATM   16  C   UNL     1      -3.687   5.021 -31.901  1.00  0.00     0.035 A 
HETATM   17  C   UNL     1      -3.360   5.940 -30.906  1.00  0.00     0.032 A 
HETATM   18  C   UNL     1      -2.071   6.484 -30.841  1.00  0.00     0.039 A 
HETATM   19  C   UNL     1      -1.094   6.130 -31.771  1.00  0.00     0.068 A 
HETATM   20  C   UNL     1      -1.410   5.203 -32.761  1.00  0.00     0.039 A 
HETATM   21  C   UNL     1      -2.697   4.648 -32.820  1.00  0.00     0.032 A 
BRANCH  19  22
HETATM   22  O   UNL     1       0.112   6.750 -31.601  1.00  0.00    -0.356 OA
HETATM   23  C   UNL     1       0.491   7.062 -30.267  1.00  0.00     0.210 C 
ENDBRANCH  19  22
ENDBRANCH  13  16
ENDBRANCH  10  12
BRANCH   1  24
HETATM   24  C   UNL     1      -7.285   1.161 -33.631  1.00  0.00    -0.029 A 
HETATM   25  C   UNL     1      -7.290   0.151 -32.654  1.00  0.00     0.010 A 
HETATM   26  C   UNL     1      -7.135  -1.190 -33.008  1.00  0.00     0.007 A 
HETATM   27  C   UNL     1      -6.976  -1.559 -34.349  1.00  0.00    -0.059 A 
HETATM   28  C   UNL     1      -6.971  -0.561 -35.327  1.00  0.00     0.007 A 
HETATM   29  C   UNL     1      -7.111   0.786 -34.974  1.00  0.00     0.010 A 
BRANCH  27  30
HETATM   30  C   UNL     1      -6.783  -3.006 -34.726  1.00  0.00     0.034 C 
HETATM   31  C   UNL     1      -5.316  -3.371 -34.896  1.00  0.00     0.010 C 
ENDBRANCH  27  30
ENDBRANCH   1  24
BRANCH   4  32
HETATM   32  C   UNL     1     -12.178   3.675 -32.013  1.00  0.00     0.261 C 
HETATM   33  N   UNL     1     -13.285   3.417 -32.800  1.00  0.00    -0.323 N 
HETATM   34  H   UNL     1     -13.098   3.150 -33.756  1.00  0.00     0.169 HD
HETATM   35  O   UNL     1     -12.199   4.090 -30.859  1.00  0.00    -0.267 OA
BRANCH  33  36
HETATM   36  C   UNL     1     -14.643   3.573 -32.446  1.00  0.00     0.035 A 
HETATM   37  C   UNL     1     -15.244   4.804 -32.175  1.00  0.00     0.029 A 
HETATM   38  C   UNL     1     -16.601   4.878 -31.845  1.00  0.00     0.002 A 
HETATM   39  C   UNL     1     -17.368   3.719 -31.773  1.00  0.00     0.000 A 
HETATM   40  C   UNL     1     -16.780   2.486 -32.035  1.00  0.00     0.002 A 
HETATM   41  C   UNL     1     -15.425   2.413 -32.377  1.00  0.00     0.029 A 
ENDBRANCH  33  36
ENDBRANCH   4  32
TORSDOF 7
ENDMDL
MODEL 4
REMARK VINA RESULT:      -9.5      4.613     10.721
REMARK  7 active torsions:
REMARK  status: ('A' for Active; 'I' for Inactive)
REMARK    1  A    between atoms: C_2  and  C_3 
REMARK    2  A    between atoms: C_6  and  C_7 
REMARK    3  A    between atoms: C_10  and  C_11 
REMARK       I    between atoms: C_11  and  N_12 
REMARK    4  A    between atoms: N_12  and  C_13 
REMARK    5  A    between atoms: C_25  and  C_26 
REMARK       I    between atoms: C_26  and  N_27 
REMARK    6  A    between atoms: N_27  and  C_28 
REMARK    7  A    between atoms: C_31  and  O_32 
ROOT
HETATM    1  C   UNL     1      -4.480   4.810 -30.646  1.00  0.00     0.185 C 
HETATM    2  N   UNL     1      -4.647   3.371 -30.895  1.00  0.00    -0.239 N 
HETATM    3  C   UNL     1      -3.984   2.677 -31.879  1.00  0.00     0.142 A 
HETATM    4  C   UNL     1      -4.496   1.393 -31.839  1.00  0.00     0.097 A 
HETATM    5  C   UNL     1      -5.362   1.408 -30.712  1.00  0.00     0.160 A 
HETATM    6  N   UNL     1      -5.442   2.602 -30.121  1.00  0.00    -0.181 NA
HETATM    7  N   UNL     1      -3.022   3.322 -32.593  1.00  0.00    -0.343 N 
HETATM    8  C   UNL     1      -2.554   4.595 -32.225  1.00  0.00     0.021 C 
HETATM    9  C   UNL     1      -1.297   5.047 -32.932  1.00  0.00     0.069 C 
HETATM   10  C   UNL     1      -3.202   5.331 -31.285  1.00  0.00     0.061 C 
HETATM   11  H   UNL     1      -2.318   2.776 -33.092  1.00  0.00     0.167 HD
ENDROOT
BRANCH  10  12
HETATM   12  C   UNL     1      -2.566   6.547 -30.675  1.00  0.00     0.256 C 
HETATM   13  N   UNL     1      -1.850   6.313 -29.519  1.00  0.00    -0.323 N 
HETATM   14  H   UNL     1      -1.901   5.395 -29.097  1.00  0.00     0.169 HD
HETATM   15  O   UNL     1      -2.664   7.626 -31.249  1.00  0.00    -0.267 OA
BRANCH  13  16
HETATM   16  C   UNL     1      -1.001   7.216 -28.840  1.00  0.00     0.035 A 
HETATM   17  C   UNL     1       0.384   7.258 -28.986  1.00  0.00     0.032 A 
HETATM   18  C   UNL     1       1.147   8.164 -28.238  1.00  0.00     0.039 A 
HETATM   19  C   UNL     1       0.544   9.030 -27.326  1.00  0.00     0.068 A 
HETATM   20  C   UNL     1      -0.841   9.002 -27.184  1.00  0.00     0.039 A 
HETATM   21  C   UNL     1      -1.608   8.104 -27.941  1.00  0.00     0.032 A 
BRANCH  19  22
HETATM   22  O   UNL     1       1.408   9.846 -26.651  1.00  0.00    -0.356 OA
HETATM   23  C   UNL     1       1.181  10.007 -25.256  1.00  0.00     0.210 C 
ENDBRANCH  19  22
ENDBRANCH  13  16
ENDBRANCH  10  12
BRANCH   1  24
HETATM   24  C   UNL     1      -5.754   5.531 -31.099  1.00  0.00    -0.029 A 
HETATM   25  C   UNL     1      -6.214   5.350 -32.414  1.00  0.00     0.010 A 
HETATM   26  C   UNL     1      -7.351   6.017 -32.873  1.00  0.00     0.007 A 
HETATM   27  C   UNL     1      -8.061   6.880 -32.031  1.00  0.00    -0.059 A 
HETATM   28  C   UNL     1      -7.609   7.065 -30.720  1.00  0.00     0.007 A 
HETATM   29  C   UNL     1      -6.462   6.410 -30.261  1.00  0.00     0.010 A 
BRANCH  27  30
HETATM   30  C   UNL     1      -9.273   7.619 -32.538  1.00  0.00     0.034 C 
HETATM   31  C   UNL     1      -9.159   9.124 -32.344  1.00  0.00     0.010 C 
ENDBRANCH  27  30
ENDBRANCH   1  24
BRANCH   4  32
HETATM   32  C   UNL     1      -4.241   0.230 -32.672  1.00  0.00     0.261 C 
HETATM   33  N   UNL     1      -5.329  -0.610 -32.827  1.00  0.00    -0.323 N 
HETATM   34  H   UNL     1      -6.162  -0.356 -32.315  1.00  0.00     0.169 HD
HETATM   35  O   UNL     1      -3.122   0.048 -33.140  1.00  0.00    -0.267 OA
BRANCH  33  36
HETATM   36  C   UNL     1      -5.379  -1.825 -33.545  1.00  0.00     0.035 A 
HETATM   37  C   UNL     1      -4.309  -2.717 -33.646  1.00  0.00     0.029 A 
HETATM   38  C   UNL     1      -4.440  -3.910 -34.365  1.00  0.00     0.002 A 
HETATM   39  C   UNL     1      -5.641  -4.217 -34.998  1.00  0.00     0.000 A 
HETATM   40  C   UNL     1      -6.713  -3.334 -34.908  1.00  0.00     0.002 A 
HETATM   41  C   UNL     1      -6.585  -2.146 -34.180  1.00  0.00     0.029 A 
ENDBRANCH  33  36
ENDBRANCH   4  32
TORSDOF 7
ENDMDL
MODEL 5
REMARK VINA RESULT:      -9.5      1.978      9.709
REMARK  7 active torsions:
REMARK  status: ('A' for Active; 'I' for Inactive)
REMARK    1  A    between atoms: C_2  and  C_3 
REMARK    2  A    between atoms: C_6  and  C_7 
REMARK    3  A    between atoms: C_10  and  C_11 
REMARK       I    between atoms: C_11  and  N_12 
REMARK    4  A    between atoms: N_12  and  C_13 
REMARK    5  A    between atoms: C_25  and  C_26 
REMARK       I    between atoms: C_26  and  N_27 
REMARK    6  A    between atoms: N_27  and  C_28 
REMARK    7  A    between atoms: C_31  and  O_32 
ROOT
HETATM    1  C   UNL     1      -9.073   2.730 -33.926  1.00  0.00     0.185 C 
HETATM    2  N   UNL     1     -10.524   2.615 -34.126  1.00  0.00    -0.239 N 
HETATM    3  C   UNL     1     -11.450   2.710 -33.115  1.00  0.00     0.142 A 
HETATM    4  C   UNL     1     -12.673   2.446 -33.704  1.00  0.00     0.097 A 
HETATM    5  C   UNL     1     -12.366   2.336 -35.087  1.00  0.00     0.160 A 
HETATM    6  N   UNL     1     -11.064   2.458 -35.353  1.00  0.00    -0.181 NA
HETATM    7  N   UNL     1     -11.021   3.052 -31.869  1.00  0.00    -0.343 N 
HETATM    8  C   UNL     1      -9.710   3.501 -31.635  1.00  0.00     0.021 C 
HETATM    9  C   UNL     1      -9.474   4.113 -30.274  1.00  0.00     0.069 C 
HETATM   10  C   UNL     1      -8.753   3.391 -32.594  1.00  0.00     0.061 C 
HETATM   11  H   UNL     1     -11.689   3.427 -31.195  1.00  0.00     0.167 HD
ENDROOT
BRANCH  10  12
HETATM   12  C   UNL     1      -7.445   4.117 -32.474  1.00  0.00     0.256 C 
HETATM   13  N   UNL     1      -6.424   3.388 -31.899  1.00  0.00    -0.323 N 
HETATM   14  H   UNL     1      -6.642   2.488 -31.493  1.00  0.00     0.169 HD
HETATM   15  O   UNL     1      -7.345   5.251 -32.930  1.00  0.00    -0.267 OA
BRANCH  13  16
HETATM   16  C   UNL     1      -5.056   3.738 -31.830  1.00  0.00     0.035 A 
HETATM   17  C   UNL     1      -4.545   4.767 -31.041  1.00  0.00     0.032 A 
HETATM   18  C   UNL     1      -3.177   5.067 -31.070  1.00  0.00     0.039 A 
HETATM   19  C   UNL     1      -2.303   4.357 -31.893  1.00  0.00     0.068 A 
HETATM   20  C   UNL     1      -2.805   3.319 -32.674  1.00  0.00     0.039 A 
HETATM   21  C   UNL     1      -4.172   3.010 -32.637  1.00  0.00     0.032 A 
BRANCH  19  22
HETATM   22  O   UNL     1      -1.000   4.767 -31.836  1.00  0.00    -0.356 OA
HETATM   23  C   UNL     1      -0.716   5.892 -31.014  1.00  0.00     0.210 C 
ENDBRANCH  19  22
ENDBRANCH  13  16
ENDBRANCH  10  12
BRANCH   1  24
HETATM   24  C   UNL     1      -8.446   1.344 -34.112  1.00  0.00    -0.029 A 
HETATM   25  C   UNL     1      -8.853   0.290 -33.279  1.00  0.00     0.010 A 
HETATM   26  C   UNL     1      -8.281  -0.978 -33.395  1.00  0.00     0.007 A 
HETATM   27  C   UNL     1      -7.289  -1.227 -34.350  1.00  0.00    -0.059 A 
HETATM   28  C   UNL     1      -6.878  -0.183 -35.184  1.00  0.00     0.007 A 
HETATM   29  C   UNL     1      -7.438   1.092 -35.060  1.00  0.00     0.010 A 
BRANCH  27  30
HETATM   30  C   UNL     1      -6.653  -2.591 -34.456  1.00  0.00     0.034 C 
HETATM   31  C   UNL     1      -5.141  -2.517 -34.602  1.00  0.00     0.010 C 
ENDBRANCH  27  30
ENDBRANCH   1  24
BRANCH   4  32
HETATM   32  C   UNL     1     -14.008   2.335 -33.141  1.00  0.00     0.261 C 
HETATM   33  N   UNL     1     -14.605   3.547 -32.844  1.00  0.00    -0.323 N 
HETATM   34  H   UNL     1     -14.040   4.370 -33.003  1.00  0.00     0.169 HD
HETATM   35  O   UNL     1     -14.496   1.228 -32.939  1.00  0.00    -0.267 OA
BRANCH  33  36
HETATM   36  C   UNL     1     -15.873   3.759 -32.262  1.00  0.00     0.035 A 
HETATM   37  C   UNL     1     -16.866   2.780 -32.175  1.00  0.00     0.029 A 
HETATM   38  C   UNL     1     -18.094   3.063 -31.569  1.00  0.00     0.002 A 
HETATM   39  C   UNL     1     -18.346   4.331 -31.053  1.00  0.00     0.000 A 
HETATM   40  C   UNL     1     -17.366   5.316 -31.139  1.00  0.00     0.002 A 
HETATM   41  C   UNL     1     -16.133   5.030 -31.735  1.00  0.00     0.029 A 
ENDBRANCH  33  36
ENDBRANCH   4  32
TORSDOF 7
ENDMDL
MODEL 6
REMARK VINA RESULT:      -9.4      4.590      8.129
REMARK  7 active torsions:
REMARK  status: ('A' for Active; 'I' for Inactive)
REMARK    1  A    between atoms: C_2  and  C_3 
REMARK    2  A    between atoms: C_6  and  C_7 
REMARK    3  A    between atoms: C_10  and  C_11 
REMARK       I    between atoms: C_11  and  N_12 
REMARK    4  A    between atoms: N_12  and  C_13 
REMARK    5  A    between atoms: C_25  and  C_26 
REMARK       I    between atoms: C_26  and  N_27 
REMARK    6  A    between atoms: N_27  and  C_28 
REMARK    7  A    between atoms: C_31  and  O_32 
ROOT
HETATM    1  C   UNL     1      -5.895   3.177 -30.483  1.00  0.00     0.185 C 
HETATM    2  N   UNL     1      -6.449   4.307 -29.725  1.00  0.00    -0.239 N 
HETATM    3  C   UNL     1      -7.750   4.737 -29.825  1.00  0.00     0.142 A 
HETATM    4  C   UNL     1      -7.831   5.869 -29.035  1.00  0.00     0.097 A 
HETATM    5  C   UNL     1      -6.554   5.942 -28.416  1.00  0.00     0.160 A 
HETATM    6  N   UNL     1      -5.715   4.983 -28.816  1.00  0.00    -0.181 NA
HETATM    7  N   UNL     1      -8.620   4.007 -30.576  1.00  0.00    -0.343 N 
HETATM    8  C   UNL     1      -8.283   2.739 -31.077  1.00  0.00     0.021 C 
HETATM    9  C   UNL     1      -9.438   1.939 -31.633  1.00  0.00     0.069 C 
HETATM   10  C   UNL     1      -7.001   2.290 -31.033  1.00  0.00     0.061 C 
HETATM   11  H   UNL     1      -9.625   4.113 -30.422  1.00  0.00     0.167 HD
ENDROOT
BRANCH  10  12
HETATM   12  C   UNL     1      -6.673   0.848 -31.290  1.00  0.00     0.256 C 
HETATM   13  N   UNL     1      -6.313   0.554 -32.589  1.00  0.00    -0.323 N 
HETATM   14  H   UNL     1      -6.411   1.274 -33.292  1.00  0.00     0.169 HD
HETATM   15  O   UNL     1      -6.684   0.055 -30.354  1.00  0.00    -0.267 OA
BRANCH  13  16
HETATM   16  C   UNL     1      -5.777  -0.661 -33.075  1.00  0.00     0.035 A 
HETATM   17  C   UNL     1      -4.507  -1.142 -32.765  1.00  0.00     0.032 A 
HETATM   18  C   UNL     1      -4.046  -2.338 -33.329  1.00  0.00     0.039 A 
HETATM   19  C   UNL     1      -4.838  -3.065 -34.218  1.00  0.00     0.068 A 
HETATM   20  C   UNL     1      -6.114  -2.596 -34.523  1.00  0.00     0.039 A 
HETATM   21  C   UNL     1      -6.580  -1.404 -33.950  1.00  0.00     0.032 A 
BRANCH  19  22
HETATM   22  O   UNL     1      -4.258  -4.202 -34.707  1.00  0.00    -0.356 OA
HETATM   23  C   UNL     1      -3.408  -4.920 -33.822  1.00  0.00     0.210 C 
ENDBRANCH  19  22
ENDBRANCH  13  16
ENDBRANCH  10  12
BRANCH   1  24
HETATM   24  C   UNL     1      -4.939   3.728 -31.546  1.00  0.00    -0.029 A 
HETATM   25  C   UNL     1      -5.415   4.667 -32.477  1.00  0.00     0.010 A 
HETATM   26  C   UNL     1      -4.584   5.167 -33.481  1.00  0.00     0.007 A 
HETATM   27  C   UNL     1      -3.253   4.745 -33.580  1.00  0.00    -0.059 A 
HETATM   28  C   UNL     1      -2.771   3.812 -32.658  1.00  0.00     0.007 A 
HETATM   29  C   UNL     1      -3.605   3.298 -31.659  1.00  0.00     0.010 A 
BRANCH  27  30
HETATM   30  C   UNL     1      -2.365   5.267 -34.682  1.00  0.00     0.034 C 
HETATM   31  C   UNL     1      -1.302   6.224 -34.167  1.00  0.00     0.010 C 
ENDBRANCH  27  30
ENDBRANCH   1  24
BRANCH   4  32
HETATM   32  C   UNL     1      -8.922   6.798 -28.793  1.00  0.00     0.261 C 
HETATM   33  N   UNL     1      -8.772   7.570 -27.656  1.00  0.00    -0.323 N 
HETATM   34  H   UNL     1      -7.955   7.378 -27.094  1.00  0.00     0.169 HD
HETATM   35  O   UNL     1      -9.884   6.822 -29.555  1.00  0.00    -0.267 OA
BRANCH  33  36
HETATM   36  C   UNL     1      -9.674   8.529 -27.146  1.00  0.00     0.035 A 
HETATM   37  C   UNL     1      -9.792   9.831 -27.639  1.00  0.00     0.029 A 
HETATM   38  C   UNL     1     -10.721  10.720 -27.089  1.00  0.00     0.002 A 
HETATM   39  C   UNL     1     -11.534  10.319 -26.033  1.00  0.00     0.000 A 
HETATM   40  C   UNL     1     -11.422   9.026 -25.530  1.00  0.00     0.002 A 
HETATM   41  C   UNL     1     -10.501   8.133 -26.088  1.00  0.00     0.029 A 
ENDBRANCH  33  36
ENDBRANCH   4  32
TORSDOF 7
ENDMDL
MODEL 7
REMARK VINA RESULT:      -9.4      3.301      6.970
REMARK  7 active torsions:
REMARK  status: ('A' for Active; 'I' for Inactive)
REMARK    1  A    between atoms: C_2  and  C_3 
REMARK    2  A    between atoms: C_6  and  C_7 
REMARK    3  A    between atoms: C_10  and  C_11 
REMARK       I    between atoms: C_11  and  N_12 
REMARK    4  A    between atoms: N_12  and  C_13 
REMARK    5  A    between atoms: C_25  and  C_26 
REMARK       I    between atoms: C_26  and  N_27 
REMARK    6  A    between atoms: N_27  and  C_28 
REMARK    7  A    between atoms: C_31  and  O_32 
ROOT
HETATM    1  C   UNL     1      -5.993   4.265 -32.628  1.00  0.00     0.185 C 
HETATM    2  N   UNL     1      -5.013   5.238 -32.125  1.00  0.00    -0.239 N 
HETATM    3  C   UNL     1      -4.516   5.238 -30.843  1.00  0.00     0.142 A 
HETATM    4  C   UNL     1      -3.714   6.361 -30.755  1.00  0.00     0.097 A 
HETATM    5  C   UNL     1      -3.709   6.879 -32.078  1.00  0.00     0.160 A 
HETATM    6  N   UNL     1      -4.481   6.189 -32.921  1.00  0.00    -0.181 NA
HETATM    7  N   UNL     1      -4.850   4.209 -30.017  1.00  0.00    -0.343 N 
HETATM    8  C   UNL     1      -5.511   3.064 -30.490  1.00  0.00     0.021 C 
HETATM    9  C   UNL     1      -5.549   1.900 -29.526  1.00  0.00     0.069 C 
HETATM   10  C   UNL     1      -6.051   3.035 -31.736  1.00  0.00     0.061 C 
HETATM   11  H   UNL     1      -4.270   4.017 -29.198  1.00  0.00     0.167 HD
ENDROOT
BRANCH  10  12
HETATM   12  C   UNL     1      -6.498   1.744 -32.360  1.00  0.00     0.256 C 
HETATM   13  N   UNL     1      -5.549   1.115 -33.140  1.00  0.00    -0.323 N 
HETATM   14  H   UNL     1      -4.687   1.604 -33.341  1.00  0.00     0.169 HD
HETATM   15  O   UNL     1      -7.616   1.309 -32.103  1.00  0.00    -0.267 OA
BRANCH  13  16
HETATM   16  C   UNL     1      -5.619  -0.186 -33.690  1.00  0.00     0.035 A 
HETATM   17  C   UNL     1      -6.686  -0.665 -34.447  1.00  0.00     0.032 A 
HETATM   18  C   UNL     1      -6.684  -1.985 -34.915  1.00  0.00     0.039 A 
HETATM   19  C   UNL     1      -5.627  -2.848 -34.627  1.00  0.00     0.068 A 
HETATM   20  C   UNL     1      -4.551  -2.372 -33.882  1.00  0.00     0.039 A 
HETATM   21  C   UNL     1      -4.547  -1.047 -33.421  1.00  0.00     0.032 A 
BRANCH  19  22
HETATM   22  O   UNL     1      -5.764  -4.112 -35.130  1.00  0.00    -0.356 OA
HETATM   23  C   UNL     1      -4.995  -5.135 -34.511  1.00  0.00     0.210 C 
ENDBRANCH  19  22
ENDBRANCH  13  16
ENDBRANCH  10  12
BRANCH   1  24
HETATM   24  C   UNL     1      -7.337   4.980 -32.809  1.00  0.00    -0.029 A 
HETATM   25  C   UNL     1      -8.037   4.828 -34.017  1.00  0.00     0.010 A 
HETATM   26  C   UNL     1      -9.247   5.490 -34.233  1.00  0.00     0.007 A 
HETATM   27  C   UNL     1      -9.792   6.318 -33.246  1.00  0.00    -0.059 A 
HETATM   28  C   UNL     1      -9.102   6.474 -32.040  1.00  0.00     0.007 A 
HETATM   29  C   UNL     1      -7.882   5.824 -31.826  1.00  0.00     0.010 A 
BRANCH  27  30
HETATM   30  C   UNL     1     -11.086   7.053 -33.492  1.00  0.00     0.034 C 
HETATM   31  C   UNL     1     -12.076   6.230 -34.301  1.00  0.00     0.010 C 
ENDBRANCH  27  30
ENDBRANCH   1  24
BRANCH   4  32
HETATM   32  C   UNL     1      -2.975   6.930 -29.640  1.00  0.00     0.261 C 
HETATM   33  N   UNL     1      -1.646   6.552 -29.584  1.00  0.00    -0.323 N 
HETATM   34  H   UNL     1      -1.343   5.891 -30.286  1.00  0.00     0.169 HD
HETATM   35  O   UNL     1      -3.550   7.652 -28.831  1.00  0.00    -0.267 OA
BRANCH  33  36
HETATM   36  C   UNL     1      -0.693   6.912 -28.607  1.00  0.00     0.035 A 
HETATM   37  C   UNL     1      -0.709   6.445 -27.291  1.00  0.00     0.029 A 
HETATM   38  C   UNL     1       0.282   6.837 -26.384  1.00  0.00     0.002 A 
HETATM   39  C   UNL     1       1.292   7.707 -26.782  1.00  0.00     0.000 A 
HETATM   40  C   UNL     1       1.315   8.183 -28.090  1.00  0.00     0.002 A 
HETATM   41  C   UNL     1       0.331   7.782 -29.000  1.00  0.00     0.029 A 
ENDBRANCH  33  36
ENDBRANCH   4  32
TORSDOF 7
ENDMDL
MODEL 8
REMARK VINA RESULT:      -8.7      3.556      7.535
REMARK  7 active torsions:
REMARK  status: ('A' for Active; 'I' for Inactive)
REMARK    1  A    between atoms: C_2  and  C_3 
REMARK    2  A    between atoms: C_6  and  C_7 
REMARK    3  A    between atoms: C_10  and  C_11 
REMARK       I    between atoms: C_11  and  N_12 
REMARK    4  A    between atoms: N_12  and  C_13 
REMARK    5  A    between atoms: C_25  and  C_26 
REMARK       I    between atoms: C_26  and  N_27 
REMARK    6  A    between atoms: N_27  and  C_28 
REMARK    7  A    between atoms: C_31  and  O_32 
ROOT
HETATM    1  C   UNL     1      -7.449   4.519 -32.619  1.00  0.00     0.185 C 
HETATM    2  N   UNL     1      -6.620   3.316 -32.778  1.00  0.00    -0.239 N 
HETATM    3  C   UNL     1      -7.105   2.032 -32.712  1.00  0.00     0.142 A 
HETATM    4  C   UNL     1      -5.998   1.210 -32.810  1.00  0.00     0.097 A 
HETATM    5  C   UNL     1      -4.928   2.111 -33.058  1.00  0.00     0.160 A 
HETATM    6  N   UNL     1      -5.302   3.392 -33.060  1.00  0.00    -0.181 NA
HETATM    7  N   UNL     1      -8.451   1.851 -32.616  1.00  0.00    -0.343 N 
HETATM    8  C   UNL     1      -9.356   2.912 -32.783  1.00  0.00     0.021 C 
HETATM    9  C   UNL     1     -10.803   2.505 -32.938  1.00  0.00     0.069 C 
HETATM   10  C   UNL     1      -8.923   4.200 -32.815  1.00  0.00     0.061 C 
HETATM   11  H   UNL     1      -8.854   0.949 -32.875  1.00  0.00     0.167 HD
ENDROOT
BRANCH  10  12
HETATM   12  C   UNL     1      -9.820   5.311 -33.278  1.00  0.00     0.256 C 
HETATM   13  N   UNL     1      -9.955   5.420 -34.646  1.00  0.00    -0.323 N 
HETATM   14  H   UNL     1      -9.366   4.848 -35.237  1.00  0.00     0.169 HD
HETATM   15  O   UNL     1     -10.406   5.994 -32.444  1.00  0.00    -0.267 OA
BRANCH  13  16
HETATM   16  C   UNL     1     -10.867   6.235 -35.354  1.00  0.00     0.035 A 
HETATM   17  C   UNL     1     -10.535   7.445 -35.961  1.00  0.00     0.032 A 
HETATM   18  C   UNL     1     -11.519   8.206 -36.606  1.00  0.00     0.039 A 
HETATM   19  C   UNL     1     -12.846   7.779 -36.645  1.00  0.00     0.068 A 
HETATM   20  C   UNL     1     -13.182   6.565 -36.052  1.00  0.00     0.039 A 
HETATM   21  C   UNL     1     -12.197   5.797 -35.415  1.00  0.00     0.032 A 
BRANCH  19  22
HETATM   22  O   UNL     1     -13.703   8.627 -37.290  1.00  0.00    -0.356 OA
HETATM   23  C   UNL     1     -13.452   8.866 -38.669  1.00  0.00     0.210 C 
ENDBRANCH  19  22
ENDBRANCH  13  16
ENDBRANCH  10  12
BRANCH   1  24
HETATM   24  C   UNL     1      -7.115   5.163 -31.269  1.00  0.00    -0.029 A 
HETATM   25  C   UNL     1      -6.400   6.372 -31.243  1.00  0.00     0.010 A 
HETATM   26  C   UNL     1      -6.047   6.972 -30.033  1.00  0.00     0.007 A 
HETATM   27  C   UNL     1      -6.403   6.381 -28.815  1.00  0.00    -0.059 A 
HETATM   28  C   UNL     1      -7.115   5.178 -28.832  1.00  0.00     0.007 A 
HETATM   29  C   UNL     1      -7.457   4.567 -30.043  1.00  0.00     0.010 A 
BRANCH  27  30
HETATM   30  C   UNL     1      -5.998   7.017 -27.509  1.00  0.00     0.034 C 
HETATM   31  C   UNL     1      -4.649   6.519 -27.014  1.00  0.00     0.010 C 
ENDBRANCH  27  30
ENDBRANCH   1  24
BRANCH   4  32
HETATM   32  C   UNL     1      -5.864  -0.236 -32.737  1.00  0.00     0.261 C 
HETATM   33  N   UNL     1      -5.758  -0.861 -33.966  1.00  0.00    -0.323 N 
HETATM   34  H   UNL     1      -5.830  -0.261 -34.777  1.00  0.00     0.169 HD
HETATM   35  O   UNL     1      -5.886  -0.797 -31.647  1.00  0.00    -0.267 OA
BRANCH  33  36
HETATM   36  C   UNL     1      -5.650  -2.246 -34.217  1.00  0.00     0.035 A 
HETATM   37  C   UNL     1      -6.701  -3.039 -34.683  1.00  0.00     0.029 A 
HETATM   38  C   UNL     1      -6.512  -4.404 -34.922  1.00  0.00     0.002 A 
HETATM   39  C   UNL     1      -5.272  -4.991 -34.688  1.00  0.00     0.000 A 
HETATM   40  C   UNL     1      -4.218  -4.212 -34.219  1.00  0.00     0.002 A 
HETATM   41  C   UNL     1      -4.404  -2.844 -33.991  1.00  0.00     0.029 A 
ENDBRANCH  33  36
ENDBRANCH   4  32
TORSDOF 7
ENDMDL
MODEL 9
REMARK VINA RESULT:      -8.6      4.671     11.516
REMARK  7 active torsions:
REMARK  status: ('A' for Active; 'I' for Inactive)
REMARK    1  A    between atoms: C_2  and  C_3 
REMARK    2  A    between atoms: C_6  and  C_7 
REMARK    3  A    between atoms: C_10  and  C_11 
REMARK       I    between atoms: C_11  and  N_12 
REMARK    4  A    between atoms: N_12  and  C_13 
REMARK    5  A    between atoms: C_25  and  C_26 
REMARK       I    between atoms: C_26  and  N_27 
REMARK    6  A    between atoms: N_27  and  C_28 
REMARK    7  A    between atoms: C_31  and  O_32 
ROOT
HETATM    1  C   UNL     1      -4.244   6.325 -29.778  1.00  0.00     0.185 C 
HETATM    2  N   UNL     1      -4.611   4.962 -30.186  1.00  0.00    -0.239 N 
HETATM    3  C   UNL     1      -3.962   4.250 -31.167  1.00  0.00     0.142 A 
HETATM    4  C   UNL     1      -4.675   3.074 -31.307  1.00  0.00     0.097 A 
HETATM    5  C   UNL     1      -5.647   3.141 -30.273  1.00  0.00     0.160 A 
HETATM    6  N   UNL     1      -5.600   4.278 -29.574  1.00  0.00    -0.181 NA
HETATM    7  N   UNL     1      -2.835   4.781 -31.716  1.00  0.00    -0.343 N 
HETATM    8  C   UNL     1      -2.213   5.919 -31.178  1.00  0.00     0.021 C 
HETATM    9  C   UNL     1      -0.829   6.209 -31.711  1.00  0.00     0.069 C 
HETATM   10  C   UNL     1      -2.835   6.674 -30.234  1.00  0.00     0.061 C 
HETATM   11  H   UNL     1      -2.177   4.166 -32.198  1.00  0.00     0.167 HD
ENDROOT
BRANCH  10  12
HETATM   12  C   UNL     1      -2.085   7.708 -29.446  1.00  0.00     0.256 C 
HETATM   13  N   UNL     1      -1.333   7.212 -28.401  1.00  0.00    -0.323 N 
HETATM   14  H   UNL     1      -1.428   6.235 -28.159  1.00  0.00     0.169 HD
HETATM   15  O   UNL     1      -2.134   8.882 -29.799  1.00  0.00    -0.267 OA
BRANCH  13  16
HETATM   16  C   UNL     1      -0.389   7.915 -27.617  1.00  0.00     0.035 A 
HETATM   17  C   UNL     1       0.940   8.121 -27.981  1.00  0.00     0.032 A 
HETATM   18  C   UNL     1       1.813   8.795 -27.117  1.00  0.00     0.039 A 
HETATM   19  C   UNL     1       1.378   9.262 -25.877  1.00  0.00     0.068 A 
HETATM   20  C   UNL     1       0.048   9.070 -25.512  1.00  0.00     0.039 A 
HETATM   21  C   UNL     1      -0.830   8.405 -26.381  1.00  0.00     0.032 A 
BRANCH  19  22
HETATM   22  O   UNL     1       2.338   9.884 -25.129  1.00  0.00    -0.356 OA
HETATM   23  C   UNL     1       2.846   9.166 -24.010  1.00  0.00     0.210 C 
ENDBRANCH  19  22
ENDBRANCH  13  16
ENDBRANCH  10  12
BRANCH   1  24
HETATM   24  C   UNL     1      -5.327   7.289 -30.276  1.00  0.00    -0.029 A 
HETATM   25  C   UNL     1      -5.841   8.256 -29.397  1.00  0.00     0.010 A 
HETATM   26  C   UNL     1      -6.852   9.129 -29.803  1.00  0.00     0.007 A 
HETATM   27  C   UNL     1      -7.374   9.061 -31.099  1.00  0.00    -0.059 A 
HETATM   28  C   UNL     1      -6.868   8.101 -31.981  1.00  0.00     0.007 A 
HETATM   29  C   UNL     1      -5.865   7.215 -31.572  1.00  0.00     0.010 A 
BRANCH  27  30
HETATM   30  C   UNL     1      -8.485   9.987 -31.527  1.00  0.00     0.034 C 
HETATM   31  C   UNL     1      -8.788  11.051 -30.483  1.00  0.00     0.010 C 
ENDBRANCH  27  30
ENDBRANCH   1  24
BRANCH   4  32
HETATM   32  C   UNL     1      -4.518   1.958 -32.225  1.00  0.00     0.261 C 
HETATM   33  N   UNL     1      -5.661   1.200 -32.401  1.00  0.00    -0.323 N 
HETATM   34  H   UNL     1      -6.461   1.468 -31.845  1.00  0.00     0.169 HD
HETATM   35  O   UNL     1      -3.426   1.741 -32.741  1.00  0.00    -0.267 OA
BRANCH  33  36
HETATM   36  C   UNL     1      -5.808   0.043 -33.198  1.00  0.00     0.035 A 
HETATM   37  C   UNL     1      -5.013  -1.098 -33.073  1.00  0.00     0.029 A 
HETATM   38  C   UNL     1      -5.231  -2.212 -33.891  1.00  0.00     0.002 A 
HETATM   39  C   UNL     1      -6.240  -2.190 -34.849  1.00  0.00     0.000 A 
HETATM   40  C   UNL     1      -7.035  -1.056 -34.986  1.00  0.00     0.002 A 
HETATM   41  C   UNL     1      -6.825   0.053 -34.160  1.00  0.00     0.029 A 
ENDBRANCH  33  36
ENDBRANCH   4  32
TORSDOF 7
ENDMDL
MODEL 10
REMARK VINA RESULT:      -8.6      3.804     10.555
REMARK  7 active torsions:
REMARK  status: ('A' for Active; 'I' for Inactive)
REMARK    1  A    between atoms: C_2  and  C_3 
REMARK    2  A    between atoms: C_6  and  C_7 
REMARK    3  A    between atoms: C_10  and  C_11 
REMARK       I    between atoms: C_11  and  N_12 
REMARK    4  A    between atoms: N_12  and  C_13 
REMARK    5  A    between atoms: C_25  and  C_26 
REMARK       I    between atoms: C_26  and  N_27 
REMARK    6  A    between atoms: N_27  and  C_28 
REMARK    7  A    between atoms: C_31  and  O_32 
ROOT
HETATM    1  C   UNL     1      -5.926   5.188 -29.671  1.00  0.00     0.185 C 
HETATM    2  N   UNL     1      -6.127   3.849 -30.242  1.00  0.00    -0.239 N 
HETATM    3  C   UNL     1      -5.653   3.456 -31.470  1.00  0.00     0.142 A 
HETATM    4  C   UNL     1      -6.140   2.177 -31.667  1.00  0.00     0.097 A 
HETATM    5  C   UNL     1      -6.783   1.867 -30.438  1.00  0.00     0.160 A 
HETATM    6  N   UNL     1      -6.760   2.872 -29.559  1.00  0.00    -0.181 NA
HETATM    7  N   UNL     1      -4.843   4.308 -32.157  1.00  0.00    -0.343 N 
HETATM    8  C   UNL     1      -4.324   5.473 -31.569  1.00  0.00     0.021 C 
HETATM    9  C   UNL     1      -3.222   6.152 -32.349  1.00  0.00     0.069 C 
HETATM   10  C   UNL     1      -4.791   5.918 -30.373  1.00  0.00     0.061 C 
HETATM   11  H   UNL     1      -4.240   3.940 -32.895  1.00  0.00     0.167 HD
ENDROOT
BRANCH  10  12
HETATM   12  C   UNL     1      -4.062   6.977 -29.598  1.00  0.00     0.256 C 
HETATM   13  N   UNL     1      -2.992   6.523 -28.854  1.00  0.00    -0.323 N 
HETATM   14  H   UNL     1      -2.847   5.525 -28.777  1.00  0.00     0.169 HD
HETATM   15  O   UNL     1      -4.406   8.149 -29.714  1.00  0.00    -0.267 OA
BRANCH  13  16
HETATM   16  C   UNL     1      -2.021   7.303 -28.186  1.00  0.00     0.035 A 
HETATM   17  C   UNL     1      -0.987   7.987 -28.822  1.00  0.00     0.032 A 
HETATM   18  C   UNL     1      -0.046   8.703 -28.070  1.00  0.00     0.039 A 
HETATM   19  C   UNL     1      -0.114   8.736 -26.678  1.00  0.00     0.068 A 
HETATM   20  C   UNL     1      -1.152   8.064 -26.037  1.00  0.00     0.039 A 
HETATM   21  C   UNL     1      -2.102   7.357 -26.788  1.00  0.00     0.032 A 
BRANCH  19  22
HETATM   22  O   UNL     1       0.878   9.455 -26.071  1.00  0.00    -0.356 OA
HETATM   23  C   UNL     1       0.995  10.824 -26.437  1.00  0.00     0.210 C 
ENDBRANCH  19  22
ENDBRANCH  13  16
ENDBRANCH  10  12
BRANCH   1  24
HETATM   24  C   UNL     1      -7.266   5.931 -29.694  1.00  0.00    -0.029 A 
HETATM   25  C   UNL     1      -7.816   6.390 -28.485  1.00  0.00     0.010 A 
HETATM   26  C   UNL     1      -9.051   7.040 -28.461  1.00  0.00     0.007 A 
HETATM   27  C   UNL     1      -9.768   7.253 -29.644  1.00  0.00    -0.059 A 
HETATM   28  C   UNL     1      -9.227   6.800 -30.851  1.00  0.00     0.007 A 
HETATM   29  C   UNL     1      -7.997   6.134 -30.877  1.00  0.00     0.010 A 
BRANCH  27  30
HETATM   30  C   UNL     1     -11.114   7.932 -29.611  1.00  0.00     0.034 C 
HETATM   31  C   UNL     1     -12.230   7.034 -30.122  1.00  0.00     0.010 C 
ENDBRANCH  27  30
ENDBRANCH   1  24
BRANCH   4  32
HETATM   32  C   UNL     1      -6.036   1.271 -32.798  1.00  0.00     0.261 C 
HETATM   33  N   UNL     1      -5.913  -0.062 -32.452  1.00  0.00    -0.323 N 
HETATM   34  H   UNL     1      -5.862  -0.261 -31.462  1.00  0.00     0.169 HD
HETATM   35  O   UNL     1      -6.029   1.718 -33.940  1.00  0.00    -0.267 OA
BRANCH  33  36
HETATM   36  C   UNL     1      -5.761  -1.164 -33.321  1.00  0.00     0.035 A 
HETATM   37  C   UNL     1      -4.529  -1.732 -33.654  1.00  0.00     0.029 A 
HETATM   38  C   UNL     1      -4.460  -2.834 -34.513  1.00  0.00     0.002 A 
HETATM   39  C   UNL     1      -5.624  -3.372 -35.056  1.00  0.00     0.000 A 
HETATM   40  C   UNL     1      -6.856  -2.811 -34.736  1.00  0.00     0.002 A 
HETATM   41  C   UNL     1      -6.926  -1.716 -33.868  1.00  0.00     0.029 A 
ENDBRANCH  33  36
ENDBRANCH   4  32
TORSDOF 7
ENDMDL
