MODEL 1
REMARK VINA RESULT:      -8.5      0.000      0.000
REMARK  9 active torsions:
REMARK  status: ('A' for Active; 'I' for Inactive)
REMARK    1  A    between atoms: C_2  and  N_3 
REMARK    2  A    between atoms: C_4  and  S_5 
REMARK    3  A    between atoms: S_5  and  C_6 
REMARK    4  A    between atoms: C_6  and  C_7 
REMARK       I    between atoms: C_7  and  N_8 
REMARK    5  A    between atoms: N_8  and  C_9 
REMARK    6  A    between atoms: C_9  and  C_10 
REMARK    7  A    between atoms: C_10  and  C_11 
REMARK    8  A    between atoms: C_14  and  O_15 
REMARK    9  A    between atoms: C_22  and  C_23 
ROOT
HETATM    1  S   UNL     1      -4.021   5.112 -34.553  1.00  0.00    -0.081 SA
ENDROOT
BRANCH   1   2
HETATM    2  C   UNL     1      -2.904   6.165 -33.759  1.00  0.00     0.192 A 
HETATM    3  N   UNL     1      -2.614   6.117 -32.422  1.00  0.00    -0.308 N 
HETATM    4  C   UNL     1      -1.721   7.149 -32.201  1.00  0.00     0.165 A 
HETATM    5  N   UNL     1      -1.497   7.760 -33.351  1.00  0.00    -0.128 NA
HETATM    6  N   UNL     1      -2.234   7.138 -34.327  1.00  0.00    -0.122 NA
BRANCH   3   7
HETATM    7  C   UNL     1      -3.156   5.209 -31.433  1.00  0.00     0.128 C 
HETATM    8  C   UNL     1      -2.502   3.839 -31.472  1.00  0.00     0.027 C 
ENDBRANCH   3   7
BRANCH   4   9
HETATM    9  C   UNL     1      -1.172   7.552 -30.905  1.00  0.00     0.018 A 
HETATM   10  C   UNL     1      -0.000   6.956 -30.392  1.00  0.00    -0.048 A 
HETATM   11  C   UNL     1       0.716   5.855 -31.128  1.00  0.00     0.049 C 
HETATM   12  C   UNL     1       0.491   7.372 -29.143  1.00  0.00     0.007 A 
HETATM   13  C   UNL     1      -0.163   8.365 -28.414  1.00  0.00     0.001 A 
HETATM   14  C   UNL     1      -1.326   8.942 -28.911  1.00  0.00     0.001 A 
HETATM   15  C   UNL     1      -1.833   8.531 -30.146  1.00  0.00     0.016 A 
ENDBRANCH   4   9
ENDBRANCH   1   2
BRANCH   1  16
HETATM   16  C   UNL     1      -5.558   5.577 -33.702  1.00  0.00     0.185 C 
BRANCH  16  17
HETATM   17  C   UNL     1      -6.587   4.470 -33.866  1.00  0.00     0.227 C 
HETATM   18  N   UNL     1      -6.130   3.206 -33.538  1.00  0.00    -0.360 N 
HETATM   19  H   UNL     1      -5.132   3.067 -33.437  1.00  0.00     0.162 HD
HETATM   20  O   UNL     1      -7.739   4.686 -34.237  1.00  0.00    -0.273 OA
BRANCH  18  21
HETATM   21  C   UNL     1      -6.955   2.029 -33.752  1.00  0.00     0.127 C 
BRANCH  21  22
HETATM   22  C   UNL     1      -6.777   0.997 -32.639  1.00  0.00     0.058 C 
BRANCH  22  23
HETATM   23  C   UNL     1      -6.104  -0.255 -33.146  1.00  0.00    -0.057 A 
HETATM   24  C   UNL     1      -4.791  -0.559 -32.773  1.00  0.00     0.010 A 
HETATM   25  C   UNL     1      -4.160  -1.697 -33.282  1.00  0.00     0.037 A 
HETATM   26  C   UNL     1      -4.824  -2.544 -34.171  1.00  0.00     0.068 A 
HETATM   27  C   UNL     1      -6.134  -2.248 -34.542  1.00  0.00     0.037 A 
HETATM   28  C   UNL     1      -6.770  -1.109 -34.034  1.00  0.00     0.010 A 
BRANCH  26  29
HETATM   29  O   UNL     1      -4.087  -3.615 -34.599  1.00  0.00    -0.356 OA
HETATM   30  C   UNL     1      -3.645  -4.529 -33.604  1.00  0.00     0.210 C 
ENDBRANCH  26  29
ENDBRANCH  22  23
ENDBRANCH  21  22
ENDBRANCH  18  21
ENDBRANCH  16  17
ENDBRANCH   1  16
TORSDOF 9
ENDMDL
MODEL 2
REMARK VINA RESULT:      -8.5      2.801      8.892
REMARK  9 active torsions:
REMARK  status: ('A' for Active; 'I' for Inactive)
REMARK    1  A    between atoms: C_2  and  N_3 
REMARK    2  A    between atoms: C_4  and  S_5 
REMARK    3  A    between atoms: S_5  and  C_6 
REMARK    4  A    between atoms: C_6  and  C_7 
REMARK       I    between atoms: C_7  and  N_8 
REMARK    5  A    between atoms: N_8  and  C_9 
REMARK    6  A    between atoms: C_9  and  C_10 
REMARK    7  A    between atoms: C_10  and  C_11 
REMARK    8  A    between atoms: C_14  and  O_15 
REMARK    9  A    between atoms: C_22  and  C_23 
ROOT
HETATM    1  S   UNL     1      -7.134   3.171 -31.563  1.00  0.00    -0.081 SA
ENDROOT
BRANCH   1   2
HETATM    2  C   UNL     1      -6.862   1.993 -32.798  1.00  0.00     0.192 A 
HETATM    3  N   UNL     1      -6.636   0.664 -32.562  1.00  0.00    -0.308 N 
HETATM    4  C   UNL     1      -6.426   0.098 -33.805  1.00  0.00     0.165 A 
HETATM    5  N   UNL     1      -6.532   1.048 -34.718  1.00  0.00    -0.128 NA
HETATM    6  N   UNL     1      -6.811   2.234 -34.086  1.00  0.00    -0.122 NA
BRANCH   3   7
HETATM    7  C   UNL     1      -6.585  -0.008 -31.281  1.00  0.00     0.128 C 
HETATM    8  C   UNL     1      -5.285   0.243 -30.536  1.00  0.00     0.027 C 
ENDBRANCH   3   7
BRANCH   4   9
HETATM    9  C   UNL     1      -6.070  -1.296 -34.070  1.00  0.00     0.018 A 
HETATM   10  C   UNL     1      -4.745  -1.755 -33.901  1.00  0.00    -0.048 A 
HETATM   11  C   UNL     1      -3.635  -0.829 -33.480  1.00  0.00     0.049 C 
HETATM   12  C   UNL     1      -4.446  -3.101 -34.169  1.00  0.00     0.007 A 
HETATM   13  C   UNL     1      -5.440  -3.983 -34.594  1.00  0.00     0.001 A 
HETATM   14  C   UNL     1      -6.742  -3.528 -34.776  1.00  0.00     0.001 A 
HETATM   15  C   UNL     1      -7.053  -2.190 -34.524  1.00  0.00     0.016 A 
ENDBRANCH   4   9
ENDBRANCH   1   2
BRANCH   1  16
HETATM   16  C   UNL     1      -5.472   3.897 -31.443  1.00  0.00     0.185 C 
BRANCH  16  17
HETATM   17  C   UNL     1      -5.254   4.865 -32.595  1.00  0.00     0.227 C 
HETATM   18  N   UNL     1      -4.473   4.370 -33.623  1.00  0.00    -0.360 N 
HETATM   19  H   UNL     1      -3.934   3.530 -33.455  1.00  0.00     0.162 HD
HETATM   20  O   UNL     1      -5.754   5.988 -32.620  1.00  0.00    -0.273 OA
BRANCH  18  21
HETATM   21  C   UNL     1      -4.078   5.212 -34.740  1.00  0.00     0.127 C 
BRANCH  21  22
HETATM   22  C   UNL     1      -2.561   5.230 -34.932  1.00  0.00     0.058 C 
BRANCH  22  23
HETATM   23  C   UNL     1      -1.856   5.802 -33.728  1.00  0.00    -0.057 A 
HETATM   24  C   UNL     1      -1.241   4.959 -32.796  1.00  0.00     0.010 A 
HETATM   25  C   UNL     1      -0.628   5.493 -31.660  1.00  0.00     0.037 A 
HETATM   26  C   UNL     1      -0.623   6.871 -31.432  1.00  0.00     0.068 A 
HETATM   27  C   UNL     1      -1.231   7.715 -32.360  1.00  0.00     0.037 A 
HETATM   28  C   UNL     1      -1.846   7.184 -33.500  1.00  0.00     0.010 A 
BRANCH  26  29
HETATM   29  O   UNL     1       0.001   7.258 -30.278  1.00  0.00    -0.356 OA
HETATM   30  C   UNL     1       0.237   6.248 -29.306  1.00  0.00     0.210 C 
ENDBRANCH  26  29
ENDBRANCH  22  23
ENDBRANCH  21  22
ENDBRANCH  18  21
ENDBRANCH  16  17
ENDBRANCH   1  16
TORSDOF 9
ENDMDL
MODEL 3
REMARK VINA RESULT:      -8.1      2.865      9.291
REMARK  9 active torsions:
REMARK  status: ('A' for Active; 'I' for Inactive)
REMARK    1  A    between atoms: C_2  and  N_3 
REMARK    2  A    between atoms: C_4  and  S_5 
REMARK    3  A    between atoms: S_5  and  C_6 
REMARK    4  A    between atoms: C_6  and  C_7 
REMARK       I    between atoms: C_7  and  N_8 
REMARK    5  A    between atoms: N_8  and  C_9 
REMARK    6  A    between atoms: C_9  and  C_10 
REMARK    7  A    between atoms: C_10  and  C_11 
REMARK    8  A    between atoms: C_14  and  O_15 
REMARK    9  A    between atoms: C_22  and  C_23 
ROOT
HETATM    1  S   UNL     1      -6.423   3.624 -31.214  1.00  0.00    -0.081 SA
ENDROOT
BRANCH   1   2
HETATM    2  C   UNL     1      -6.284   1.907 -31.352  1.00  0.00     0.192 A 
HETATM    3  N   UNL     1      -6.007   1.246 -32.519  1.00  0.00    -0.308 N 
HETATM    4  C   UNL     1      -6.033  -0.098 -32.197  1.00  0.00     0.165 A 
HETATM    5  N   UNL     1      -6.304  -0.212 -30.908  1.00  0.00    -0.128 NA
HETATM    6  N   UNL     1      -6.455   1.045 -30.379  1.00  0.00    -0.122 NA
BRANCH   3   7
HETATM    7  C   UNL     1      -5.777   1.822 -33.826  1.00  0.00     0.128 C 
HETATM    8  C   UNL     1      -7.034   1.872 -34.678  1.00  0.00     0.027 C 
ENDBRANCH   3   7
BRANCH   4   9
HETATM    9  C   UNL     1      -5.868  -1.213 -33.130  1.00  0.00     0.018 A 
HETATM   10  C   UNL     1      -4.600  -1.788 -33.364  1.00  0.00    -0.048 A 
HETATM   11  C   UNL     1      -3.357  -1.260 -32.697  1.00  0.00     0.049 C 
HETATM   12  C   UNL     1      -4.487  -2.855 -34.269  1.00  0.00     0.007 A 
HETATM   13  C   UNL     1      -5.610  -3.350 -34.933  1.00  0.00     0.001 A 
HETATM   14  C   UNL     1      -6.856  -2.774 -34.716  1.00  0.00     0.001 A 
HETATM   15  C   UNL     1      -6.984  -1.705 -33.826  1.00  0.00     0.016 A 
ENDBRANCH   4   9
ENDBRANCH   1   2
BRANCH   1  16
HETATM   16  C   UNL     1      -4.855   4.004 -30.377  1.00  0.00     0.185 C 
BRANCH  16  17
HETATM   17  C   UNL     1      -3.693   3.704 -31.310  1.00  0.00     0.227 C 
HETATM   18  N   UNL     1      -3.480   4.658 -32.289  1.00  0.00    -0.360 N 
HETATM   19  H   UNL     1      -4.207   5.341 -32.461  1.00  0.00     0.162 HD
HETATM   20  O   UNL     1      -2.985   2.706 -31.188  1.00  0.00    -0.273 OA
BRANCH  18  21
HETATM   21  C   UNL     1      -2.483   4.460 -33.328  1.00  0.00     0.127 C 
BRANCH  21  22
HETATM   22  C   UNL     1      -1.554   5.667 -33.466  1.00  0.00     0.058 C 
BRANCH  22  23
HETATM   23  C   UNL     1      -0.939   6.048 -32.142  1.00  0.00    -0.057 A 
HETATM   24  C   UNL     1      -0.026   5.197 -31.510  1.00  0.00     0.010 A 
HETATM   25  C   UNL     1       0.505   5.537 -30.264  1.00  0.00     0.037 A 
HETATM   26  C   UNL     1       0.133   6.722 -29.627  1.00  0.00     0.068 A 
HETATM   27  C   UNL     1      -0.773   7.575 -30.255  1.00  0.00     0.037 A 
HETATM   28  C   UNL     1      -1.307   7.239 -31.505  1.00  0.00     0.010 A 
BRANCH  26  29
HETATM   29  O   UNL     1       0.720   6.926 -28.408  1.00  0.00    -0.356 OA
HETATM   30  C   UNL     1       1.215   8.232 -28.144  1.00  0.00     0.210 C 
ENDBRANCH  26  29
ENDBRANCH  22  23
ENDBRANCH  21  22
ENDBRANCH  18  21
ENDBRANCH  16  17
ENDBRANCH   1  16
TORSDOF 9
ENDMDL
MODEL 4
REMARK VINA RESULT:      -8.1      4.885      8.137
REMARK  9 active torsions:
REMARK  status: ('A' for Active; 'I' for Inactive)
REMARK    1  A    between atoms: C_2  and  N_3 
REMARK    2  A    between atoms: C_4  and  S_5 
REMARK    3  A    between atoms: S_5  and  C_6 
REMARK    4  A    between atoms: C_6  and  C_7 
REMARK       I    between atoms: C_7  and  N_8 
REMARK    5  A    between atoms: N_8  and  C_9 
REMARK    6  A    between atoms: C_9  and  C_10 
REMARK    7  A    between atoms: C_10  and  C_11 
REMARK    8  A    between atoms: C_14  and  O_15 
REMARK    9  A    between atoms: C_22  and  C_23 
ROOT
HETATM    1  S   UNL     1      -5.808   3.703 -29.984  1.00  0.00    -0.081 SA
ENDROOT
BRANCH   1   2
HETATM    2  C   UNL     1      -5.938   2.040 -30.433  1.00  0.00     0.192 A 
HETATM    3  N   UNL     1      -5.603   1.544 -31.664  1.00  0.00    -0.308 N 
HETATM    4  C   UNL     1      -5.900   0.195 -31.612  1.00  0.00     0.165 A 
HETATM    5  N   UNL     1      -6.376  -0.081 -30.410  1.00  0.00    -0.128 NA
HETATM    6  N   UNL     1      -6.393   1.075 -29.671  1.00  0.00    -0.122 NA
BRANCH   3   7
HETATM    7  C   UNL     1      -5.086   2.277 -32.800  1.00  0.00     0.128 C 
HETATM    8  C   UNL     1      -3.600   2.571 -32.684  1.00  0.00     0.027 C 
ENDBRANCH   3   7
BRANCH   4   9
HETATM    9  C   UNL     1      -5.784  -0.758 -32.717  1.00  0.00     0.018 A 
HETATM   10  C   UNL     1      -4.580  -1.453 -32.958  1.00  0.00    -0.048 A 
HETATM   11  C   UNL     1      -3.351  -1.222 -32.119  1.00  0.00     0.049 C 
HETATM   12  C   UNL     1      -4.512  -2.357 -34.031  1.00  0.00     0.007 A 
HETATM   13  C   UNL     1      -5.618  -2.574 -34.852  1.00  0.00     0.001 A 
HETATM   14  C   UNL     1      -6.800  -1.878 -34.626  1.00  0.00     0.001 A 
HETATM   15  C   UNL     1      -6.880  -0.968 -33.569  1.00  0.00     0.016 A 
ENDBRANCH   4   9
ENDBRANCH   1   2
BRANCH   1  16
HETATM   16  C   UNL     1      -7.509   4.017 -29.426  1.00  0.00     0.185 C 
BRANCH  16  17
HETATM   17  C   UNL     1      -8.477   3.760 -30.570  1.00  0.00     0.227 C 
HETATM   18  N   UNL     1      -8.062   4.249 -31.796  1.00  0.00    -0.360 N 
HETATM   19  H   UNL     1      -7.297   4.911 -31.815  1.00  0.00     0.162 HD
HETATM   20  O   UNL     1      -9.530   3.144 -30.421  1.00  0.00    -0.273 OA
BRANCH  18  21
HETATM   21  C   UNL     1      -8.927   4.185 -32.963  1.00  0.00     0.127 C 
BRANCH  21  22
HETATM   22  C   UNL     1      -8.822   2.837 -33.678  1.00  0.00     0.058 C 
BRANCH  22  23
HETATM   23  C   UNL     1     -10.183   2.258 -33.970  1.00  0.00    -0.057 A 
HETATM   24  C   UNL     1     -11.106   2.965 -34.748  1.00  0.00     0.010 A 
HETATM   25  C   UNL     1     -12.380   2.441 -34.978  1.00  0.00     0.037 A 
HETATM   26  C   UNL     1     -12.757   1.212 -34.435  1.00  0.00     0.068 A 
HETATM   27  C   UNL     1     -11.839   0.501 -33.663  1.00  0.00     0.037 A 
HETATM   28  C   UNL     1     -10.561   1.022 -33.430  1.00  0.00     0.010 A 
BRANCH  26  29
HETATM   29  O   UNL     1     -14.035   0.822 -34.730  1.00  0.00    -0.356 OA
HETATM   30  C   UNL     1     -15.043   1.159 -33.785  1.00  0.00     0.210 C 
ENDBRANCH  26  29
ENDBRANCH  22  23
ENDBRANCH  21  22
ENDBRANCH  18  21
ENDBRANCH  16  17
ENDBRANCH   1  16
TORSDOF 9
ENDMDL
MODEL 5
REMARK VINA RESULT:      -8.0      5.596      8.910
REMARK  9 active torsions:
REMARK  status: ('A' for Active; 'I' for Inactive)
REMARK    1  A    between atoms: C_2  and  N_3 
REMARK    2  A    between atoms: C_4  and  S_5 
REMARK    3  A    between atoms: S_5  and  C_6 
REMARK    4  A    between atoms: C_6  and  C_7 
REMARK       I    between atoms: C_7  and  N_8 
REMARK    5  A    between atoms: N_8  and  C_9 
REMARK    6  A    between atoms: C_9  and  C_10 
REMARK    7  A    between atoms: C_10  and  C_11 
REMARK    8  A    between atoms: C_14  and  O_15 
REMARK    9  A    between atoms: C_22  and  C_23 
ROOT
HETATM    1  S   UNL     1      -6.419   3.477 -30.524  1.00  0.00    -0.081 SA
ENDROOT
BRANCH   1   2
HETATM    2  C   UNL     1      -6.313   1.786 -30.864  1.00  0.00     0.192 A 
HETATM    3  N   UNL     1      -5.894   1.263 -32.058  1.00  0.00    -0.308 N 
HETATM    4  C   UNL     1      -6.005  -0.108 -31.919  1.00  0.00     0.165 A 
HETATM    5  N   UNL     1      -6.458  -0.368 -30.704  1.00  0.00    -0.128 NA
HETATM    6  N   UNL     1      -6.644   0.819 -30.043  1.00  0.00    -0.122 NA
BRANCH   3   7
HETATM    7  C   UNL     1      -5.465   1.985 -33.236  1.00  0.00     0.128 C 
HETATM    8  C   UNL     1      -6.551   2.086 -34.293  1.00  0.00     0.027 C 
ENDBRANCH   3   7
BRANCH   4   9
HETATM    9  C   UNL     1      -5.744  -1.105 -32.958  1.00  0.00     0.018 A 
HETATM   10  C   UNL     1      -4.450  -1.637 -33.149  1.00  0.00    -0.048 A 
HETATM   11  C   UNL     1      -3.276  -1.180 -32.325  1.00  0.00     0.049 C 
HETATM   12  C   UNL     1      -4.243  -2.591 -34.160  1.00  0.00     0.007 A 
HETATM   13  C   UNL     1      -5.298  -3.015 -34.968  1.00  0.00     0.001 A 
HETATM   14  C   UNL     1      -6.569  -2.479 -34.791  1.00  0.00     0.001 A 
HETATM   15  C   UNL     1      -6.789  -1.523 -33.797  1.00  0.00     0.016 A 
ENDBRANCH   4   9
ENDBRANCH   1   2
BRANCH   1  16
HETATM   16  C   UNL     1      -8.203   3.630 -30.214  1.00  0.00     0.185 C 
BRANCH  16  17
HETATM   17  C   UNL     1      -8.935   3.829 -31.532  1.00  0.00     0.227 C 
HETATM   18  N   UNL     1      -9.360   2.661 -32.138  1.00  0.00    -0.360 N 
HETATM   19  H   UNL     1      -8.979   1.783 -31.807  1.00  0.00     0.162 HD
HETATM   20  O   UNL     1      -9.152   4.943 -32.006  1.00  0.00    -0.273 OA
BRANCH  18  21
HETATM   21  C   UNL     1      -9.970   2.676 -33.456  1.00  0.00     0.127 C 
BRANCH  21  22
HETATM   22  C   UNL     1     -10.661   1.351 -33.781  1.00  0.00     0.058 C 
BRANCH  22  23
HETATM   23  C   UNL     1     -12.153   1.438 -33.572  1.00  0.00    -0.057 A 
HETATM   24  C   UNL     1     -12.962   0.309 -33.735  1.00  0.00     0.010 A 
HETATM   25  C   UNL     1     -14.347   0.408 -33.582  1.00  0.00     0.037 A 
HETATM   26  C   UNL     1     -14.946   1.629 -33.271  1.00  0.00     0.068 A 
HETATM   27  C   UNL     1     -14.144   2.757 -33.102  1.00  0.00     0.037 A 
HETATM   28  C   UNL     1     -12.755   2.662 -33.254  1.00  0.00     0.010 A 
BRANCH  26  29
HETATM   29  O   UNL     1     -16.309   1.586 -33.160  1.00  0.00    -0.356 OA
HETATM   30  C   UNL     1     -16.918   2.572 -32.335  1.00  0.00     0.210 C 
ENDBRANCH  26  29
ENDBRANCH  22  23
ENDBRANCH  21  22
ENDBRANCH  18  21
ENDBRANCH  16  17
ENDBRANCH   1  16
TORSDOF 9
ENDMDL
MODEL 6
REMARK VINA RESULT:      -7.9      1.561      2.450
REMARK  9 active torsions:
REMARK  status: ('A' for Active; 'I' for Inactive)
REMARK    1  A    between atoms: C_2  and  N_3 
REMARK    2  A    between atoms: C_4  and  S_5 
REMARK    3  A    between atoms: S_5  and  C_6 
REMARK    4  A    between atoms: C_6  and  C_7 
REMARK       I    between atoms: C_7  and  N_8 
REMARK    5  A    between atoms: N_8  and  C_9 
REMARK    6  A    between atoms: C_9  and  C_10 
REMARK    7  A    between atoms: C_10  and  C_11 
REMARK    8  A    between atoms: C_14  and  O_15 
REMARK    9  A    between atoms: C_22  and  C_23 
ROOT
HETATM    1  S   UNL     1      -5.809   3.965 -34.217  1.00  0.00    -0.081 SA
ENDROOT
BRANCH   1   2
HETATM    2  C   UNL     1      -4.346   4.852 -33.976  1.00  0.00     0.192 A 
HETATM    3  N   UNL     1      -3.635   4.866 -32.806  1.00  0.00    -0.308 N 
HETATM    4  C   UNL     1      -2.575   5.725 -33.029  1.00  0.00     0.165 A 
HETATM    5  N   UNL     1      -2.661   6.180 -34.268  1.00  0.00    -0.128 NA
HETATM    6  N   UNL     1      -3.767   5.627 -34.861  1.00  0.00    -0.122 NA
BRANCH   3   7
HETATM    7  C   UNL     1      -3.944   4.167 -31.577  1.00  0.00     0.128 C 
HETATM    8  C   UNL     1      -3.334   2.777 -31.522  1.00  0.00     0.027 C 
ENDBRANCH   3   7
BRANCH   4   9
HETATM    9  C   UNL     1      -1.569   6.128 -32.046  1.00  0.00     0.018 A 
HETATM   10  C   UNL     1      -1.723   7.309 -31.288  1.00  0.00    -0.048 A 
HETATM   11  C   UNL     1      -2.902   8.225 -31.481  1.00  0.00     0.049 C 
HETATM   12  C   UNL     1      -0.732   7.660 -30.356  1.00  0.00     0.007 A 
HETATM   13  C   UNL     1       0.392   6.855 -30.172  1.00  0.00     0.001 A 
HETATM   14  C   UNL     1       0.552   5.701 -30.929  1.00  0.00     0.001 A 
HETATM   15  C   UNL     1      -0.419   5.343 -31.868  1.00  0.00     0.016 A 
ENDBRANCH   4   9
ENDBRANCH   1   2
BRANCH   1  16
HETATM   16  C   UNL     1      -6.990   5.064 -33.380  1.00  0.00     0.185 C 
BRANCH  16  17
HETATM   17  C   UNL     1      -8.049   4.233 -32.674  1.00  0.00     0.227 C 
HETATM   18  N   UNL     1      -8.247   2.974 -33.213  1.00  0.00    -0.360 N 
HETATM   19  H   UNL     1      -7.866   2.779 -34.130  1.00  0.00     0.162 HD
HETATM   20  O   UNL     1      -8.661   4.638 -31.687  1.00  0.00    -0.273 OA
BRANCH  18  21
HETATM   21  C   UNL     1      -9.304   2.104 -32.723  1.00  0.00     0.127 C 
BRANCH  21  22
HETATM   22  C   UNL     1      -8.769   1.043 -31.762  1.00  0.00     0.058 C 
BRANCH  22  23
HETATM   23  C   UNL     1      -7.691   0.205 -32.404  1.00  0.00    -0.057 A 
HETATM   24  C   UNL     1      -7.952  -0.517 -33.573  1.00  0.00     0.010 A 
HETATM   25  C   UNL     1      -6.962  -1.324 -34.137  1.00  0.00     0.037 A 
HETATM   26  C   UNL     1      -5.702  -1.430 -33.545  1.00  0.00     0.068 A 
HETATM   27  C   UNL     1      -5.436  -0.708 -32.382  1.00  0.00     0.037 A 
HETATM   28  C   UNL     1      -6.425   0.103 -31.814  1.00  0.00     0.010 A 
BRANCH  26  29
HETATM   29  O   UNL     1      -4.832  -2.262 -34.195  1.00  0.00    -0.356 OA
HETATM   30  C   UNL     1      -5.397  -3.207 -35.094  1.00  0.00     0.210 C 
ENDBRANCH  26  29
ENDBRANCH  22  23
ENDBRANCH  21  22
ENDBRANCH  18  21
ENDBRANCH  16  17
ENDBRANCH   1  16
TORSDOF 9
ENDMDL
MODEL 7
REMARK VINA RESULT:      -7.8      5.294      8.380
REMARK  9 active torsions:
REMARK  status: ('A' for Active; 'I' for Inactive)
REMARK    1  A    between atoms: C_2  and  N_3 
REMARK    2  A    between atoms: C_4  and  S_5 
REMARK    3  A    between atoms: S_5  and  C_6 
REMARK    4  A    between atoms: C_6  and  C_7 
REMARK       I    between atoms: C_7  and  N_8 
REMARK    5  A    between atoms: N_8  and  C_9 
REMARK    6  A    between atoms: C_9  and  C_10 
REMARK    7  A    between atoms: C_10  and  C_11 
REMARK    8  A    between atoms: C_14  and  O_15 
REMARK    9  A    between atoms: C_22  and  C_23 
ROOT
HETATM    1  S   UNL     1      -5.962   3.936 -30.473  1.00  0.00    -0.081 SA
ENDROOT
BRANCH   1   2
HETATM    2  C   UNL     1      -6.017   2.232 -30.754  1.00  0.00     0.192 A 
HETATM    3  N   UNL     1      -5.690   1.633 -31.941  1.00  0.00    -0.308 N 
HETATM    4  C   UNL     1      -5.914   0.283 -31.748  1.00  0.00     0.165 A 
HETATM    5  N   UNL     1      -6.342   0.105 -30.510  1.00  0.00    -0.128 NA
HETATM    6  N   UNL     1      -6.400   1.326 -29.887  1.00  0.00    -0.122 NA
BRANCH   3   7
HETATM    7  C   UNL     1      -5.243   2.275 -33.159  1.00  0.00     0.128 C 
HETATM    8  C   UNL     1      -6.389   2.642 -34.086  1.00  0.00     0.027 C 
ENDBRANCH   3   7
BRANCH   4   9
HETATM    9  C   UNL     1      -5.779  -0.767 -32.758  1.00  0.00     0.018 A 
HETATM   10  C   UNL     1      -6.853  -1.101 -33.612  1.00  0.00    -0.048 A 
HETATM   11  C   UNL     1      -8.193  -0.423 -33.499  1.00  0.00     0.049 C 
HETATM   12  C   UNL     1      -6.681  -2.117 -34.566  1.00  0.00     0.007 A 
HETATM   13  C   UNL     1      -5.466  -2.792 -34.679  1.00  0.00     0.001 A 
HETATM   14  C   UNL     1      -4.413  -2.475 -33.828  1.00  0.00     0.001 A 
HETATM   15  C   UNL     1      -4.571  -1.475 -32.867  1.00  0.00     0.016 A 
ENDBRANCH   4   9
ENDBRANCH   1   2
BRANCH   1  16
HETATM   16  C   UNL     1      -7.504   4.155 -29.536  1.00  0.00     0.185 C 
BRANCH  16  17
HETATM   17  C   UNL     1      -8.614   4.595 -30.477  1.00  0.00     0.227 C 
HETATM   18  N   UNL     1      -8.176   5.091 -31.692  1.00  0.00    -0.360 N 
HETATM   19  H   UNL     1      -7.198   5.333 -31.788  1.00  0.00     0.162 HD
HETATM   20  O   UNL     1      -9.805   4.494 -30.189  1.00  0.00    -0.273 OA
BRANCH  18  21
HETATM   21  C   UNL     1      -9.108   5.659 -32.652  1.00  0.00     0.127 C 
BRANCH  21  22
HETATM   22  C   UNL     1      -8.891   5.100 -34.058  1.00  0.00     0.058 C 
BRANCH  22  23
HETATM   23  C   UNL     1      -9.968   4.113 -34.435  1.00  0.00    -0.057 A 
HETATM   24  C   UNL     1     -10.935   4.445 -35.390  1.00  0.00     0.010 A 
HETATM   25  C   UNL     1     -11.955   3.543 -35.701  1.00  0.00     0.037 A 
HETATM   26  C   UNL     1     -12.031   2.303 -35.065  1.00  0.00     0.068 A 
HETATM   27  C   UNL     1     -11.067   1.966 -34.116  1.00  0.00     0.037 A 
HETATM   28  C   UNL     1     -10.043   2.867 -33.801  1.00  0.00     0.010 A 
BRANCH  26  29
HETATM   29  O   UNL     1     -13.085   1.522 -35.456  1.00  0.00    -0.356 OA
HETATM   30  C   UNL     1     -13.943   1.040 -34.429  1.00  0.00     0.210 C 
ENDBRANCH  26  29
ENDBRANCH  22  23
ENDBRANCH  21  22
ENDBRANCH  18  21
ENDBRANCH  16  17
ENDBRANCH   1  16
TORSDOF 9
ENDMDL
MODEL 8
REMARK VINA RESULT:      -7.8      2.909      9.166
REMARK  9 active torsions:
REMARK  status: ('A' for Active; 'I' for Inactive)
REMARK    1  A    between atoms: C_2  and  N_3 
REMARK    2  A    between atoms: C_4  and  S_5 
REMARK    3  A    between atoms: S_5  and  C_6 
REMARK    4  A    between atoms: C_6  and  C_7 
REMARK       I    between atoms: C_7  and  N_8 
REMARK    5  A    between atoms: N_8  and  C_9 
REMARK    6  A    between atoms: C_9  and  C_10 
REMARK    7  A    between atoms: C_10  and  C_11 
REMARK    8  A    between atoms: C_14  and  O_15 
REMARK    9  A    between atoms: C_22  and  C_23 
ROOT
HETATM    1  S   UNL     1      -6.907   4.081 -30.548  1.00  0.00    -0.081 SA
ENDROOT
BRANCH   1   2
HETATM    2  C   UNL     1      -6.462   3.109 -31.905  1.00  0.00     0.192 A 
HETATM    3  N   UNL     1      -6.513   1.741 -31.926  1.00  0.00    -0.308 N 
HETATM    4  C   UNL     1      -6.034   1.372 -33.169  1.00  0.00     0.165 A 
HETATM    5  N   UNL     1      -5.726   2.470 -33.839  1.00  0.00    -0.128 NA
HETATM    6  N   UNL     1      -6.001   3.557 -33.048  1.00  0.00    -0.122 NA
BRANCH   3   7
HETATM    7  C   UNL     1      -6.938   0.858 -30.861  1.00  0.00     0.128 C 
HETATM    8  C   UNL     1      -5.839   0.583 -29.850  1.00  0.00     0.027 C 
ENDBRANCH   3   7
BRANCH   4   9
HETATM    9  C   UNL     1      -5.824   0.003 -33.642  1.00  0.00     0.018 A 
HETATM   10  C   UNL     1      -6.759  -0.625 -34.493  1.00  0.00    -0.048 A 
HETATM   11  C   UNL     1      -8.028   0.063 -34.921  1.00  0.00     0.049 C 
HETATM   12  C   UNL     1      -6.520  -1.941 -34.922  1.00  0.00     0.007 A 
HETATM   13  C   UNL     1      -5.373  -2.626 -34.520  1.00  0.00     0.001 A 
HETATM   14  C   UNL     1      -4.460  -2.013 -33.669  1.00  0.00     0.001 A 
HETATM   15  C   UNL     1      -4.688  -0.709 -33.225  1.00  0.00     0.016 A 
ENDBRANCH   4   9
ENDBRANCH   1   2
BRANCH   1  16
HETATM   16  C   UNL     1      -5.261   4.490 -29.894  1.00  0.00     0.185 C 
BRANCH  16  17
HETATM   17  C   UNL     1      -4.557   5.444 -30.846  1.00  0.00     0.227 C 
HETATM   18  N   UNL     1      -3.412   4.934 -31.431  1.00  0.00    -0.360 N 
HETATM   19  H   UNL     1      -3.006   4.093 -31.039  1.00  0.00     0.162 HD
HETATM   20  O   UNL     1      -4.986   6.569 -31.093  1.00  0.00    -0.273 OA
BRANCH  18  21
HETATM   21  C   UNL     1      -2.564   5.762 -32.272  1.00  0.00     0.127 C 
BRANCH  21  22
HETATM   22  C   UNL     1      -1.094   5.352 -32.180  1.00  0.00     0.058 C 
BRANCH  22  23
HETATM   23  C   UNL     1      -0.462   5.840 -30.900  1.00  0.00    -0.057 A 
HETATM   24  C   UNL     1       0.235   4.957 -30.069  1.00  0.00     0.010 A 
HETATM   25  C   UNL     1       0.779   5.407 -28.864  1.00  0.00     0.037 A 
HETATM   26  C   UNL     1       0.635   6.737 -28.467  1.00  0.00     0.068 A 
HETATM   27  C   UNL     1      -0.055   7.622 -29.294  1.00  0.00     0.037 A 
HETATM   28  C   UNL     1      -0.602   7.175 -30.503  1.00  0.00     0.010 A 
BRANCH  26  29
HETATM   29  O   UNL     1       1.207   7.040 -27.262  1.00  0.00    -0.356 OA
HETATM   30  C   UNL     1       0.347   7.559 -26.255  1.00  0.00     0.210 C 
ENDBRANCH  26  29
ENDBRANCH  22  23
ENDBRANCH  21  22
ENDBRANCH  18  21
ENDBRANCH  16  17
ENDBRANCH   1  16
TORSDOF 9
ENDMDL
MODEL 9
REMARK VINA RESULT:      -7.8      3.414      8.838
REMARK  9 active torsions:
REMARK  status: ('A' for Active; 'I' for Inactive)
REMARK    1  A    between atoms: C_2  and  N_3 
REMARK    2  A    between atoms: C_4  and  S_5 
REMARK    3  A    between atoms: S_5  and  C_6 
REMARK    4  A    between atoms: C_6  and  C_7 
REMARK       I    between atoms: C_7  and  N_8 
REMARK    5  A    between atoms: N_8  and  C_9 
REMARK    6  A    between atoms: C_9  and  C_10 
REMARK    7  A    between atoms: C_10  and  C_11 
REMARK    8  A    between atoms: C_14  and  O_15 
REMARK    9  A    between atoms: C_22  and  C_23 
ROOT
HETATM    1  S   UNL     1      -5.516   5.446 -30.478  1.00  0.00    -0.081 SA
ENDROOT
BRANCH   1   2
HETATM    2  C   UNL     1      -6.244   3.948 -30.939  1.00  0.00     0.192 A 
HETATM    3  N   UNL     1      -5.821   3.174 -31.985  1.00  0.00    -0.308 N 
HETATM    4  C   UNL     1      -6.696   2.105 -32.030  1.00  0.00     0.165 A 
HETATM    5  N   UNL     1      -7.578   2.247 -31.056  1.00  0.00    -0.128 NA
HETATM    6  N   UNL     1      -7.289   3.399 -30.369  1.00  0.00    -0.122 NA
BRANCH   3   7
HETATM    7  C   UNL     1      -4.718   3.433 -32.885  1.00  0.00     0.128 C 
HETATM    8  C   UNL     1      -3.395   2.898 -32.365  1.00  0.00     0.027 C 
ENDBRANCH   3   7
BRANCH   4   9
HETATM    9  C   UNL     1      -6.702   1.036 -33.030  1.00  0.00     0.018 A 
HETATM   10  C   UNL     1      -5.997  -0.169 -32.814  1.00  0.00    -0.048 A 
HETATM   11  C   UNL     1      -5.180  -0.395 -31.570  1.00  0.00     0.049 C 
HETATM   12  C   UNL     1      -6.028  -1.168 -33.801  1.00  0.00     0.007 A 
HETATM   13  C   UNL     1      -6.746  -0.983 -34.982  1.00  0.00     0.001 A 
HETATM   14  C   UNL     1      -7.427   0.210 -35.203  1.00  0.00     0.001 A 
HETATM   15  C   UNL     1      -7.397   1.217 -34.236  1.00  0.00     0.016 A 
ENDBRANCH   4   9
ENDBRANCH   1   2
BRANCH   1  16
HETATM   16  C   UNL     1      -5.933   5.473 -28.708  1.00  0.00     0.185 C 
BRANCH  16  17
HETATM   17  C   UNL     1      -4.915   6.316 -27.957  1.00  0.00     0.227 C 
HETATM   18  N   UNL     1      -3.731   6.532 -28.639  1.00  0.00    -0.360 N 
HETATM   19  H   UNL     1      -3.532   5.959 -29.449  1.00  0.00     0.162 HD
HETATM   20  O   UNL     1      -5.138   6.788 -26.844  1.00  0.00    -0.273 OA
BRANCH  18  21
HETATM   21  C   UNL     1      -2.615   7.219 -28.010  1.00  0.00     0.127 C 
BRANCH  21  22
HETATM   22  C   UNL     1      -2.147   8.420 -28.832  1.00  0.00     0.058 C 
BRANCH  22  23
HETATM   23  C   UNL     1      -1.755   8.014 -30.231  1.00  0.00    -0.057 A 
HETATM   24  C   UNL     1      -2.525   8.409 -31.330  1.00  0.00     0.010 A 
HETATM   25  C   UNL     1      -2.180   7.993 -32.617  1.00  0.00     0.037 A 
HETATM   26  C   UNL     1      -1.068   7.176 -32.830  1.00  0.00     0.068 A 
HETATM   27  C   UNL     1      -0.294   6.784 -31.739  1.00  0.00     0.037 A 
HETATM   28  C   UNL     1      -0.636   7.199 -30.447  1.00  0.00     0.010 A 
BRANCH  26  29
HETATM   29  O   UNL     1      -0.850   6.834 -34.137  1.00  0.00    -0.356 OA
HETATM   30  C   UNL     1      -1.322   5.559 -34.555  1.00  0.00     0.210 C 
ENDBRANCH  26  29
ENDBRANCH  22  23
ENDBRANCH  21  22
ENDBRANCH  18  21
ENDBRANCH  16  17
ENDBRANCH   1  16
TORSDOF 9
ENDMDL
MODEL 10
REMARK VINA RESULT:      -7.6      3.198     10.023
REMARK  9 active torsions:
REMARK  status: ('A' for Active; 'I' for Inactive)
REMARK    1  A    between atoms: C_2  and  N_3 
REMARK    2  A    between atoms: C_4  and  S_5 
REMARK    3  A    between atoms: S_5  and  C_6 
REMARK    4  A    between atoms: C_6  and  C_7 
REMARK       I    between atoms: C_7  and  N_8 
REMARK    5  A    between atoms: N_8  and  C_9 
REMARK    6  A    between atoms: C_9  and  C_10 
REMARK    7  A    between atoms: C_10  and  C_11 
REMARK    8  A    between atoms: C_14  and  O_15 
REMARK    9  A    between atoms: C_22  and  C_23 
ROOT
HETATM    1  S   UNL     1      -4.769   2.289 -30.604  1.00  0.00    -0.081 SA
ENDROOT
BRANCH   1   2
HETATM    2  C   UNL     1      -4.229   1.083 -31.717  1.00  0.00     0.192 A 
HETATM    3  N   UNL     1      -4.884  -0.095 -31.958  1.00  0.00    -0.308 N 
HETATM    4  C   UNL     1      -4.096  -0.776 -32.867  1.00  0.00     0.165 A 
HETATM    5  N   UNL     1      -3.042  -0.029 -33.146  1.00  0.00    -0.128 NA
HETATM    6  N   UNL     1      -3.130   1.137 -32.429  1.00  0.00    -0.122 NA
BRANCH   3   7
HETATM    7  C   UNL     1      -6.118  -0.557 -31.360  1.00  0.00     0.128 C 
HETATM    8  C   UNL     1      -7.341   0.163 -31.904  1.00  0.00     0.027 C 
ENDBRANCH   3   7
BRANCH   4   9
HETATM    9  C   UNL     1      -4.339  -2.125 -33.379  1.00  0.00     0.018 A 
HETATM   10  C   UNL     1      -5.325  -2.367 -34.360  1.00  0.00    -0.048 A 
HETATM   11  C   UNL     1      -6.196  -1.261 -34.896  1.00  0.00     0.049 C 
HETATM   12  C   UNL     1      -5.526  -3.678 -34.823  1.00  0.00     0.007 A 
HETATM   13  C   UNL     1      -4.764  -4.735 -34.326  1.00  0.00     0.001 A 
HETATM   14  C   UNL     1      -3.803  -4.501 -33.349  1.00  0.00     0.001 A 
HETATM   15  C   UNL     1      -3.598  -3.204 -32.871  1.00  0.00     0.016 A 
ENDBRANCH   4   9
ENDBRANCH   1   2
BRANCH   1  16
HETATM   16  C   UNL     1      -5.027   3.682 -31.743  1.00  0.00     0.185 C 
BRANCH  16  17
HETATM   17  C   UNL     1      -3.684   4.269 -32.143  1.00  0.00     0.227 C 
HETATM   18  N   UNL     1      -2.827   4.520 -31.087  1.00  0.00    -0.360 N 
HETATM   19  H   UNL     1      -3.207   4.516 -30.149  1.00  0.00     0.162 HD
HETATM   20  O   UNL     1      -3.375   4.479 -33.315  1.00  0.00    -0.273 OA
BRANCH  18  21
HETATM   21  C   UNL     1      -1.552   5.187 -31.294  1.00  0.00     0.127 C 
BRANCH  21  22
HETATM   22  C   UNL     1      -1.647   6.691 -31.038  1.00  0.00     0.058 C 
BRANCH  22  23
HETATM   23  C   UNL     1      -1.089   7.060 -29.686  1.00  0.00    -0.057 A 
HETATM   24  C   UNL     1       0.292   7.045 -29.457  1.00  0.00     0.010 A 
HETATM   25  C   UNL     1       0.798   7.344 -28.191  1.00  0.00     0.037 A 
HETATM   26  C   UNL     1      -0.058   7.658 -27.134  1.00  0.00     0.068 A 
HETATM   27  C   UNL     1      -1.434   7.679 -27.358  1.00  0.00     0.037 A 
HETATM   28  C   UNL     1      -1.946   7.379 -28.626  1.00  0.00     0.010 A 
BRANCH  26  29
HETATM   29  O   UNL     1       0.569   7.920 -25.947  1.00  0.00    -0.356 OA
HETATM   30  C   UNL     1       1.966   8.180 -26.003  1.00  0.00     0.210 C 
ENDBRANCH  26  29
ENDBRANCH  22  23
ENDBRANCH  21  22
ENDBRANCH  18  21
ENDBRANCH  16  17
ENDBRANCH   1  16
TORSDOF 9
ENDMDL
