MODEL 1
REMARK VINA RESULT:      -8.8      0.000      0.000
REMARK  8 active torsions:
REMARK  status: ('A' for Active; 'I' for Inactive)
REMARK    1  A    between atoms: C_6  and  N_7 
REMARK       I    between atoms: N_7  and  C_8 
REMARK    2  A    between atoms: C_8  and  C_9 
REMARK    3  A    between atoms: C_9  and  N_10 
REMARK    4  A    between atoms: C_13  and  C_14 
REMARK       I    between atoms: C_14  and  N_15 
REMARK    5  A    between atoms: N_15  and  C_16 
REMARK    6  A    between atoms: C_16  and  C_17 
REMARK    7  A    between atoms: C_19  and  O_20 
REMARK    8  A    between atoms: C_26  and  N_27 
ROOT
HETATM    1  N   UNL     1      -5.605   2.546 -31.645  1.00  0.00    -0.248 N 
HETATM    2  N   UNL     1      -5.830   3.201 -32.804  1.00  0.00     0.007 NA
HETATM    3  N   UNL     1      -7.091   3.597 -32.803  1.00  0.00    -0.150 NA
HETATM    4  C   UNL     1      -7.699   3.121 -31.663  1.00  0.00     0.186 A 
HETATM    5  C   UNL     1      -6.752   2.464 -30.886  1.00  0.00     0.151 A 
ENDROOT
BRANCH   1   6
HETATM    6  C   UNL     1      -4.304   1.956 -31.426  1.00  0.00     0.251 C 
BRANCH   6   7
HETATM    7  C   UNL     1      -4.219   0.500 -31.850  1.00  0.00     0.241 C 
HETATM    8  N   UNL     1      -4.828   0.225 -33.063  1.00  0.00    -0.326 N 
HETATM    9  H   UNL     1      -5.049   1.034 -33.647  1.00  0.00     0.169 HD
HETATM   10  O   UNL     1      -3.719  -0.328 -31.093  1.00  0.00    -0.271 OA
BRANCH   8  11
HETATM   11  C   UNL     1      -5.099  -1.032 -33.641  1.00  0.00     0.036 A 
HETATM   12  C   UNL     1      -4.220  -2.114 -33.614  1.00  0.00     0.053 A 
HETATM   13  C   UNL     1      -4.595  -3.343 -34.174  1.00  0.00     0.042 A 
HETATM   14  C   UNL     1      -5.852  -3.511 -34.775  1.00  0.00    -0.040 A 
HETATM   15 CL   UNL     1      -3.464  -4.648 -34.086  1.00  0.00    -0.084 Cl
HETATM   16  C   UNL     1      -6.288  -4.823 -35.363  1.00  0.00     0.050 C 
HETATM   17  C   UNL     1      -6.726  -2.418 -34.802  1.00  0.00     0.011 A 
HETATM   18  C   UNL     1      -6.352  -1.194 -34.240  1.00  0.00     0.030 A 
ENDBRANCH   8  11
ENDBRANCH   6   7
ENDBRANCH   1   6
BRANCH   5  19
HETATM   19  N   UNL     1      -6.815   1.862 -29.669  1.00  0.00    -0.382 N 
HETATM   20  H   UNL     1      -6.868   0.843 -29.629  1.00  0.00     0.157 HD
HETATM   21  H   UNL     1      -7.354   2.268 -28.904  1.00  0.00     0.157 HD
ENDBRANCH   5  19
BRANCH   4  22
HETATM   22  C   UNL     1      -9.120   3.324 -31.419  1.00  0.00     0.275 C 
HETATM   23  N   UNL     1      -9.824   3.855 -32.480  1.00  0.00    -0.351 N 
HETATM   24  H   UNL     1      -9.326   4.104 -33.327  1.00  0.00     0.163 HD
HETATM   25  O   UNL     1      -9.647   3.077 -30.337  1.00  0.00    -0.266 OA
BRANCH  23  26
HETATM   26  C   UNL     1     -11.233   4.146 -32.374  1.00  0.00     0.161 C 
BRANCH  26  27
HETATM   27  C   UNL     1     -12.060   3.144 -33.137  1.00  0.00    -0.038 A 
HETATM   28  C   UNL     1     -13.352   2.809 -32.689  1.00  0.00     0.045 A 
HETATM   29  C   UNL     1     -14.121   1.865 -33.372  1.00  0.00     0.068 A 
HETATM   30  C   UNL     1     -13.595   1.254 -34.512  1.00  0.00     0.037 A 
HETATM   31  C   UNL     1     -12.317   1.578 -34.968  1.00  0.00     0.003 A 
HETATM   32  C   UNL     1     -11.552   2.521 -34.284  1.00  0.00     0.009 A 
BRANCH  29  33
HETATM   33  O   UNL     1     -15.381   1.454 -33.035  1.00  0.00    -0.356 OA
HETATM   34  C   UNL     1     -16.162   2.348 -32.251  1.00  0.00     0.210 C 
ENDBRANCH  29  33
ENDBRANCH  26  27
ENDBRANCH  23  26
ENDBRANCH   4  22
TORSDOF 8
ENDMDL
MODEL 2
REMARK VINA RESULT:      -8.8      5.071      9.380
REMARK  8 active torsions:
REMARK  status: ('A' for Active; 'I' for Inactive)
REMARK    1  A    between atoms: C_6  and  N_7 
REMARK       I    between atoms: N_7  and  C_8 
REMARK    2  A    between atoms: C_8  and  C_9 
REMARK    3  A    between atoms: C_9  and  N_10 
REMARK    4  A    between atoms: C_13  and  C_14 
REMARK       I    between atoms: C_14  and  N_15 
REMARK    5  A    between atoms: N_15  and  C_16 
REMARK    6  A    between atoms: C_16  and  C_17 
REMARK    7  A    between atoms: C_19  and  O_20 
REMARK    8  A    between atoms: C_26  and  N_27 
ROOT
HETATM    1  N   UNL     1      -4.785   3.187 -32.228  1.00  0.00    -0.248 N 
HETATM    2  N   UNL     1      -4.103   2.285 -31.490  1.00  0.00     0.007 NA
HETATM    3  N   UNL     1      -2.912   2.796 -31.233  1.00  0.00    -0.150 NA
HETATM    4  C   UNL     1      -2.804   4.005 -31.882  1.00  0.00     0.186 A 
HETATM    5  C   UNL     1      -4.012   4.293 -32.508  1.00  0.00     0.151 A 
ENDROOT
BRANCH   1   6
HETATM    6  C   UNL     1      -6.109   2.839 -32.695  1.00  0.00     0.251 C 
BRANCH   6   7
HETATM    7  C   UNL     1      -6.364   1.342 -32.734  1.00  0.00     0.241 C 
HETATM    8  N   UNL     1      -5.499   0.640 -33.556  1.00  0.00    -0.326 N 
HETATM    9  H   UNL     1      -4.657   1.138 -33.850  1.00  0.00     0.169 HD
HETATM   10  O   UNL     1      -7.328   0.872 -32.135  1.00  0.00    -0.271 OA
BRANCH   8  11
HETATM   11  C   UNL     1      -5.581  -0.706 -33.965  1.00  0.00     0.036 A 
HETATM   12  C   UNL     1      -4.623  -1.676 -33.674  1.00  0.00     0.053 A 
HETATM   13  C   UNL     1      -4.813  -3.003 -34.081  1.00  0.00     0.042 A 
HETATM   14  C   UNL     1      -5.961  -3.385 -34.792  1.00  0.00    -0.040 A 
HETATM   15 CL   UNL     1      -3.593  -4.157 -33.666  1.00  0.00    -0.084 Cl
HETATM   16  C   UNL     1      -6.200  -4.804 -35.223  1.00  0.00     0.050 C 
HETATM   17  C   UNL     1      -6.916  -2.404 -35.086  1.00  0.00     0.011 A 
HETATM   18  C   UNL     1      -6.727  -1.081 -34.675  1.00  0.00     0.030 A 
ENDBRANCH   8  11
ENDBRANCH   6   7
ENDBRANCH   1   6
BRANCH   5  19
HETATM   19  N   UNL     1      -4.446   5.359 -33.231  1.00  0.00    -0.382 N 
HETATM   20  H   UNL     1      -4.334   5.341 -34.245  1.00  0.00     0.157 HD
HETATM   21  H   UNL     1      -4.335   6.313 -32.886  1.00  0.00     0.157 HD
ENDBRANCH   5  19
BRANCH   4  22
HETATM   22  C   UNL     1      -1.567   4.773 -31.858  1.00  0.00     0.275 C 
HETATM   23  N   UNL     1      -0.903   4.769 -30.649  1.00  0.00    -0.351 N 
HETATM   24  H   UNL     1      -1.316   4.285 -29.861  1.00  0.00     0.163 HD
HETATM   25  O   UNL     1      -1.163   5.408 -32.829  1.00  0.00    -0.266 OA
BRANCH  23  26
HETATM   26  C   UNL     1       0.318   5.517 -30.462  1.00  0.00     0.161 C 
BRANCH  26  27
HETATM   27  C   UNL     1       0.155   6.580 -29.408  1.00  0.00    -0.038 A 
HETATM   28  C   UNL     1       0.826   6.461 -28.176  1.00  0.00     0.045 A 
HETATM   29  C   UNL     1       0.666   7.427 -27.181  1.00  0.00     0.068 A 
HETATM   30  C   UNL     1      -0.169   8.520 -27.420  1.00  0.00     0.037 A 
HETATM   31  C   UNL     1      -0.838   8.652 -28.637  1.00  0.00     0.003 A 
HETATM   32  C   UNL     1      -0.677   7.686 -29.628  1.00  0.00     0.009 A 
BRANCH  29  33
HETATM   33  O   UNL     1       1.258   7.420 -25.948  1.00  0.00    -0.356 OA
HETATM   34  C   UNL     1       2.092   8.526 -25.628  1.00  0.00     0.210 C 
ENDBRANCH  29  33
ENDBRANCH  26  27
ENDBRANCH  23  26
ENDBRANCH   4  22
TORSDOF 8
ENDMDL
MODEL 3
REMARK VINA RESULT:      -8.7      5.574      9.401
REMARK  8 active torsions:
REMARK  status: ('A' for Active; 'I' for Inactive)
REMARK    1  A    between atoms: C_6  and  N_7 
REMARK       I    between atoms: N_7  and  C_8 
REMARK    2  A    between atoms: C_8  and  C_9 
REMARK    3  A    between atoms: C_9  and  N_10 
REMARK    4  A    between atoms: C_13  and  C_14 
REMARK       I    between atoms: C_14  and  N_15 
REMARK    5  A    between atoms: N_15  and  C_16 
REMARK    6  A    between atoms: C_16  and  C_17 
REMARK    7  A    between atoms: C_19  and  O_20 
REMARK    8  A    between atoms: C_26  and  N_27 
ROOT
HETATM    1  N   UNL     1      -2.821   5.466 -33.308  1.00  0.00    -0.248 N 
HETATM    2  N   UNL     1      -1.933   4.467 -33.121  1.00  0.00     0.007 NA
HETATM    3  N   UNL     1      -2.611   3.390 -32.763  1.00  0.00    -0.150 NA
HETATM    4  C   UNL     1      -3.939   3.728 -32.643  1.00  0.00     0.186 A 
HETATM    5  C   UNL     1      -4.104   5.057 -33.019  1.00  0.00     0.151 A 
ENDROOT
BRANCH   1   6
HETATM    6  C   UNL     1      -2.321   6.779 -33.651  1.00  0.00     0.251 C 
BRANCH   6   7
HETATM    7  C   UNL     1      -1.763   7.545 -32.463  1.00  0.00     0.241 C 
HETATM    8  N   UNL     1      -1.312   6.741 -31.430  1.00  0.00    -0.326 N 
HETATM    9  H   UNL     1      -1.176   5.754 -31.657  1.00  0.00     0.169 HD
HETATM   10  O   UNL     1      -1.819   8.772 -32.447  1.00  0.00    -0.271 OA
BRANCH   8  11
HETATM   11  C   UNL     1      -0.927   7.123 -30.130  1.00  0.00     0.036 A 
HETATM   12  C   UNL     1      -1.795   7.191 -29.041  1.00  0.00     0.053 A 
HETATM   13  C   UNL     1      -1.312   7.534 -27.771  1.00  0.00     0.042 A 
HETATM   14  C   UNL     1       0.047   7.822 -27.567  1.00  0.00    -0.040 A 
HETATM   15 CL   UNL     1      -2.441   7.578 -26.462  1.00  0.00    -0.084 Cl
HETATM   16  C   UNL     1       0.596   8.173 -26.213  1.00  0.00     0.050 C 
HETATM   17  C   UNL     1       0.912   7.757 -28.667  1.00  0.00     0.011 A 
HETATM   18  C   UNL     1       0.428   7.410 -29.932  1.00  0.00     0.030 A 
ENDBRANCH   8  11
ENDBRANCH   6   7
ENDBRANCH   1   6
BRANCH   5  19
HETATM   19  N   UNL     1      -5.197   5.858 -33.123  1.00  0.00    -0.382 N 
HETATM   20  H   UNL     1      -5.917   5.618 -33.806  1.00  0.00     0.157 HD
HETATM   21  H   UNL     1      -5.121   6.872 -33.041  1.00  0.00     0.157 HD
ENDBRANCH   5  19
BRANCH   4  22
HETATM   22  C   UNL     1      -4.930   2.768 -32.177  1.00  0.00     0.275 C 
HETATM   23  N   UNL     1      -4.435   1.509 -31.903  1.00  0.00    -0.351 N 
HETATM   24  H   UNL     1      -3.455   1.316 -32.072  1.00  0.00     0.163 HD
HETATM   25  O   UNL     1      -6.122   3.044 -32.072  1.00  0.00    -0.266 OA
BRANCH  23  26
HETATM   26  C   UNL     1      -5.304   0.441 -31.468  1.00  0.00     0.161 C 
BRANCH  26  27
HETATM   27  C   UNL     1      -5.627  -0.499 -32.599  1.00  0.00    -0.038 A 
HETATM   28  C   UNL     1      -4.661  -1.419 -33.049  1.00  0.00     0.045 A 
HETATM   29  C   UNL     1      -4.938  -2.281 -34.113  1.00  0.00     0.068 A 
HETATM   30  C   UNL     1      -6.190  -2.223 -34.728  1.00  0.00     0.037 A 
HETATM   31  C   UNL     1      -7.157  -1.317 -34.291  1.00  0.00     0.003 A 
HETATM   32  C   UNL     1      -6.877  -0.459 -33.230  1.00  0.00     0.009 A 
BRANCH  29  33
HETATM   33  O   UNL     1      -4.086  -3.210 -34.640  1.00  0.00    -0.356 OA
HETATM   34  C   UNL     1      -3.806  -4.355 -33.843  1.00  0.00     0.210 C 
ENDBRANCH  29  33
ENDBRANCH  26  27
ENDBRANCH  23  26
ENDBRANCH   4  22
TORSDOF 8
ENDMDL
MODEL 4
REMARK VINA RESULT:      -8.4      6.123      9.702
REMARK  8 active torsions:
REMARK  status: ('A' for Active; 'I' for Inactive)
REMARK    1  A    between atoms: C_6  and  N_7 
REMARK       I    between atoms: N_7  and  C_8 
REMARK    2  A    between atoms: C_8  and  C_9 
REMARK    3  A    between atoms: C_9  and  N_10 
REMARK    4  A    between atoms: C_13  and  C_14 
REMARK       I    between atoms: C_14  and  N_15 
REMARK    5  A    between atoms: N_15  and  C_16 
REMARK    6  A    between atoms: C_16  and  C_17 
REMARK    7  A    between atoms: C_19  and  O_20 
REMARK    8  A    between atoms: C_26  and  N_27 
ROOT
HETATM    1  N   UNL     1      -3.144   5.611 -32.318  1.00  0.00    -0.248 N 
HETATM    2  N   UNL     1      -1.961   4.964 -32.395  1.00  0.00     0.007 NA
HETATM    3  N   UNL     1      -2.167   3.708 -32.036  1.00  0.00    -0.150 NA
HETATM    4  C   UNL     1      -3.481   3.573 -31.650  1.00  0.00     0.186 A 
HETATM    5  C   UNL     1      -4.139   4.781 -31.851  1.00  0.00     0.151 A 
ENDROOT
BRANCH   1   6
HETATM    6  C   UNL     1      -3.176   7.028 -32.606  1.00  0.00     0.251 C 
BRANCH   6   7
HETATM    7  C   UNL     1      -2.130   7.825 -31.845  1.00  0.00     0.241 C 
HETATM    8  N   UNL     1      -1.785   7.284 -30.618  1.00  0.00    -0.326 N 
HETATM    9  H   UNL     1      -2.070   6.316 -30.459  1.00  0.00     0.169 HD
HETATM   10  O   UNL     1      -1.733   8.896 -32.296  1.00  0.00    -0.271 OA
BRANCH   8  11
HETATM   11  C   UNL     1      -1.009   7.863 -29.595  1.00  0.00     0.036 A 
HETATM   12  C   UNL     1      -1.448   8.894 -28.765  1.00  0.00     0.053 A 
HETATM   13  C   UNL     1      -0.623   9.376 -27.739  1.00  0.00     0.042 A 
HETATM   14  C   UNL     1       0.657   8.841 -27.528  1.00  0.00    -0.040 A 
HETATM   15 CL   UNL     1      -1.240  10.641 -26.734  1.00  0.00    -0.084 Cl
HETATM   16  C   UNL     1       1.554   9.324 -26.424  1.00  0.00     0.050 C 
HETATM   17  C   UNL     1       1.093   7.810 -28.370  1.00  0.00     0.011 A 
HETATM   18  C   UNL     1       0.267   7.328 -29.389  1.00  0.00     0.030 A 
ENDBRANCH   8  11
ENDBRANCH   6   7
ENDBRANCH   1   6
BRANCH   5  19
HETATM   19  N   UNL     1      -5.430   5.168 -31.678  1.00  0.00    -0.382 N 
HETATM   20  H   UNL     1      -5.755   6.016 -32.145  1.00  0.00     0.157 HD
HETATM   21  H   UNL     1      -5.896   5.069 -30.776  1.00  0.00     0.157 HD
ENDBRANCH   5  19
BRANCH   4  22
HETATM   22  C   UNL     1      -3.992   2.317 -31.119  1.00  0.00     0.275 C 
HETATM   23  N   UNL     1      -3.326   1.188 -31.553  1.00  0.00    -0.351 N 
HETATM   24  H   UNL     1      -2.574   1.286 -32.223  1.00  0.00     0.163 HD
HETATM   25  O   UNL     1      -4.964   2.261 -30.371  1.00  0.00    -0.266 OA
BRANCH  23  26
HETATM   26  C   UNL     1      -3.742  -0.131 -31.141  1.00  0.00     0.161 C 
BRANCH  26  27
HETATM   27  C   UNL     1      -4.471  -0.848 -32.247  1.00  0.00    -0.038 A 
HETATM   28  C   UNL     1      -5.785  -0.472 -32.585  1.00  0.00     0.045 A 
HETATM   29  C   UNL     1      -6.482  -1.143 -33.592  1.00  0.00     0.068 A 
HETATM   30  C   UNL     1      -5.860  -2.195 -34.267  1.00  0.00     0.037 A 
HETATM   31  C   UNL     1      -4.557  -2.576 -33.944  1.00  0.00     0.003 A 
HETATM   32  C   UNL     1      -3.864  -1.905 -32.938  1.00  0.00     0.009 A 
BRANCH  29  33
HETATM   33  O   UNL     1      -7.757  -0.875 -34.006  1.00  0.00    -0.356 OA
HETATM   34  C   UNL     1      -7.910   0.087 -35.042  1.00  0.00     0.210 C 
ENDBRANCH  29  33
ENDBRANCH  26  27
ENDBRANCH  23  26
ENDBRANCH   4  22
TORSDOF 8
ENDMDL
MODEL 5
REMARK VINA RESULT:      -8.3      4.539      8.346
REMARK  8 active torsions:
REMARK  status: ('A' for Active; 'I' for Inactive)
REMARK    1  A    between atoms: C_6  and  N_7 
REMARK       I    between atoms: N_7  and  C_8 
REMARK    2  A    between atoms: C_8  and  C_9 
REMARK    3  A    between atoms: C_9  and  N_10 
REMARK    4  A    between atoms: C_13  and  C_14 
REMARK       I    between atoms: C_14  and  N_15 
REMARK    5  A    between atoms: N_15  and  C_16 
REMARK    6  A    between atoms: C_16  and  C_17 
REMARK    7  A    between atoms: C_19  and  O_20 
REMARK    8  A    between atoms: C_26  and  N_27 
ROOT
HETATM    1  N   UNL     1      -5.965   3.293 -32.989  1.00  0.00    -0.248 N 
HETATM    2  N   UNL     1      -6.240   3.695 -34.249  1.00  0.00     0.007 NA
HETATM    3  N   UNL     1      -5.260   4.492 -34.638  1.00  0.00    -0.150 NA
HETATM    4  C   UNL     1      -4.390   4.664 -33.586  1.00  0.00     0.186 A 
HETATM    5  C   UNL     1      -4.809   3.876 -32.519  1.00  0.00     0.151 A 
ENDROOT
BRANCH   1   6
HETATM    6  C   UNL     1      -6.924   2.453 -32.307  1.00  0.00     0.251 C 
BRANCH   6   7
HETATM    7  C   UNL     1      -6.448   1.024 -32.114  1.00  0.00     0.241 C 
HETATM    8  N   UNL     1      -5.790   0.490 -33.209  1.00  0.00    -0.326 N 
HETATM    9  H   UNL     1      -5.484   1.159 -33.918  1.00  0.00     0.169 HD
HETATM   10  O   UNL     1      -6.733   0.420 -31.083  1.00  0.00    -0.271 OA
BRANCH   8  11
HETATM   11  C   UNL     1      -5.403  -0.847 -33.431  1.00  0.00     0.036 A 
HETATM   12  C   UNL     1      -6.119  -1.752 -34.212  1.00  0.00     0.053 A 
HETATM   13  C   UNL     1      -5.632  -3.050 -34.417  1.00  0.00     0.042 A 
HETATM   14  C   UNL     1      -4.423  -3.468 -33.840  1.00  0.00    -0.040 A 
HETATM   15 CL   UNL     1      -6.561  -4.113 -35.415  1.00  0.00    -0.084 Cl
HETATM   16  C   UNL     1      -3.866  -4.847 -34.060  1.00  0.00     0.050 C 
HETATM   17  C   UNL     1      -3.712  -2.555 -33.052  1.00  0.00     0.011 A 
HETATM   18  C   UNL     1      -4.198  -1.259 -32.852  1.00  0.00     0.030 A 
ENDBRANCH   8  11
ENDBRANCH   6   7
ENDBRANCH   1   6
BRANCH   5  19
HETATM   19  N   UNL     1      -4.293   3.648 -31.282  1.00  0.00    -0.382 N 
HETATM   20  H   UNL     1      -3.895   2.730 -31.079  1.00  0.00     0.157 HD
HETATM   21  H   UNL     1      -4.737   4.027 -30.445  1.00  0.00     0.157 HD
ENDBRANCH   5  19
BRANCH   4  22
HETATM   22  C   UNL     1      -3.249   5.562 -33.682  1.00  0.00     0.275 C 
HETATM   23  N   UNL     1      -3.287   6.646 -32.829  1.00  0.00    -0.351 N 
HETATM   24  H   UNL     1      -4.095   6.776 -32.232  1.00  0.00     0.163 HD
HETATM   25  O   UNL     1      -2.338   5.391 -34.488  1.00  0.00    -0.266 OA
BRANCH  23  26
HETATM   26  C   UNL     1      -2.243   7.643 -32.836  1.00  0.00     0.161 C 
BRANCH  26  27
HETATM   27  C   UNL     1      -1.348   7.510 -31.632  1.00  0.00    -0.038 A 
HETATM   28  C   UNL     1      -1.724   8.090 -30.406  1.00  0.00     0.045 A 
HETATM   29  C   UNL     1      -0.892   7.995 -29.288  1.00  0.00     0.068 A 
HETATM   30  C   UNL     1       0.322   7.314 -29.397  1.00  0.00     0.037 A 
HETATM   31  C   UNL     1       0.706   6.734 -30.606  1.00  0.00     0.003 A 
HETATM   32  C   UNL     1      -0.126   6.830 -31.720  1.00  0.00     0.009 A 
BRANCH  29  33
HETATM   33  O   UNL     1      -1.144   8.517 -28.050  1.00  0.00    -0.356 OA
HETATM   34  C   UNL     1      -1.615   7.617 -27.054  1.00  0.00     0.210 C 
ENDBRANCH  29  33
ENDBRANCH  26  27
ENDBRANCH  23  26
ENDBRANCH   4  22
TORSDOF 8
ENDMDL
MODEL 6
REMARK VINA RESULT:      -8.3      5.765      9.298
REMARK  8 active torsions:
REMARK  status: ('A' for Active; 'I' for Inactive)
REMARK    1  A    between atoms: C_6  and  N_7 
REMARK       I    between atoms: N_7  and  C_8 
REMARK    2  A    between atoms: C_8  and  C_9 
REMARK    3  A    between atoms: C_9  and  N_10 
REMARK    4  A    between atoms: C_13  and  C_14 
REMARK       I    between atoms: C_14  and  N_15 
REMARK    5  A    between atoms: N_15  and  C_16 
REMARK    6  A    between atoms: C_16  and  C_17 
REMARK    7  A    between atoms: C_19  and  O_20 
REMARK    8  A    between atoms: C_26  and  N_27 
ROOT
HETATM    1  N   UNL     1      -2.798   5.432 -33.869  1.00  0.00    -0.248 N 
HETATM    2  N   UNL     1      -3.626   5.942 -34.806  1.00  0.00     0.007 NA
HETATM    3  N   UNL     1      -4.769   5.284 -34.732  1.00  0.00    -0.150 NA
HETATM    4  C   UNL     1      -4.642   4.289 -33.789  1.00  0.00     0.186 A 
HETATM    5  C   UNL     1      -3.387   4.383 -33.198  1.00  0.00     0.151 A 
ENDROOT
BRANCH   1   6
HETATM    6  C   UNL     1      -1.449   5.946 -33.785  1.00  0.00     0.251 C 
BRANCH   6   7
HETATM    7  C   UNL     1      -1.274   7.018 -32.723  1.00  0.00     0.241 C 
HETATM    8  N   UNL     1      -0.898   6.533 -31.482  1.00  0.00    -0.326 N 
HETATM    9  H   UNL     1      -0.550   5.573 -31.462  1.00  0.00     0.169 HD
HETATM   10  O   UNL     1      -1.546   8.187 -32.986  1.00  0.00    -0.271 OA
BRANCH   8  11
HETATM   11  C   UNL     1      -0.844   7.222 -30.254  1.00  0.00     0.036 A 
HETATM   12  C   UNL     1       0.335   7.532 -29.578  1.00  0.00     0.053 A 
HETATM   13  C   UNL     1       0.295   8.264 -28.383  1.00  0.00     0.042 A 
HETATM   14  C   UNL     1      -0.926   8.695 -27.840  1.00  0.00    -0.040 A 
HETATM   15 CL   UNL     1       1.797   8.631 -27.610  1.00  0.00    -0.084 Cl
HETATM   16  C   UNL     1      -0.997   9.499 -26.573  1.00  0.00     0.050 C 
HETATM   17  C   UNL     1      -2.106   8.375 -28.522  1.00  0.00     0.011 A 
HETATM   18  C   UNL     1      -2.063   7.648 -29.715  1.00  0.00     0.030 A 
ENDBRANCH   8  11
ENDBRANCH   6   7
ENDBRANCH   1   6
BRANCH   5  19
HETATM   19  N   UNL     1      -2.783   3.686 -32.200  1.00  0.00    -0.382 N 
HETATM   20  H   UNL     1      -1.765   3.715 -32.129  1.00  0.00     0.157 HD
HETATM   21  H   UNL     1      -3.124   2.768 -31.913  1.00  0.00     0.157 HD
ENDBRANCH   5  19
BRANCH   4  22
HETATM   22  C   UNL     1      -5.715   3.336 -33.541  1.00  0.00     0.275 C 
HETATM   23  N   UNL     1      -5.309   2.129 -33.008  1.00  0.00    -0.351 N 
HETATM   24  H   UNL     1      -4.321   1.962 -32.862  1.00  0.00     0.163 HD
HETATM   25  O   UNL     1      -6.887   3.572 -33.818  1.00  0.00    -0.266 OA
BRANCH  23  26
HETATM   26  C   UNL     1      -6.255   1.072 -32.743  1.00  0.00     0.161 C 
BRANCH  26  27
HETATM   27  C   UNL     1      -5.773  -0.246 -33.291  1.00  0.00    -0.038 A 
HETATM   28  C   UNL     1      -6.692  -1.158 -33.844  1.00  0.00     0.045 A 
HETATM   29  C   UNL     1      -6.264  -2.393 -34.334  1.00  0.00     0.068 A 
HETATM   30  C   UNL     1      -4.907  -2.718 -34.273  1.00  0.00     0.037 A 
HETATM   31  C   UNL     1      -3.985  -1.823 -33.729  1.00  0.00     0.003 A 
HETATM   32  C   UNL     1      -4.416  -0.591 -33.240  1.00  0.00     0.009 A 
BRANCH  29  33
HETATM   33  O   UNL     1      -7.057  -3.360 -34.888  1.00  0.00    -0.356 OA
HETATM   34  C   UNL     1      -6.424  -4.577 -35.263  1.00  0.00     0.210 C 
ENDBRANCH  29  33
ENDBRANCH  26  27
ENDBRANCH  23  26
ENDBRANCH   4  22
TORSDOF 8
ENDMDL
MODEL 7
REMARK VINA RESULT:      -7.8      5.179      8.944
REMARK  8 active torsions:
REMARK  status: ('A' for Active; 'I' for Inactive)
REMARK    1  A    between atoms: C_6  and  N_7 
REMARK       I    between atoms: N_7  and  C_8 
REMARK    2  A    between atoms: C_8  and  C_9 
REMARK    3  A    between atoms: C_9  and  N_10 
REMARK    4  A    between atoms: C_13  and  C_14 
REMARK       I    between atoms: C_14  and  N_15 
REMARK    5  A    between atoms: N_15  and  C_16 
REMARK    6  A    between atoms: C_16  and  C_17 
REMARK    7  A    between atoms: C_19  and  O_20 
REMARK    8  A    between atoms: C_26  and  N_27 
ROOT
HETATM    1  N   UNL     1      -5.199   5.144 -32.629  1.00  0.00    -0.248 N 
HETATM    2  N   UNL     1      -4.923   5.463 -33.912  1.00  0.00     0.007 NA
HETATM    3  N   UNL     1      -3.782   6.131 -33.923  1.00  0.00    -0.150 NA
HETATM    4  C   UNL     1      -3.366   6.309 -32.623  1.00  0.00     0.186 A 
HETATM    5  C   UNL     1      -4.250   5.655 -31.771  1.00  0.00     0.151 A 
ENDROOT
BRANCH   1   6
HETATM    6  C   UNL     1      -6.437   4.455 -32.339  1.00  0.00     0.251 C 
BRANCH   6   7
HETATM    7  C   UNL     1      -6.258   2.969 -32.082  1.00  0.00     0.241 C 
HETATM    8  N   UNL     1      -5.368   2.347 -32.941  1.00  0.00    -0.326 N 
HETATM    9  H   UNL     1      -4.760   2.964 -33.480  1.00  0.00     0.169 HD
HETATM   10  O   UNL     1      -6.942   2.411 -31.227  1.00  0.00    -0.271 OA
BRANCH   8  11
HETATM   11  C   UNL     1      -5.127   0.967 -33.101  1.00  0.00     0.036 A 
HETATM   12  C   UNL     1      -5.996   0.088 -33.745  1.00  0.00     0.053 A 
HETATM   13  C   UNL     1      -5.650  -1.262 -33.900  1.00  0.00     0.042 A 
HETATM   14  C   UNL     1      -4.432  -1.758 -33.409  1.00  0.00    -0.040 A 
HETATM   15 CL   UNL     1      -6.766  -2.291 -34.728  1.00  0.00    -0.084 Cl
HETATM   16  C   UNL     1      -4.027  -3.194 -33.579  1.00  0.00     0.050 C 
HETATM   17  C   UNL     1      -3.568  -0.869 -32.757  1.00  0.00     0.011 A 
HETATM   18  C   UNL     1      -3.913   0.477 -32.608  1.00  0.00     0.030 A 
ENDBRANCH   8  11
ENDBRANCH   6   7
ENDBRANCH   1   6
BRANCH   5  19
HETATM   19  N   UNL     1      -4.276   5.484 -30.423  1.00  0.00    -0.382 N 
HETATM   20  H   UNL     1      -5.171   5.294 -29.970  1.00  0.00     0.157 HD
HETATM   21  H   UNL     1      -3.688   6.045 -29.806  1.00  0.00     0.157 HD
ENDBRANCH   5  19
BRANCH   4  22
HETATM   22  C   UNL     1      -2.177   7.087 -32.305  1.00  0.00     0.275 C 
HETATM   23  N   UNL     1      -1.344   6.518 -31.364  1.00  0.00    -0.351 N 
HETATM   24  H   UNL     1      -1.613   5.643 -30.931  1.00  0.00     0.163 HD
HETATM   25  O   UNL     1      -1.951   8.184 -32.807  1.00  0.00    -0.266 OA
BRANCH  23  26
HETATM   26  C   UNL     1      -0.146   7.190 -30.920  1.00  0.00     0.161 C 
BRANCH  26  27
HETATM   27  C   UNL     1      -0.167   7.424 -29.432  1.00  0.00    -0.038 A 
HETATM   28  C   UNL     1      -1.371   7.298 -28.715  1.00  0.00     0.045 A 
HETATM   29  C   UNL     1      -1.411   7.535 -27.339  1.00  0.00     0.068 A 
HETATM   30  C   UNL     1      -0.237   7.899 -26.677  1.00  0.00     0.037 A 
HETATM   31  C   UNL     1       0.964   8.027 -27.375  1.00  0.00     0.003 A 
HETATM   32  C   UNL     1       1.000   7.789 -28.748  1.00  0.00     0.009 A 
BRANCH  29  33
HETATM   33  O   UNL     1      -2.515   7.449 -26.538  1.00  0.00    -0.356 OA
HETATM   34  C   UNL     1      -3.707   6.954 -27.134  1.00  0.00     0.210 C 
ENDBRANCH  29  33
ENDBRANCH  26  27
ENDBRANCH  23  26
ENDBRANCH   4  22
TORSDOF 8
ENDMDL
MODEL 8
REMARK VINA RESULT:      -7.5      5.585      8.011
REMARK  8 active torsions:
REMARK  status: ('A' for Active; 'I' for Inactive)
REMARK    1  A    between atoms: C_6  and  N_7 
REMARK       I    between atoms: N_7  and  C_8 
REMARK    2  A    between atoms: C_8  and  C_9 
REMARK    3  A    between atoms: C_9  and  N_10 
REMARK    4  A    between atoms: C_13  and  C_14 
REMARK       I    between atoms: C_14  and  N_15 
REMARK    5  A    between atoms: N_15  and  C_16 
REMARK    6  A    between atoms: C_16  and  C_17 
REMARK    7  A    between atoms: C_19  and  O_20 
REMARK    8  A    between atoms: C_26  and  N_27 
ROOT
HETATM    1  N   UNL     1      -3.265   5.135 -34.071  1.00  0.00    -0.248 N 
HETATM    2  N   UNL     1      -4.332   5.522 -34.802  1.00  0.00     0.007 NA
HETATM    3  N   UNL     1      -5.375   4.822 -34.391  1.00  0.00    -0.150 NA
HETATM    4  C   UNL     1      -4.951   3.921 -33.441  1.00  0.00     0.186 A 
HETATM    5  C   UNL     1      -3.598   4.125 -33.196  1.00  0.00     0.151 A 
ENDROOT
BRANCH   1   6
HETATM    6  C   UNL     1      -1.975   5.716 -34.370  1.00  0.00     0.251 C 
BRANCH   6   7
HETATM    7  C   UNL     1      -1.565   6.814 -33.403  1.00  0.00     0.241 C 
HETATM    8  N   UNL     1      -1.133   6.353 -32.171  1.00  0.00    -0.326 N 
HETATM    9  H   UNL     1      -0.907   5.358 -32.119  1.00  0.00     0.169 HD
HETATM   10  O   UNL     1      -1.713   7.991 -33.719  1.00  0.00    -0.271 OA
BRANCH   8  11
HETATM   11  C   UNL     1      -0.873   7.096 -31.002  1.00  0.00     0.036 A 
HETATM   12  C   UNL     1      -1.773   7.992 -30.426  1.00  0.00     0.053 A 
HETATM   13  C   UNL     1      -1.447   8.652 -29.232  1.00  0.00     0.042 A 
HETATM   14  C   UNL     1      -0.215   8.433 -28.598  1.00  0.00    -0.040 A 
HETATM   15 CL   UNL     1      -2.619   9.732 -28.562  1.00  0.00    -0.084 Cl
HETATM   16  C   UNL     1       0.152   9.110 -27.308  1.00  0.00     0.050 C 
HETATM   17  C   UNL     1       0.685   7.536 -29.186  1.00  0.00     0.011 A 
HETATM   18  C   UNL     1       0.357   6.876 -30.374  1.00  0.00     0.030 A 
ENDBRANCH   8  11
ENDBRANCH   6   7
ENDBRANCH   1   6
BRANCH   5  19
HETATM   19  N   UNL     1      -2.719   3.547 -32.335  1.00  0.00    -0.382 N 
HETATM   20  H   UNL     1      -1.883   3.100 -32.715  1.00  0.00     0.157 HD
HETATM   21  H   UNL     1      -3.041   3.037 -31.512  1.00  0.00     0.157 HD
ENDBRANCH   5  19
BRANCH   4  22
HETATM   22  C   UNL     1      -5.862   2.946 -32.858  1.00  0.00     0.275 C 
HETATM   23  N   UNL     1      -6.909   3.485 -32.138  1.00  0.00    -0.351 N 
HETATM   24  H   UNL     1      -6.963   4.490 -32.024  1.00  0.00     0.163 HD
HETATM   25  O   UNL     1      -5.692   1.735 -32.965  1.00  0.00    -0.266 OA
BRANCH  23  26
HETATM   26  C   UNL     1      -7.872   2.642 -31.471  1.00  0.00     0.161 C 
BRANCH  26  27
HETATM   27  C   UNL     1      -8.999   2.259 -32.393  1.00  0.00    -0.038 A 
HETATM   28  C   UNL     1      -9.696   3.253 -33.106  1.00  0.00     0.045 A 
HETATM   29  C   UNL     1     -10.759   2.916 -33.946  1.00  0.00     0.068 A 
HETATM   30  C   UNL     1     -11.126   1.575 -34.077  1.00  0.00     0.037 A 
HETATM   31  C   UNL     1     -10.442   0.579 -33.378  1.00  0.00     0.003 A 
HETATM   32  C   UNL     1      -9.382   0.919 -32.540  1.00  0.00     0.009 A 
BRANCH  29  33
HETATM   33  O   UNL     1     -11.512   3.787 -34.683  1.00  0.00    -0.356 OA
HETATM   34  C   UNL     1     -12.197   3.254 -35.810  1.00  0.00     0.210 C 
ENDBRANCH  29  33
ENDBRANCH  26  27
ENDBRANCH  23  26
ENDBRANCH   4  22
TORSDOF 8
ENDMDL
MODEL 9
REMARK VINA RESULT:      -7.5      3.601      7.476
REMARK  8 active torsions:
REMARK  status: ('A' for Active; 'I' for Inactive)
REMARK    1  A    between atoms: C_6  and  N_7 
REMARK       I    between atoms: N_7  and  C_8 
REMARK    2  A    between atoms: C_8  and  C_9 
REMARK    3  A    between atoms: C_9  and  N_10 
REMARK    4  A    between atoms: C_13  and  C_14 
REMARK       I    between atoms: C_14  and  N_15 
REMARK    5  A    between atoms: N_15  and  C_16 
REMARK    6  A    between atoms: C_16  and  C_17 
REMARK    7  A    between atoms: C_19  and  O_20 
REMARK    8  A    between atoms: C_26  and  N_27 
ROOT
HETATM    1  N   UNL     1      -8.268   3.032 -33.477  1.00  0.00    -0.248 N 
HETATM    2  N   UNL     1      -9.215   3.339 -32.565  1.00  0.00     0.007 NA
HETATM    3  N   UNL     1      -8.852   4.462 -31.971  1.00  0.00    -0.150 NA
HETATM    4  C   UNL     1      -7.618   4.834 -32.456  1.00  0.00     0.186 A 
HETATM    5  C   UNL     1      -7.234   3.941 -33.450  1.00  0.00     0.151 A 
ENDROOT
BRANCH   1   6
HETATM    6  C   UNL     1      -8.403   1.803 -34.227  1.00  0.00     0.251 C 
BRANCH   6   7
HETATM    7  C   UNL     1      -7.667   0.629 -33.604  1.00  0.00     0.241 C 
HETATM    8  N   UNL     1      -6.536   0.234 -34.298  1.00  0.00    -0.326 N 
HETATM    9  H   UNL     1      -6.182   0.896 -34.992  1.00  0.00     0.169 HD
HETATM   10  O   UNL     1      -8.139   0.066 -32.620  1.00  0.00    -0.271 OA
BRANCH   8  11
HETATM   11  C   UNL     1      -5.752  -0.921 -34.108  1.00  0.00     0.036 A 
HETATM   12  C   UNL     1      -4.722  -1.026 -33.174  1.00  0.00     0.053 A 
HETATM   13  C   UNL     1      -4.026  -2.233 -33.021  1.00  0.00     0.042 A 
HETATM   14  C   UNL     1      -4.344  -3.356 -33.802  1.00  0.00    -0.040 A 
HETATM   15 CL   UNL     1      -2.775  -2.299 -31.828  1.00  0.00    -0.084 Cl
HETATM   16  C   UNL     1      -3.629  -4.668 -33.644  1.00  0.00     0.050 C 
HETATM   17  C   UNL     1      -5.376  -3.240 -34.742  1.00  0.00     0.011 A 
HETATM   18  C   UNL     1      -6.071  -2.036 -34.890  1.00  0.00     0.030 A 
ENDBRANCH   8  11
ENDBRANCH   6   7
ENDBRANCH   1   6
BRANCH   5  19
HETATM   19  N   UNL     1      -6.147   3.878 -34.264  1.00  0.00    -0.382 N 
HETATM   20  H   UNL     1      -5.471   3.126 -34.122  1.00  0.00     0.157 HD
HETATM   21  H   UNL     1      -5.665   4.724 -34.570  1.00  0.00     0.157 HD
ENDBRANCH   5  19
BRANCH   4  22
HETATM   22  C   UNL     1      -6.912   5.993 -31.928  1.00  0.00     0.275 C 
HETATM   23  N   UNL     1      -5.554   5.820 -31.758  1.00  0.00    -0.351 N 
HETATM   24  H   UNL     1      -5.142   4.918 -31.963  1.00  0.00     0.163 HD
HETATM   25  O   UNL     1      -7.487   7.035 -31.621  1.00  0.00    -0.266 OA
BRANCH  23  26
HETATM   26  C   UNL     1      -4.728   6.869 -31.208  1.00  0.00     0.161 C 
BRANCH  26  27
HETATM   27  C   UNL     1      -3.280   6.679 -31.580  1.00  0.00    -0.038 A 
HETATM   28  C   UNL     1      -2.531   5.642 -30.993  1.00  0.00     0.045 A 
HETATM   29  C   UNL     1      -1.182   5.469 -31.309  1.00  0.00     0.068 A 
HETATM   30  C   UNL     1      -0.580   6.338 -32.221  1.00  0.00     0.037 A 
HETATM   31  C   UNL     1      -1.311   7.370 -32.812  1.00  0.00     0.003 A 
HETATM   32  C   UNL     1      -2.657   7.540 -32.493  1.00  0.00     0.009 A 
BRANCH  29  33
HETATM   33  O   UNL     1      -0.353   4.507 -30.805  1.00  0.00    -0.356 OA
HETATM   34  C   UNL     1       0.563   4.910 -29.794  1.00  0.00     0.210 C 
ENDBRANCH  29  33
ENDBRANCH  26  27
ENDBRANCH  23  26
ENDBRANCH   4  22
TORSDOF 8
ENDMDL
MODEL 10
REMARK VINA RESULT:      -7.4      6.418      9.783
REMARK  8 active torsions:
REMARK  status: ('A' for Active; 'I' for Inactive)
REMARK    1  A    between atoms: C_6  and  N_7 
REMARK       I    between atoms: N_7  and  C_8 
REMARK    2  A    between atoms: C_8  and  C_9 
REMARK    3  A    between atoms: C_9  and  N_10 
REMARK    4  A    between atoms: C_13  and  C_14 
REMARK       I    between atoms: C_14  and  N_15 
REMARK    5  A    between atoms: N_15  and  C_16 
REMARK    6  A    between atoms: C_16  and  C_17 
REMARK    7  A    between atoms: C_19  and  O_20 
REMARK    8  A    between atoms: C_26  and  N_27 
ROOT
HETATM    1  N   UNL     1      -0.588   5.566 -31.697  1.00  0.00    -0.248 N 
HETATM    2  N   UNL     1       0.355   4.726 -31.218  1.00  0.00     0.007 NA
HETATM    3  N   UNL     1       0.751   5.191 -30.046  1.00  0.00    -0.150 NA
HETATM    4  C   UNL     1       0.108   6.386 -29.811  1.00  0.00     0.186 A 
HETATM    5  C   UNL     1      -0.783   6.633 -30.849  1.00  0.00     0.151 A 
ENDROOT
BRANCH   1   6
HETATM    6  C   UNL     1      -1.143   5.307 -33.007  1.00  0.00     0.251 C 
BRANCH   6   7
HETATM    7  C   UNL     1      -2.454   4.542 -32.969  1.00  0.00     0.241 C 
HETATM    8  N   UNL     1      -2.579   3.680 -31.893  1.00  0.00    -0.326 N 
HETATM    9  H   UNL     1      -1.915   3.818 -31.129  1.00  0.00     0.169 HD
HETATM   10  O   UNL     1      -3.255   4.657 -33.894  1.00  0.00    -0.271 OA
BRANCH   8  11
HETATM   11  C   UNL     1      -3.563   2.696 -31.670  1.00  0.00     0.036 A 
HETATM   12  C   UNL     1      -3.528   1.413 -32.213  1.00  0.00     0.053 A 
HETATM   13  C   UNL     1      -4.528   0.483 -31.896  1.00  0.00     0.042 A 
HETATM   14  C   UNL     1      -5.584   0.821 -31.036  1.00  0.00    -0.040 A 
HETATM   15 CL   UNL     1      -4.409  -1.097 -32.589  1.00  0.00    -0.084 Cl
HETATM   16  C   UNL     1      -6.657  -0.162 -30.663  1.00  0.00     0.050 C 
HETATM   17  C   UNL     1      -5.615   2.114 -30.498  1.00  0.00     0.011 A 
HETATM   18  C   UNL     1      -4.615   3.038 -30.812  1.00  0.00     0.030 A 
ENDBRANCH   8  11
ENDBRANCH   6   7
ENDBRANCH   1   6
BRANCH   5  19
HETATM   19  N   UNL     1      -1.676   7.631 -31.079  1.00  0.00    -0.382 N 
HETATM   20  H   UNL     1      -1.411   8.590 -30.848  1.00  0.00     0.157 HD
HETATM   21  H   UNL     1      -2.674   7.498 -30.913  1.00  0.00     0.157 HD
ENDBRANCH   5  19
BRANCH   4  22
HETATM   22  C   UNL     1       0.402   7.186 -28.630  1.00  0.00     0.275 C 
HETATM   23  N   UNL     1      -0.329   6.857 -27.507  1.00  0.00    -0.351 N 
HETATM   24  H   UNL     1      -1.033   6.132 -27.572  1.00  0.00     0.163 HD
HETATM   25  O   UNL     1       1.211   8.110 -28.642  1.00  0.00    -0.266 OA
BRANCH  23  26
HETATM   26  C   UNL     1      -0.175   7.588 -26.272  1.00  0.00     0.161 C 
BRANCH  26  27
HETATM   27  C   UNL     1      -1.506   8.036 -25.728  1.00  0.00    -0.038 A 
HETATM   28  C   UNL     1      -2.694   7.439 -26.191  1.00  0.00     0.045 A 
HETATM   29  C   UNL     1      -3.937   7.860 -25.713  1.00  0.00     0.068 A 
HETATM   30  C   UNL     1      -3.992   8.884 -24.766  1.00  0.00     0.037 A 
HETATM   31  C   UNL     1      -2.822   9.484 -24.298  1.00  0.00     0.003 A 
HETATM   32  C   UNL     1      -1.583   9.062 -24.776  1.00  0.00     0.009 A 
BRANCH  29  33
HETATM   33  O   UNL     1      -5.154   7.363 -26.087  1.00  0.00    -0.356 OA
HETATM   34  C   UNL     1      -5.168   6.429 -27.159  1.00  0.00     0.210 C 
ENDBRANCH  29  33
ENDBRANCH  26  27
ENDBRANCH  23  26
ENDBRANCH   4  22
TORSDOF 8
ENDMDL
