MODEL 1
REMARK VINA RESULT:      -9.7      0.000      0.000
REMARK  4 active torsions:
REMARK  status: ('A' for Active; 'I' for Inactive)
REMARK    1  A    between atoms: C_2  and  C_3 
REMARK    2  A    between atoms: C_3  and  N_4 
REMARK    3  A    between atoms: C_3  and  C_18 
REMARK       I    between atoms: N_4  and  C_5 
REMARK    4  A    between atoms: C_5  and  C_6 
ROOT
HETATM    1  N   UNL     1      -3.276   3.354 -32.754  1.00  0.00    -0.344 N 
HETATM    2  C   UNL     1      -4.128   2.604 -31.979  1.00  0.00     0.273 C 
HETATM    3  O   UNL     1      -4.983   3.061 -31.235  1.00  0.00    -0.266 OA
HETATM    4  H   UNL     1      -2.424   2.880 -33.042  1.00  0.00     0.163 HD
ENDROOT
BRANCH   1   5
HETATM    5  C   UNL     1      -3.283   4.810 -32.724  1.00  0.00     0.158 C 
BRANCH   5   6
HETATM    6  C   UNL     1      -3.045   5.431 -34.125  1.00  0.00     0.008 C 
HETATM    7  C   UNL     1      -4.165   5.023 -35.090  1.00  0.00     0.012 C 
HETATM    8  C   UNL     1      -1.690   5.082 -34.754  1.00  0.00     0.012 C 
ENDBRANCH   5   6
BRANCH   5   9
HETATM    9  C   UNL     1      -2.302   5.293 -31.685  1.00  0.00     0.128 A 
HETATM   10  N   UNL     1      -1.296   4.635 -31.141  1.00  0.00    -0.231 NA
HETATM   11  C   UNL     1      -0.690   5.519 -30.282  1.00  0.00     0.085 A 
HETATM   12  C   UNL     1      -1.336   6.749 -30.297  1.00  0.00     0.062 A 
HETATM   13  C   UNL     1       0.425   5.340 -29.450  1.00  0.00     0.034 A 
HETATM   14  N   UNL     1      -2.343   6.587 -31.211  1.00  0.00    -0.341 N 
HETATM   15  C   UNL     1      -0.943   7.833 -29.510  1.00  0.00     0.032 A 
HETATM   16  H   UNL     1      -3.024   7.283 -31.489  1.00  0.00     0.167 HD
HETATM   17  C   UNL     1       0.169   7.635 -28.682  1.00  0.00     0.002 A 
HETATM   18  C   UNL     1       0.845   6.413 -28.653  1.00  0.00     0.002 A 
ENDBRANCH   5   9
ENDBRANCH   1   5
BRANCH   2  19
HETATM   19  C   UNL     1      -3.857   1.102 -32.044  1.00  0.00     0.155 A 
HETATM   20  N   UNL     1      -2.874   0.676 -31.300  1.00  0.00    -0.166 NA
HETATM   21  N   UNL     1      -2.613  -0.660 -31.294  1.00  0.00    -0.242 N 
HETATM   22  C   UNL     1      -3.314  -1.626 -31.976  1.00  0.00     0.272 A 
HETATM   23  H   UNL     1      -1.860  -0.978 -30.688  1.00  0.00     0.192 HD
HETATM   24  O   UNL     1      -3.047  -2.818 -31.888  1.00  0.00    -0.266 OA
HETATM   25  C   UNL     1      -4.407  -1.145 -32.840  1.00  0.00     0.046 A 
HETATM   26  C   UNL     1      -4.677   0.222 -32.901  1.00  0.00     0.016 A 
HETATM   27  C   UNL     1      -5.151  -2.054 -33.602  1.00  0.00     0.018 A 
HETATM   28  C   UNL     1      -5.682   0.685 -33.757  1.00  0.00     0.015 A 
HETATM   29  C   UNL     1      -6.425  -0.222 -34.521  1.00  0.00     0.001 A 
HETATM   30  C   UNL     1      -6.163  -1.589 -34.440  1.00  0.00     0.001 A 
ENDBRANCH   2  19
TORSDOF 4
ENDMDL
MODEL 2
REMARK VINA RESULT:      -9.4      1.254      1.469
REMARK  4 active torsions:
REMARK  status: ('A' for Active; 'I' for Inactive)
REMARK    1  A    between atoms: C_2  and  C_3 
REMARK    2  A    between atoms: C_3  and  N_4 
REMARK    3  A    between atoms: C_3  and  C_18 
REMARK       I    between atoms: N_4  and  C_5 
REMARK    4  A    between atoms: C_5  and  C_6 
ROOT
HETATM    1  N   UNL     1      -4.322   2.503 -32.312  1.00  0.00    -0.344 N 
HETATM    2  C   UNL     1      -4.836   1.510 -31.512  1.00  0.00     0.273 C 
HETATM    3  O   UNL     1      -5.550   1.697 -30.538  1.00  0.00    -0.266 OA
HETATM    4  H   UNL     1      -3.500   2.240 -32.849  1.00  0.00     0.163 HD
ENDROOT
BRANCH   1   5
HETATM    5  C   UNL     1      -4.548   3.914 -32.037  1.00  0.00     0.158 C 
BRANCH   5   6
HETATM    6  C   UNL     1      -5.245   4.642 -33.216  1.00  0.00     0.008 C 
HETATM    7  C   UNL     1      -6.316   3.741 -33.845  1.00  0.00     0.012 C 
HETATM    8  C   UNL     1      -4.292   5.130 -34.314  1.00  0.00     0.012 C 
ENDBRANCH   5   6
BRANCH   5   9
HETATM    9  C   UNL     1      -3.248   4.559 -31.625  1.00  0.00     0.128 A 
HETATM   10  N   UNL     1      -2.020   4.212 -31.962  1.00  0.00    -0.231 NA
HETATM   11  C   UNL     1      -1.193   5.127 -31.359  1.00  0.00     0.085 A 
HETATM   12  C   UNL     1      -1.926   6.059 -30.635  1.00  0.00     0.062 A 
HETATM   13  C   UNL     1       0.206   5.226 -31.385  1.00  0.00     0.034 A 
HETATM   14  N   UNL     1      -3.229   5.689 -30.837  1.00  0.00    -0.341 N 
HETATM   15  C   UNL     1      -1.344   7.098 -29.909  1.00  0.00     0.032 A 
HETATM   16  H   UNL     1      -4.052   6.145 -30.461  1.00  0.00     0.167 HD
HETATM   17  C   UNL     1       0.054   7.180 -29.943  1.00  0.00     0.002 A 
HETATM   18  C   UNL     1       0.818   6.263 -30.670  1.00  0.00     0.002 A 
ENDBRANCH   5   9
ENDBRANCH   1   5
BRANCH   2  19
HETATM   19  C   UNL     1      -4.358   0.109 -31.884  1.00  0.00     0.155 A 
HETATM   20  N   UNL     1      -3.358  -0.349 -31.182  1.00  0.00    -0.166 NA
HETATM   21  N   UNL     1      -2.915  -1.608 -31.450  1.00  0.00    -0.242 N 
HETATM   22  C   UNL     1      -3.445  -2.473 -32.377  1.00  0.00     0.272 A 
HETATM   23  H   UNL     1      -2.152  -1.958 -30.875  1.00  0.00     0.192 HD
HETATM   24  O   UNL     1      -3.019  -3.611 -32.533  1.00  0.00    -0.266 OA
HETATM   25  C   UNL     1      -4.555  -1.949 -33.193  1.00  0.00     0.046 A 
HETATM   26  C   UNL     1      -5.009  -0.649 -32.972  1.00  0.00     0.016 A 
HETATM   27  C   UNL     1      -5.132  -2.747 -34.189  1.00  0.00     0.018 A 
HETATM   28  C   UNL     1      -6.030  -0.133 -33.778  1.00  0.00     0.015 A 
HETATM   29  C   UNL     1      -6.606  -0.929 -34.774  1.00  0.00     0.001 A 
HETATM   30  C   UNL     1      -6.161  -2.234 -34.976  1.00  0.00     0.001 A 
ENDBRANCH   2  19
TORSDOF 4
ENDMDL
MODEL 3
REMARK VINA RESULT:      -8.9      5.173      9.000
REMARK  4 active torsions:
REMARK  status: ('A' for Active; 'I' for Inactive)
REMARK    1  A    between atoms: C_2  and  C_3 
REMARK    2  A    between atoms: C_3  and  N_4 
REMARK    3  A    between atoms: C_3  and  C_18 
REMARK       I    between atoms: N_4  and  C_5 
REMARK    4  A    between atoms: C_5  and  C_6 
ROOT
HETATM    1  N   UNL     1      -8.100   0.878 -33.493  1.00  0.00    -0.344 N 
HETATM    2  C   UNL     1      -9.148   1.112 -32.634  1.00  0.00     0.273 C 
HETATM    3  O   UNL     1      -9.053   1.193 -31.419  1.00  0.00    -0.266 OA
HETATM    4  H   UNL     1      -8.362   0.503 -34.400  1.00  0.00     0.163 HD
ENDROOT
BRANCH   1   5
HETATM    5  C   UNL     1      -6.744   0.653 -33.014  1.00  0.00     0.158 C 
BRANCH   5   6
HETATM    6  C   UNL     1      -5.776   1.795 -33.420  1.00  0.00     0.008 C 
HETATM    7  C   UNL     1      -4.957   2.260 -32.209  1.00  0.00     0.012 C 
HETATM    8  C   UNL     1      -6.460   3.010 -34.059  1.00  0.00     0.012 C 
ENDBRANCH   5   6
BRANCH   5   9
HETATM    9  C   UNL     1      -6.275  -0.710 -33.460  1.00  0.00     0.128 A 
HETATM   10  N   UNL     1      -5.085  -1.257 -33.304  1.00  0.00    -0.231 NA
HETATM   11  C   UNL     1      -5.175  -2.513 -33.853  1.00  0.00     0.085 A 
HETATM   12  C   UNL     1      -6.448  -2.745 -34.357  1.00  0.00     0.062 A 
HETATM   13  C   UNL     1      -4.202  -3.519 -33.956  1.00  0.00     0.034 A 
HETATM   14  N   UNL     1      -7.134  -1.594 -34.078  1.00  0.00    -0.341 N 
HETATM   15  C   UNL     1      -6.820  -3.936 -34.984  1.00  0.00     0.032 A 
HETATM   16  H   UNL     1      -8.103  -1.399 -34.298  1.00  0.00     0.167 HD
HETATM   17  C   UNL     1      -5.836  -4.927 -35.083  1.00  0.00     0.002 A 
HETATM   18  C   UNL     1      -4.550  -4.726 -34.576  1.00  0.00     0.002 A 
ENDBRANCH   5   9
ENDBRANCH   1   5
BRANCH   2  19
HETATM   19  C   UNL     1     -10.509   1.171 -33.326  1.00  0.00     0.155 A 
HETATM   20  N   UNL     1     -11.266   0.121 -33.166  1.00  0.00    -0.166 NA
HETATM   21  N   UNL     1     -12.504   0.137 -33.733  1.00  0.00    -0.242 N 
HETATM   22  C   UNL     1     -13.058   1.178 -34.439  1.00  0.00     0.272 A 
HETATM   23  H   UNL     1     -13.091  -0.679 -33.575  1.00  0.00     0.192 HD
HETATM   24  O   UNL     1     -14.198   1.136 -34.885  1.00  0.00    -0.266 OA
HETATM   25  C   UNL     1     -12.194   2.353 -34.647  1.00  0.00     0.046 A 
HETATM   26  C   UNL     1     -10.906   2.356 -34.113  1.00  0.00     0.016 A 
HETATM   27  C   UNL     1     -12.662   3.446 -35.388  1.00  0.00     0.018 A 
HETATM   28  C   UNL     1     -10.067   3.450 -34.351  1.00  0.00     0.015 A 
HETATM   29  C   UNL     1     -10.533   4.541 -35.093  1.00  0.00     0.001 A 
HETATM   30  C   UNL     1     -11.828   4.541 -35.606  1.00  0.00     0.001 A 
ENDBRANCH   2  19
TORSDOF 4
ENDMDL
MODEL 4
REMARK VINA RESULT:      -8.8      3.211      8.193
REMARK  4 active torsions:
REMARK  status: ('A' for Active; 'I' for Inactive)
REMARK    1  A    between atoms: C_2  and  C_3 
REMARK    2  A    between atoms: C_3  and  N_4 
REMARK    3  A    between atoms: C_3  and  C_18 
REMARK       I    between atoms: N_4  and  C_5 
REMARK    4  A    between atoms: C_5  and  C_6 
ROOT
HETATM    1  N   UNL     1      -6.100   3.230 -33.152  1.00  0.00    -0.344 N 
HETATM    2  C   UNL     1      -6.167   4.473 -33.737  1.00  0.00     0.273 C 
HETATM    3  O   UNL     1      -7.169   4.954 -34.243  1.00  0.00    -0.266 OA
HETATM    4  H   UNL     1      -5.167   2.834 -33.089  1.00  0.00     0.163 HD
ENDROOT
BRANCH   1   5
HETATM    5  C   UNL     1      -7.242   2.327 -33.122  1.00  0.00     0.158 C 
BRANCH   5   6
HETATM    6  C   UNL     1      -8.015   2.396 -31.779  1.00  0.00     0.008 C 
HETATM    7  C   UNL     1      -9.204   3.358 -31.893  1.00  0.00     0.012 C 
HETATM    8  C   UNL     1      -7.158   2.800 -30.572  1.00  0.00     0.012 C 
ENDBRANCH   5   6
BRANCH   5   9
HETATM    9  C   UNL     1      -6.786   0.933 -33.474  1.00  0.00     0.128 A 
HETATM   10  N   UNL     1      -7.484  -0.040 -34.029  1.00  0.00    -0.231 NA
HETATM   11  C   UNL     1      -6.613  -1.092 -34.171  1.00  0.00     0.085 A 
HETATM   12  C   UNL     1      -5.351  -0.761 -33.694  1.00  0.00     0.062 A 
HETATM   13  C   UNL     1      -6.831  -2.371 -34.703  1.00  0.00     0.034 A 
HETATM   14  N   UNL     1      -5.481   0.536 -33.276  1.00  0.00    -0.341 N 
HETATM   15  C   UNL     1      -4.271  -1.645 -33.701  1.00  0.00     0.032 A 
HETATM   16  H   UNL     1      -4.757   1.116 -32.869  1.00  0.00     0.167 HD
HETATM   17  C   UNL     1      -4.508  -2.920 -34.232  1.00  0.00     0.002 A 
HETATM   18  C   UNL     1      -5.763  -3.278 -34.728  1.00  0.00     0.002 A 
ENDBRANCH   5   9
ENDBRANCH   1   5
BRANCH   2  19
HETATM   19  C   UNL     1      -4.824   5.198 -33.796  1.00  0.00     0.155 A 
HETATM   20  N   UNL     1      -4.230   5.186 -34.958  1.00  0.00    -0.166 NA
HETATM   21  N   UNL     1      -3.046   5.848 -35.074  1.00  0.00    -0.242 N 
HETATM   22  C   UNL     1      -2.421   6.570 -34.085  1.00  0.00     0.272 A 
HETATM   23  H   UNL     1      -2.611   5.851 -35.994  1.00  0.00     0.192 HD
HETATM   24  O   UNL     1      -1.375   7.177 -34.277  1.00  0.00    -0.266 OA
HETATM   25  C   UNL     1      -3.075   6.561 -32.764  1.00  0.00     0.046 A 
HETATM   26  C   UNL     1      -4.269   5.860 -32.599  1.00  0.00     0.016 A 
HETATM   27  C   UNL     1      -2.489   7.238 -31.687  1.00  0.00     0.018 A 
HETATM   28  C   UNL     1      -4.865   5.810 -31.334  1.00  0.00     0.015 A 
HETATM   29  C   UNL     1      -4.279   6.483 -30.256  1.00  0.00     0.001 A 
HETATM   30  C   UNL     1      -3.097   7.199 -30.433  1.00  0.00     0.001 A 
ENDBRANCH   2  19
TORSDOF 4
ENDMDL
MODEL 5
REMARK VINA RESULT:      -8.8      4.344      7.297
REMARK  4 active torsions:
REMARK  status: ('A' for Active; 'I' for Inactive)
REMARK    1  A    between atoms: C_2  and  C_3 
REMARK    2  A    between atoms: C_3  and  N_4 
REMARK    3  A    between atoms: C_3  and  C_18 
REMARK       I    between atoms: N_4  and  C_5 
REMARK    4  A    between atoms: C_5  and  C_6 
ROOT
HETATM    1  N   UNL     1      -6.717   1.888 -31.603  1.00  0.00    -0.344 N 
HETATM    2  C   UNL     1      -5.582   1.867 -32.379  1.00  0.00     0.273 C 
HETATM    3  O   UNL     1      -5.219   2.776 -33.110  1.00  0.00    -0.266 OA
HETATM    4  H   UNL     1      -7.067   0.974 -31.327  1.00  0.00     0.163 HD
ENDROOT
BRANCH   1   5
HETATM    5  C   UNL     1      -7.644   3.010 -31.616  1.00  0.00     0.158 C 
BRANCH   5   6
HETATM    6  C   UNL     1      -8.028   3.477 -30.188  1.00  0.00     0.008 C 
HETATM    7  C   UNL     1      -9.170   4.498 -30.246  1.00  0.00     0.012 C 
HETATM    8  C   UNL     1      -6.866   4.068 -29.378  1.00  0.00     0.012 C 
ENDBRANCH   5   6
BRANCH   5   9
HETATM    9  C   UNL     1      -8.838   2.663 -32.469  1.00  0.00     0.128 A 
HETATM   10  N   UNL     1      -9.638   1.618 -32.370  1.00  0.00    -0.231 NA
HETATM   11  C   UNL     1     -10.585   1.776 -33.351  1.00  0.00     0.085 A 
HETATM   12  C   UNL     1     -10.366   2.945 -34.070  1.00  0.00     0.062 A 
HETATM   13  C   UNL     1     -11.672   0.957 -33.690  1.00  0.00     0.034 A 
HETATM   14  N   UNL     1      -9.263   3.500 -33.478  1.00  0.00    -0.341 N 
HETATM   15  C   UNL     1     -11.169   3.352 -35.137  1.00  0.00     0.032 A 
HETATM   16  H   UNL     1      -8.811   4.368 -33.737  1.00  0.00     0.167 HD
HETATM   17  C   UNL     1     -12.247   2.520 -35.464  1.00  0.00     0.002 A 
HETATM   18  C   UNL     1     -12.499   1.344 -34.753  1.00  0.00     0.002 A 
ENDBRANCH   5   9
ENDBRANCH   1   5
BRANCH   2  19
HETATM   19  C   UNL     1      -4.829   0.540 -32.333  1.00  0.00     0.155 A 
HETATM   20  N   UNL     1      -3.877   0.465 -31.445  1.00  0.00    -0.166 NA
HETATM   21  N   UNL     1      -3.196  -0.710 -31.338  1.00  0.00    -0.242 N 
HETATM   22  C   UNL     1      -3.438  -1.854 -32.060  1.00  0.00     0.272 A 
HETATM   23  H   UNL     1      -2.476  -0.759 -30.622  1.00  0.00     0.192 HD
HETATM   24  O   UNL     1      -2.811  -2.890 -31.878  1.00  0.00    -0.266 OA
HETATM   25  C   UNL     1      -4.493  -1.764 -33.085  1.00  0.00     0.046 A 
HETATM   26  C   UNL     1      -5.184  -0.564 -33.248  1.00  0.00     0.016 A 
HETATM   27  C   UNL     1      -4.782  -2.870 -33.894  1.00  0.00     0.018 A 
HETATM   28  C   UNL     1      -6.152  -0.461 -34.253  1.00  0.00     0.015 A 
HETATM   29  C   UNL     1      -6.440  -1.565 -35.064  1.00  0.00     0.001 A 
HETATM   30  C   UNL     1      -5.760  -2.767 -34.882  1.00  0.00     0.001 A 
ENDBRANCH   2  19
TORSDOF 4
ENDMDL
MODEL 6
REMARK VINA RESULT:      -8.6      2.477      8.120
REMARK  4 active torsions:
REMARK  status: ('A' for Active; 'I' for Inactive)
REMARK    1  A    between atoms: C_2  and  C_3 
REMARK    2  A    between atoms: C_3  and  N_4 
REMARK    3  A    between atoms: C_3  and  C_18 
REMARK       I    between atoms: N_4  and  C_5 
REMARK    4  A    between atoms: C_5  and  C_6 
ROOT
HETATM    1  N   UNL     1      -3.453   2.169 -32.605  1.00  0.00    -0.344 N 
HETATM    2  C   UNL     1      -3.525   3.278 -31.795  1.00  0.00     0.273 C 
HETATM    3  O   UNL     1      -4.060   3.309 -30.697  1.00  0.00    -0.266 OA
HETATM    4  H   UNL     1      -3.297   2.365 -33.590  1.00  0.00     0.163 HD
ENDROOT
BRANCH   1   5
HETATM    5  C   UNL     1      -4.068   0.902 -32.238  1.00  0.00     0.158 C 
BRANCH   5   6
HETATM    6  C   UNL     1      -3.313  -0.316 -32.833  1.00  0.00     0.008 C 
HETATM    7  C   UNL     1      -4.301  -1.295 -33.479  1.00  0.00     0.012 C 
HETATM    8  C   UNL     1      -2.438  -1.074 -31.827  1.00  0.00     0.012 C 
ENDBRANCH   5   6
BRANCH   5   9
HETATM    9  C   UNL     1      -5.531   0.931 -32.604  1.00  0.00     0.128 A 
HETATM   10  N   UNL     1      -6.083   1.320 -33.737  1.00  0.00    -0.231 NA
HETATM   11  C   UNL     1      -7.433   1.125 -33.583  1.00  0.00     0.085 A 
HETATM   12  C   UNL     1      -7.721   0.603 -32.328  1.00  0.00     0.062 A 
HETATM   13  C   UNL     1      -8.484   1.371 -34.480  1.00  0.00     0.034 A 
HETATM   14  N   UNL     1      -6.495   0.470 -31.733  1.00  0.00    -0.341 N 
HETATM   15  C   UNL     1      -9.015   0.317 -31.893  1.00  0.00     0.032 A 
HETATM   16  H   UNL     1      -6.310   0.114 -30.803  1.00  0.00     0.167 HD
HETATM   17  C   UNL     1     -10.052   0.574 -32.799  1.00  0.00     0.002 A 
HETATM   18  C   UNL     1      -9.794   1.088 -34.072  1.00  0.00     0.002 A 
ENDBRANCH   5   9
ENDBRANCH   1   5
BRANCH   2  19
HETATM   19  C   UNL     1      -2.949   4.542 -32.430  1.00  0.00     0.155 A 
HETATM   20  N   UNL     1      -3.591   4.990 -33.473  1.00  0.00    -0.166 NA
HETATM   21  N   UNL     1      -3.140   6.135 -34.056  1.00  0.00    -0.242 N 
HETATM   22  C   UNL     1      -2.079   6.897 -33.628  1.00  0.00     0.272 A 
HETATM   23  H   UNL     1      -3.670   6.484 -34.851  1.00  0.00     0.192 HD
HETATM   24  O   UNL     1      -1.757   7.942 -34.180  1.00  0.00    -0.266 OA
HETATM   25  C   UNL     1      -1.333   6.378 -32.469  1.00  0.00     0.046 A 
HETATM   26  C   UNL     1      -1.744   5.188 -31.870  1.00  0.00     0.016 A 
HETATM   27  C   UNL     1      -0.214   7.070 -31.988  1.00  0.00     0.018 A 
HETATM   28  C   UNL     1      -1.008   4.668 -30.800  1.00  0.00     0.015 A 
HETATM   29  C   UNL     1       0.112   5.357 -30.320  1.00  0.00     0.001 A 
HETATM   30  C   UNL     1       0.505   6.557 -30.910  1.00  0.00     0.001 A 
ENDBRANCH   2  19
TORSDOF 4
ENDMDL
MODEL 7
REMARK VINA RESULT:      -8.5      4.686      8.754
REMARK  4 active torsions:
REMARK  status: ('A' for Active; 'I' for Inactive)
REMARK    1  A    between atoms: C_2  and  C_3 
REMARK    2  A    between atoms: C_3  and  N_4 
REMARK    3  A    between atoms: C_3  and  C_18 
REMARK       I    between atoms: N_4  and  C_5 
REMARK    4  A    between atoms: C_5  and  C_6 
ROOT
HETATM    1  N   UNL     1      -7.580   1.718 -33.356  1.00  0.00    -0.344 N 
HETATM    2  C   UNL     1      -8.720   2.096 -32.686  1.00  0.00     0.273 C 
HETATM    3  O   UNL     1      -8.898   1.974 -31.484  1.00  0.00    -0.266 OA
HETATM    4  H   UNL     1      -7.699   1.561 -34.353  1.00  0.00     0.163 HD
ENDROOT
BRANCH   1   5
HETATM    5  C   UNL     1      -6.464   1.074 -32.680  1.00  0.00     0.158 C 
BRANCH   5   6
HETATM    6  C   UNL     1      -5.168   1.924 -32.737  1.00  0.00     0.008 C 
HETATM    7  C   UNL     1      -4.574   2.091 -31.333  1.00  0.00     0.012 C 
HETATM    8  C   UNL     1      -5.344   3.308 -33.375  1.00  0.00     0.012 C 
ENDBRANCH   5   6
BRANCH   5   9
HETATM    9  C   UNL     1      -6.284  -0.320 -33.228  1.00  0.00     0.128 A 
HETATM   10  N   UNL     1      -7.199  -1.124 -33.735  1.00  0.00    -0.231 NA
HETATM   11  C   UNL     1      -6.530  -2.259 -34.120  1.00  0.00     0.085 A 
HETATM   12  C   UNL     1      -5.172  -2.154 -33.844  1.00  0.00     0.062 A 
HETATM   13  C   UNL     1      -7.019  -3.431 -34.716  1.00  0.00     0.034 A 
HETATM   14  N   UNL     1      -5.038  -0.906 -33.297  1.00  0.00    -0.341 N 
HETATM   15  C   UNL     1      -4.252  -3.166 -34.118  1.00  0.00     0.032 A 
HETATM   16  H   UNL     1      -4.179  -0.477 -32.974  1.00  0.00     0.167 HD
HETATM   17  C   UNL     1      -4.758  -4.331 -34.709  1.00  0.00     0.002 A 
HETATM   18  C   UNL     1      -6.116  -4.462 -35.007  1.00  0.00     0.002 A 
ENDBRANCH   5   9
ENDBRANCH   1   5
BRANCH   2  19
HETATM   19  C   UNL     1      -9.828   2.614 -33.601  1.00  0.00     0.155 A 
HETATM   20  N   UNL     1      -9.614   3.784 -34.135  1.00  0.00    -0.166 NA
HETATM   21  N   UNL     1     -10.555   4.277 -34.987  1.00  0.00    -0.242 N 
HETATM   22  C   UNL     1     -11.710   3.640 -35.374  1.00  0.00     0.272 A 
HETATM   23  H   UNL     1     -10.359   5.179 -35.415  1.00  0.00     0.192 HD
HETATM   24  O   UNL     1     -12.491   4.129 -36.181  1.00  0.00    -0.266 OA
HETATM   25  C   UNL     1     -11.970   2.331 -34.749  1.00  0.00     0.046 A 
HETATM   26  C   UNL     1     -11.046   1.813 -33.842  1.00  0.00     0.016 A 
HETATM   27  C   UNL     1     -13.141   1.627 -35.055  1.00  0.00     0.018 A 
HETATM   28  C   UNL     1     -11.313   0.594 -33.211  1.00  0.00     0.015 A 
HETATM   29  C   UNL     1     -12.485  -0.109 -33.514  1.00  0.00     0.001 A 
HETATM   30  C   UNL     1     -13.394   0.404 -34.437  1.00  0.00     0.001 A 
ENDBRANCH   2  19
TORSDOF 4
ENDMDL
MODEL 8
REMARK VINA RESULT:      -8.5      2.621      7.749
REMARK  4 active torsions:
REMARK  status: ('A' for Active; 'I' for Inactive)
REMARK    1  A    between atoms: C_2  and  C_3 
REMARK    2  A    between atoms: C_3  and  N_4 
REMARK    3  A    between atoms: C_3  and  C_18 
REMARK       I    between atoms: N_4  and  C_5 
REMARK    4  A    between atoms: C_5  and  C_6 
ROOT
HETATM    1  N   UNL     1      -5.453   2.190 -32.897  1.00  0.00    -0.344 N 
HETATM    2  C   UNL     1      -5.458   3.519 -33.248  1.00  0.00     0.273 C 
HETATM    3  O   UNL     1      -6.112   3.998 -34.162  1.00  0.00    -0.266 OA
HETATM    4  H   UNL     1      -4.638   1.886 -32.371  1.00  0.00     0.163 HD
ENDROOT
BRANCH   1   5
HETATM    5  C   UNL     1      -6.213   1.191 -33.635  1.00  0.00     0.158 C 
BRANCH   5   6
HETATM    6  C   UNL     1      -7.709   1.166 -33.225  1.00  0.00     0.008 C 
HETATM    7  C   UNL     1      -7.904   0.325 -31.958  1.00  0.00     0.012 C 
HETATM    8  C   UNL     1      -8.658   0.657 -34.317  1.00  0.00     0.012 C 
ENDBRANCH   5   6
BRANCH   5   9
HETATM    9  C   UNL     1      -5.538  -0.151 -33.503  1.00  0.00     0.128 A 
HETATM   10  N   UNL     1      -5.656  -1.207 -34.285  1.00  0.00    -0.231 NA
HETATM   11  C   UNL     1      -4.818  -2.159 -33.760  1.00  0.00     0.085 A 
HETATM   12  C   UNL     1      -4.168  -1.680 -32.629  1.00  0.00     0.062 A 
HETATM   13  C   UNL     1      -4.557  -3.465 -34.198  1.00  0.00     0.034 A 
HETATM   14  N   UNL     1      -4.627  -0.396 -32.498  1.00  0.00    -0.341 N 
HETATM   15  C   UNL     1      -3.265  -2.438 -31.882  1.00  0.00     0.032 A 
HETATM   16  H   UNL     1      -4.366   0.268 -31.780  1.00  0.00     0.167 HD
HETATM   17  C   UNL     1      -3.021  -3.743 -32.332  1.00  0.00     0.002 A 
HETATM   18  C   UNL     1      -3.651  -4.248 -33.471  1.00  0.00     0.002 A 
ENDBRANCH   5   9
ENDBRANCH   1   5
BRANCH   2  19
HETATM   19  C   UNL     1      -4.480   4.372 -32.443  1.00  0.00     0.155 A 
HETATM   20  N   UNL     1      -4.796   4.559 -31.192  1.00  0.00    -0.166 NA
HETATM   21  N   UNL     1      -3.939   5.283 -30.420  1.00  0.00    -0.242 N 
HETATM   22  C   UNL     1      -2.738   5.817 -30.825  1.00  0.00     0.272 A 
HETATM   23  H   UNL     1      -4.188   5.396 -29.440  1.00  0.00     0.192 HD
HETATM   24  O   UNL     1      -1.998   6.422 -30.060  1.00  0.00    -0.266 OA
HETATM   25  C   UNL     1      -2.393   5.633 -32.246  1.00  0.00     0.046 A 
HETATM   26  C   UNL     1      -3.266   4.929 -33.074  1.00  0.00     0.016 A 
HETATM   27  C   UNL     1      -1.207   6.176 -32.756  1.00  0.00     0.018 A 
HETATM   28  C   UNL     1      -2.964   4.796 -34.434  1.00  0.00     0.015 A 
HETATM   29  C   UNL     1      -1.780   5.340 -34.945  1.00  0.00     0.001 A 
HETATM   30  C   UNL     1      -0.902   6.024 -34.107  1.00  0.00     0.001 A 
ENDBRANCH   2  19
TORSDOF 4
ENDMDL
MODEL 9
REMARK VINA RESULT:      -8.1      2.931      4.224
REMARK  4 active torsions:
REMARK  status: ('A' for Active; 'I' for Inactive)
REMARK    1  A    between atoms: C_2  and  C_3 
REMARK    2  A    between atoms: C_3  and  N_4 
REMARK    3  A    between atoms: C_3  and  C_18 
REMARK       I    between atoms: N_4  and  C_5 
REMARK    4  A    between atoms: C_5  and  C_6 
ROOT
HETATM    1  N   UNL     1      -6.566   2.970 -33.338  1.00  0.00    -0.344 N 
HETATM    2  C   UNL     1      -6.942   1.943 -32.505  1.00  0.00     0.273 C 
HETATM    3  O   UNL     1      -7.424   2.087 -31.391  1.00  0.00    -0.266 OA
HETATM    4  H   UNL     1      -5.889   2.719 -34.053  1.00  0.00     0.163 HD
ENDROOT
BRANCH   1   5
HETATM    5  C   UNL     1      -6.669   4.367 -32.939  1.00  0.00     0.158 C 
BRANCH   5   6
HETATM    6  C   UNL     1      -7.823   5.105 -33.666  1.00  0.00     0.008 C 
HETATM    7  C   UNL     1      -8.360   6.249 -32.797  1.00  0.00     0.012 C 
HETATM    8  C   UNL     1      -8.991   4.203 -34.084  1.00  0.00     0.012 C 
ENDBRANCH   5   6
BRANCH   5   9
HETATM    9  C   UNL     1      -5.330   5.038 -33.117  1.00  0.00     0.128 A 
HETATM   10  N   UNL     1      -4.829   6.055 -32.443  1.00  0.00    -0.231 NA
HETATM   11  C   UNL     1      -3.575   6.267 -32.960  1.00  0.00     0.085 A 
HETATM   12  C   UNL     1      -3.296   5.361 -33.975  1.00  0.00     0.062 A 
HETATM   13  C   UNL     1      -2.610   7.223 -32.610  1.00  0.00     0.034 A 
HETATM   14  N   UNL     1      -4.417   4.578 -34.041  1.00  0.00    -0.341 N 
HETATM   15  C   UNL     1      -2.097   5.352 -34.688  1.00  0.00     0.032 A 
HETATM   16  H   UNL     1      -4.574   3.800 -34.671  1.00  0.00     0.167 HD
HETATM   17  C   UNL     1      -1.146   6.316 -34.329  1.00  0.00     0.002 A 
HETATM   18  C   UNL     1      -1.394   7.235 -33.306  1.00  0.00     0.002 A 
ENDBRANCH   5   9
ENDBRANCH   1   5
BRANCH   2  19
HETATM   19  C   UNL     1      -6.613   0.555 -33.051  1.00  0.00     0.155 A 
HETATM   20  N   UNL     1      -7.478   0.065 -33.895  1.00  0.00    -0.166 NA
HETATM   21  N   UNL     1      -7.216  -1.155 -34.440  1.00  0.00    -0.242 N 
HETATM   22  C   UNL     1      -6.096  -1.919 -34.213  1.00  0.00     0.272 A 
HETATM   23  H   UNL     1      -7.888  -1.509 -35.117  1.00  0.00     0.192 HD
HETATM   24  O   UNL     1      -5.907  -2.991 -34.775  1.00  0.00    -0.266 OA
HETATM   25  C   UNL     1      -5.131  -1.382 -33.238  1.00  0.00     0.046 A 
HETATM   26  C   UNL     1      -5.387  -0.152 -32.631  1.00  0.00     0.016 A 
HETATM   27  C   UNL     1      -3.979  -2.110 -32.916  1.00  0.00     0.018 A 
HETATM   28  C   UNL     1      -4.497   0.336 -31.669  1.00  0.00     0.015 A 
HETATM   29  C   UNL     1      -3.347  -0.392 -31.344  1.00  0.00     0.001 A 
HETATM   30  C   UNL     1      -3.086  -1.610 -31.969  1.00  0.00     0.001 A 
ENDBRANCH   2  19
TORSDOF 4
ENDMDL
MODEL 10
REMARK VINA RESULT:      -8.1     17.420     19.310
REMARK  4 active torsions:
REMARK  status: ('A' for Active; 'I' for Inactive)
REMARK    1  A    between atoms: C_2  and  C_3 
REMARK    2  A    between atoms: C_3  and  N_4 
REMARK    3  A    between atoms: C_3  and  C_18 
REMARK       I    between atoms: N_4  and  C_5 
REMARK    4  A    between atoms: C_5  and  C_6 
ROOT
HETATM    1  N   UNL     1      -4.686 -14.205 -36.922  1.00  0.00    -0.344 N 
HETATM    2  C   UNL     1      -3.791 -13.196 -37.190  1.00  0.00     0.273 C 
HETATM    3  O   UNL     1      -3.938 -12.027 -36.869  1.00  0.00    -0.266 OA
HETATM    4  H   UNL     1      -4.608 -15.021 -37.524  1.00  0.00     0.163 HD
ENDROOT
BRANCH   1   5
HETATM    5  C   UNL     1      -5.954 -13.956 -36.252  1.00  0.00     0.158 C 
BRANCH   5   6
HETATM    6  C   UNL     1      -6.235 -14.982 -35.122  1.00  0.00     0.008 C 
HETATM    7  C   UNL     1      -6.993 -14.314 -33.968  1.00  0.00     0.012 C 
HETATM    8  C   UNL     1      -4.985 -15.675 -34.567  1.00  0.00     0.012 C 
ENDBRANCH   5   6
BRANCH   5   9
HETATM    9  C   UNL     1      -7.057 -13.884 -37.277  1.00  0.00     0.128 A 
HETATM   10  N   UNL     1      -7.827 -14.859 -37.721  1.00  0.00    -0.231 NA
HETATM   11  C   UNL     1      -8.690 -14.278 -38.616  1.00  0.00     0.085 A 
HETATM   12  C   UNL     1      -8.448 -12.915 -38.727  1.00  0.00     0.062 A 
HETATM   13  C   UNL     1      -9.716 -14.856 -39.379  1.00  0.00     0.034 A 
HETATM   14  N   UNL     1      -7.420 -12.685 -37.852  1.00  0.00    -0.341 N 
HETATM   15  C   UNL     1      -9.168 -12.073 -39.577  1.00  0.00     0.032 A 
HETATM   16  H   UNL     1      -6.976 -11.795 -37.662  1.00  0.00     0.167 HD
HETATM   17  C   UNL     1     -10.185 -12.668 -40.334  1.00  0.00     0.002 A 
HETATM   18  C   UNL     1     -10.459 -14.035 -40.236  1.00  0.00     0.002 A 
ENDBRANCH   5   9
ENDBRANCH   1   5
BRANCH   2  19
HETATM   19  C   UNL     1      -2.597 -13.640 -38.033  1.00  0.00     0.155 A 
HETATM   20  N   UNL     1      -2.635 -13.291 -39.289  1.00  0.00    -0.166 NA
HETATM   21  N   UNL     1      -1.578 -13.631 -40.077  1.00  0.00    -0.242 N 
HETATM   22  C   UNL     1      -0.441 -14.286 -39.668  1.00  0.00     0.272 A 
HETATM   23  H   UNL     1      -1.613 -13.327 -41.047  1.00  0.00     0.192 HD
HETATM   24  O   UNL     1       0.491 -14.521 -40.428  1.00  0.00    -0.266 OA
HETATM   25  C   UNL     1      -0.408 -14.708 -38.257  1.00  0.00     0.046 A 
HETATM   26  C   UNL     1      -1.490 -14.410 -37.430  1.00  0.00     0.016 A 
HETATM   27  C   UNL     1       0.696 -15.415 -37.761  1.00  0.00     0.018 A 
HETATM   28  C   UNL     1      -1.481 -14.853 -36.103  1.00  0.00     0.015 A 
HETATM   29  C   UNL     1      -0.381 -15.561 -35.607  1.00  0.00     0.001 A 
HETATM   30  C   UNL     1       0.706 -15.838 -36.433  1.00  0.00     0.001 A 
ENDBRANCH   2  19
TORSDOF 4
ENDMDL
