MODEL 1
REMARK VINA RESULT:      -9.7      0.000      0.000
REMARK  3 active torsions:
REMARK  status: ('A' for Active; 'I' for Inactive)
REMARK    1  A    between atoms: N_12  and  C_13 
REMARK    2  A    between atoms: C_13  and  C_14 
REMARK       I    between atoms: C_14  and  N_15 
REMARK    3  A    between atoms: N_15  and  C_16 
ROOT
HETATM    1  C   UNL     1       0.763   6.886 -31.094  1.00  0.00     0.048 C 
HETATM    2  C   UNL     1      -0.506   6.557 -31.826  1.00  0.00    -0.061 A 
HETATM    3  C   UNL     1      -1.180   5.349 -31.577  1.00  0.00     0.021 A 
HETATM    4  C   UNL     1      -2.373   5.057 -32.269  1.00  0.00     0.005 A 
HETATM    5  C   UNL     1      -2.855   5.983 -33.202  1.00  0.00     0.044 A 
HETATM    6  N   UNL     1      -4.029   5.473 -33.722  1.00  0.00    -0.350 N 
HETATM    7  H   UNL     1      -4.613   5.929 -34.412  1.00  0.00     0.166 HD
HETATM    8  C   UNL     1      -4.300   4.266 -33.144  1.00  0.00     0.116 A 
HETATM    9  C   UNL     1      -3.294   3.981 -32.254  1.00  0.00     0.028 A 
HETATM   10  C   UNL     1      -5.426   3.406 -33.360  1.00  0.00     0.291 A 
HETATM   11  O   UNL     1      -6.340   3.684 -34.129  1.00  0.00    -0.264 OA
HETATM   12  N   UNL     1      -5.358   2.216 -32.608  1.00  0.00    -0.224 N 
HETATM   13  N   UNL     1      -4.343   1.928 -31.669  1.00  0.00    -0.180 NA
HETATM   14  C   UNL     1      -3.356   2.760 -31.505  1.00  0.00     0.153 A 
HETATM   15  C   UNL     1      -2.194   7.183 -33.477  1.00  0.00     0.031 A 
HETATM   16  C   UNL     1      -1.014   7.452 -32.773  1.00  0.00     0.009 A 
ENDROOT
BRANCH  12  17
HETATM   17  C   UNL     1      -6.525   1.349 -32.566  1.00  0.00     0.258 C 
BRANCH  17  18
HETATM   18  C   UNL     1      -6.423  -0.175 -32.772  1.00  0.00     0.244 C 
HETATM   19  N   UNL     1      -6.400  -0.731 -34.060  1.00  0.00    -0.321 N 
HETATM   20  C   UNL     1      -6.741   0.031 -35.256  1.00  0.00     0.159 C 
HETATM   21  O   UNL     1      -6.222  -0.851 -31.751  1.00  0.00    -0.271 OA
BRANCH  19  22
HETATM   22  C   UNL     1      -6.070  -2.120 -34.251  1.00  0.00     0.036 A 
HETATM   23  C   UNL     1      -4.740  -2.563 -34.185  1.00  0.00     0.029 A 
HETATM   24  C   UNL     1      -4.409  -3.902 -34.425  1.00  0.00     0.002 A 
HETATM   25  C   UNL     1      -5.407  -4.824 -34.727  1.00  0.00     0.000 A 
HETATM   26  C   UNL     1      -6.733  -4.407 -34.789  1.00  0.00     0.002 A 
HETATM   27  C   UNL     1      -7.060  -3.066 -34.559  1.00  0.00     0.029 A 
ENDBRANCH  19  22
ENDBRANCH  17  18
ENDBRANCH  12  17
TORSDOF 3
ENDMDL
MODEL 2
REMARK VINA RESULT:      -9.2      4.574      7.822
REMARK  3 active torsions:
REMARK  status: ('A' for Active; 'I' for Inactive)
REMARK    1  A    between atoms: N_12  and  C_13 
REMARK    2  A    between atoms: C_13  and  C_14 
REMARK       I    between atoms: C_14  and  N_15 
REMARK    3  A    between atoms: N_15  and  C_16 
ROOT
HETATM    1  C   UNL     1      -3.395  -4.926 -33.848  1.00  0.00     0.048 C 
HETATM    2  C   UNL     1      -3.807  -3.566 -33.365  1.00  0.00    -0.061 A 
HETATM    3  C   UNL     1      -4.834  -2.859 -34.013  1.00  0.00     0.021 A 
HETATM    4  C   UNL     1      -5.212  -1.585 -33.544  1.00  0.00     0.005 A 
HETATM    5  C   UNL     1      -4.544  -1.047 -32.438  1.00  0.00     0.044 A 
HETATM    6  N   UNL     1      -5.106   0.186 -32.173  1.00  0.00    -0.350 N 
HETATM    7  H   UNL     1      -4.836   0.806 -31.419  1.00  0.00     0.166 HD
HETATM    8  C   UNL     1      -6.106   0.436 -33.069  1.00  0.00     0.116 A 
HETATM    9  C   UNL     1      -6.187  -0.631 -33.929  1.00  0.00     0.028 A 
HETATM   10  C   UNL     1      -6.973   1.575 -33.144  1.00  0.00     0.291 A 
HETATM   11  O   UNL     1      -6.919   2.507 -32.350  1.00  0.00    -0.264 OA
HETATM   12  N   UNL     1      -7.873   1.506 -34.226  1.00  0.00    -0.224 N 
HETATM   13  N   UNL     1      -7.984   0.401 -35.098  1.00  0.00    -0.180 NA
HETATM   14  C   UNL     1      -7.178  -0.613 -34.965  1.00  0.00     0.153 A 
HETATM   15  C   UNL     1      -3.509  -1.725 -31.786  1.00  0.00     0.031 A 
HETATM   16  C   UNL     1      -3.155  -2.990 -32.269  1.00  0.00     0.009 A 
ENDROOT
BRANCH  12  17
HETATM   17  C   UNL     1      -8.946   2.485 -34.304  1.00  0.00     0.258 C 
BRANCH  17  18
HETATM   18  C   UNL     1     -10.346   2.217 -33.716  1.00  0.00     0.244 C 
HETATM   19  N   UNL     1     -11.501   2.705 -34.345  1.00  0.00    -0.321 N 
HETATM   20  C   UNL     1     -11.460   3.703 -35.408  1.00  0.00     0.159 C 
HETATM   21  O   UNL     1     -10.392   1.438 -32.751  1.00  0.00    -0.271 OA
BRANCH  19  22
HETATM   22  C   UNL     1     -12.805   2.258 -33.928  1.00  0.00     0.036 A 
HETATM   23  C   UNL     1     -13.460   1.212 -34.598  1.00  0.00     0.029 A 
HETATM   24  C   UNL     1     -14.750   0.812 -34.231  1.00  0.00     0.002 A 
HETATM   25  C   UNL     1     -15.405   1.447 -33.180  1.00  0.00     0.000 A 
HETATM   26  C   UNL     1     -14.771   2.480 -32.498  1.00  0.00     0.002 A 
HETATM   27  C   UNL     1     -13.485   2.886 -32.873  1.00  0.00     0.029 A 
ENDBRANCH  19  22
ENDBRANCH  17  18
ENDBRANCH  12  17
TORSDOF 3
ENDMDL
MODEL 3
REMARK VINA RESULT:      -9.2      1.588      8.400
REMARK  3 active torsions:
REMARK  status: ('A' for Active; 'I' for Inactive)
REMARK    1  A    between atoms: N_12  and  C_13 
REMARK    2  A    between atoms: C_13  and  C_14 
REMARK       I    between atoms: C_14  and  N_15 
REMARK    3  A    between atoms: N_15  and  C_16 
ROOT
HETATM    1  C   UNL     1      -3.430  -5.228 -33.967  1.00  0.00     0.048 C 
HETATM    2  C   UNL     1      -4.495  -4.193 -34.186  1.00  0.00    -0.061 A 
HETATM    3  C   UNL     1      -4.332  -2.886 -33.696  1.00  0.00     0.021 A 
HETATM    4  C   UNL     1      -5.340  -1.925 -33.915  1.00  0.00     0.005 A 
HETATM    5  C   UNL     1      -6.492  -2.303 -34.614  1.00  0.00     0.044 A 
HETATM    6  N   UNL     1      -7.305  -1.190 -34.706  1.00  0.00    -0.350 N 
HETATM    7  H   UNL     1      -8.204  -1.154 -35.170  1.00  0.00     0.166 HD
HETATM    8  C   UNL     1      -6.700  -0.129 -34.094  1.00  0.00     0.116 A 
HETATM    9  C   UNL     1      -5.496  -0.555 -33.591  1.00  0.00     0.028 A 
HETATM   10  C   UNL     1      -7.168   1.221 -33.980  1.00  0.00     0.291 A 
HETATM   11  O   UNL     1      -8.227   1.603 -34.464  1.00  0.00    -0.264 OA
HETATM   12  N   UNL     1      -6.288   2.044 -33.249  1.00  0.00    -0.224 N 
HETATM   13  N   UNL     1      -5.035   1.623 -32.752  1.00  0.00    -0.180 NA
HETATM   14  C   UNL     1      -4.659   0.387 -32.906  1.00  0.00     0.153 A 
HETATM   15  C   UNL     1      -6.684  -3.600 -35.098  1.00  0.00     0.031 A 
HETATM   16  C   UNL     1      -5.666  -4.535 -34.872  1.00  0.00     0.009 A 
ENDROOT
BRANCH  12  17
HETATM   17  C   UNL     1      -6.528   3.479 -33.231  1.00  0.00     0.258 C 
BRANCH  17  18
HETATM   18  C   UNL     1      -5.410   4.502 -33.516  1.00  0.00     0.244 C 
HETATM   19  N   UNL     1      -4.536   4.920 -32.502  1.00  0.00    -0.321 N 
HETATM   20  C   UNL     1      -4.777   4.649 -31.089  1.00  0.00     0.159 C 
HETATM   21  O   UNL     1      -5.248   4.814 -34.706  1.00  0.00    -0.271 OA
BRANCH  19  22
HETATM   22  C   UNL     1      -3.358   5.686 -32.821  1.00  0.00     0.036 A 
HETATM   23  C   UNL     1      -2.288   5.109 -33.522  1.00  0.00     0.029 A 
HETATM   24  C   UNL     1      -1.120   5.833 -33.785  1.00  0.00     0.002 A 
HETATM   25  C   UNL     1      -1.006   7.153 -33.359  1.00  0.00     0.000 A 
HETATM   26  C   UNL     1      -2.059   7.747 -32.670  1.00  0.00     0.002 A 
HETATM   27  C   UNL     1      -3.222   7.017 -32.398  1.00  0.00     0.029 A 
ENDBRANCH  19  22
ENDBRANCH  17  18
ENDBRANCH  12  17
TORSDOF 3
ENDMDL
MODEL 4
REMARK VINA RESULT:      -8.8      1.693      8.679
REMARK  3 active torsions:
REMARK  status: ('A' for Active; 'I' for Inactive)
REMARK    1  A    between atoms: N_12  and  C_13 
REMARK    2  A    between atoms: C_13  and  C_14 
REMARK       I    between atoms: C_14  and  N_15 
REMARK    3  A    between atoms: N_15  and  C_16 
ROOT
HETATM    1  C   UNL     1      -3.904  -4.969 -33.976  1.00  0.00     0.048 C 
HETATM    2  C   UNL     1      -4.674  -3.684 -34.079  1.00  0.00    -0.061 A 
HETATM    3  C   UNL     1      -4.182  -2.509 -33.488  1.00  0.00     0.021 A 
HETATM    4  C   UNL     1      -4.915  -1.310 -33.598  1.00  0.00     0.005 A 
HETATM    5  C   UNL     1      -6.129  -1.322 -34.294  1.00  0.00     0.044 A 
HETATM    6  N   UNL     1      -6.633  -0.037 -34.271  1.00  0.00    -0.350 N 
HETATM    7  H   UNL     1      -7.496   0.264 -34.706  1.00  0.00     0.166 HD
HETATM    8  C   UNL     1      -5.775   0.780 -33.590  1.00  0.00     0.116 A 
HETATM    9  C   UNL     1      -4.715   0.022 -33.158  1.00  0.00     0.028 A 
HETATM   10  C   UNL     1      -5.885   2.189 -33.353  1.00  0.00     0.291 A 
HETATM   11  O   UNL     1      -6.816   2.866 -33.774  1.00  0.00    -0.264 OA
HETATM   12  N   UNL     1      -4.821   2.697 -32.581  1.00  0.00    -0.224 N 
HETATM   13  N   UNL     1      -3.713   1.933 -32.156  1.00  0.00    -0.180 NA
HETATM   14  C   UNL     1      -3.664   0.659 -32.421  1.00  0.00     0.153 A 
HETATM   15  C   UNL     1      -6.646  -2.482 -34.878  1.00  0.00     0.031 A 
HETATM   16  C   UNL     1      -5.897  -3.659 -34.758  1.00  0.00     0.009 A 
ENDROOT
BRANCH  12  17
HETATM   17  C   UNL     1      -4.689   4.139 -32.438  1.00  0.00     0.258 C 
BRANCH  17  18
HETATM   18  C   UNL     1      -3.727   4.778 -31.417  1.00  0.00     0.244 C 
HETATM   19  N   UNL     1      -2.447   5.207 -31.800  1.00  0.00    -0.321 N 
HETATM   20  C   UNL     1      -1.840   4.844 -33.075  1.00  0.00     0.159 C 
HETATM   21  O   UNL     1      -4.200   5.013 -30.295  1.00  0.00    -0.271 OA
BRANCH  19  22
HETATM   22  C   UNL     1      -1.648   6.010 -30.910  1.00  0.00     0.036 A 
HETATM   23  C   UNL     1      -1.996   7.340 -30.626  1.00  0.00     0.029 A 
HETATM   24  C   UNL     1      -1.193   8.140 -29.806  1.00  0.00     0.002 A 
HETATM   25  C   UNL     1      -0.030   7.620 -29.247  1.00  0.00     0.000 A 
HETATM   26  C   UNL     1       0.329   6.301 -29.508  1.00  0.00     0.002 A 
HETATM   27  C   UNL     1      -0.471   5.506 -30.337  1.00  0.00     0.029 A 
ENDBRANCH  19  22
ENDBRANCH  17  18
ENDBRANCH  12  17
TORSDOF 3
ENDMDL
MODEL 5
REMARK VINA RESULT:      -8.6      3.252      5.271
REMARK  3 active torsions:
REMARK  status: ('A' for Active; 'I' for Inactive)
REMARK    1  A    between atoms: N_12  and  C_13 
REMARK    2  A    between atoms: C_13  and  C_14 
REMARK       I    between atoms: C_14  and  N_15 
REMARK    3  A    between atoms: N_15  and  C_16 
ROOT
HETATM    1  C   UNL     1       2.324   8.577 -25.647  1.00  0.00     0.048 C 
HETATM    2  C   UNL     1       1.240   8.544 -26.685  1.00  0.00    -0.061 A 
HETATM    3  C   UNL     1       1.149   7.470 -27.586  1.00  0.00     0.021 A 
HETATM    4  C   UNL     1       0.122   7.451 -28.551  1.00  0.00     0.005 A 
HETATM    5  C   UNL     1      -0.785   8.517 -28.593  1.00  0.00     0.044 A 
HETATM    6  N   UNL     1      -1.689   8.253 -29.603  1.00  0.00    -0.350 N 
HETATM    7  H   UNL     1      -2.471   8.841 -29.861  1.00  0.00     0.166 HD
HETATM    8  C   UNL     1      -1.383   7.058 -30.191  1.00  0.00     0.116 A 
HETATM    9  C   UNL     1      -0.270   6.548 -29.571  1.00  0.00     0.028 A 
HETATM   10  C   UNL     1      -2.072   6.384 -31.252  1.00  0.00     0.291 A 
HETATM   11  O   UNL     1      -3.087   6.828 -31.776  1.00  0.00    -0.264 OA
HETATM   12  N   UNL     1      -1.450   5.177 -31.626  1.00  0.00    -0.224 N 
HETATM   13  N   UNL     1      -0.322   4.630 -30.976  1.00  0.00    -0.180 NA
HETATM   14  C   UNL     1       0.246   5.283 -30.005  1.00  0.00     0.153 A 
HETATM   15  C   UNL     1      -0.705   9.603 -27.717  1.00  0.00     0.031 A 
HETATM   16  C   UNL     1       0.321   9.596 -26.765  1.00  0.00     0.009 A 
ENDROOT
BRANCH  12  17
HETATM   17  C   UNL     1      -2.147   4.287 -32.541  1.00  0.00     0.258 C 
BRANCH  17  18
HETATM   18  C   UNL     1      -3.187   3.258 -32.053  1.00  0.00     0.244 C 
HETATM   19  N   UNL     1      -4.454   3.172 -32.649  1.00  0.00    -0.321 N 
HETATM   20  C   UNL     1      -4.974   4.192 -33.553  1.00  0.00     0.159 C 
HETATM   21  O   UNL     1      -2.788   2.435 -31.215  1.00  0.00    -0.271 OA
BRANCH  19  22
HETATM   22  C   UNL     1      -5.327   2.065 -32.354  1.00  0.00     0.036 A 
HETATM   23  C   UNL     1      -5.204   0.844 -33.034  1.00  0.00     0.029 A 
HETATM   24  C   UNL     1      -6.086  -0.215 -32.790  1.00  0.00     0.002 A 
HETATM   25  C   UNL     1      -7.103  -0.073 -31.850  1.00  0.00     0.000 A 
HETATM   26  C   UNL     1      -7.237   1.126 -31.157  1.00  0.00     0.002 A 
HETATM   27  C   UNL     1      -6.361   2.188 -31.412  1.00  0.00     0.029 A 
ENDBRANCH  19  22
ENDBRANCH  17  18
ENDBRANCH  12  17
TORSDOF 3
ENDMDL
MODEL 6
REMARK VINA RESULT:      -8.5      4.922      7.971
REMARK  3 active torsions:
REMARK  status: ('A' for Active; 'I' for Inactive)
REMARK    1  A    between atoms: N_12  and  C_13 
REMARK    2  A    between atoms: C_13  and  C_14 
REMARK       I    between atoms: C_14  and  N_15 
REMARK    3  A    between atoms: N_15  and  C_16 
ROOT
HETATM    1  C   UNL     1     -16.532   2.269 -32.551  1.00  0.00     0.048 C 
HETATM    2  C   UNL     1     -15.151   2.831 -32.378  1.00  0.00    -0.061 A 
HETATM    3  C   UNL     1     -14.032   2.138 -32.870  1.00  0.00     0.021 A 
HETATM    4  C   UNL     1     -12.742   2.682 -32.703  1.00  0.00     0.005 A 
HETATM    5  C   UNL     1     -12.607   3.906 -32.039  1.00  0.00     0.044 A 
HETATM    6  N   UNL     1     -11.263   4.222 -32.022  1.00  0.00    -0.350 N 
HETATM    7  H   UNL     1     -10.860   5.059 -31.620  1.00  0.00     0.166 HD
HETATM    8  C   UNL     1     -10.554   3.242 -32.657  1.00  0.00     0.116 A 
HETATM    9  C   UNL     1     -11.436   2.279 -33.077  1.00  0.00     0.028 A 
HETATM   10  C   UNL     1      -9.142   3.177 -32.900  1.00  0.00     0.291 A 
HETATM   11  O   UNL     1      -8.365   4.060 -32.555  1.00  0.00    -0.264 OA
HETATM   12  N   UNL     1      -8.756   1.995 -33.562  1.00  0.00    -0.224 N 
HETATM   13  N   UNL     1      -9.659   1.012 -34.023  1.00  0.00    -0.180 NA
HETATM   14  C   UNL     1     -10.933   1.140 -33.787  1.00  0.00     0.153 A 
HETATM   15  C   UNL     1     -13.703   4.607 -31.528  1.00  0.00     0.031 A 
HETATM   16  C   UNL     1     -14.974   4.048 -31.710  1.00  0.00     0.009 A 
ENDROOT
BRANCH  12  17
HETATM   17  C   UNL     1      -7.393   1.886 -34.059  1.00  0.00     0.258 C 
BRANCH  17  18
HETATM   18  C   UNL     1      -6.793   0.545 -34.525  1.00  0.00     0.244 C 
HETATM   19  N   UNL     1      -6.393  -0.430 -33.598  1.00  0.00    -0.321 N 
HETATM   20  C   UNL     1      -6.254  -0.155 -32.172  1.00  0.00     0.159 C 
HETATM   21  O   UNL     1      -6.821   0.330 -35.746  1.00  0.00    -0.271 OA
BRANCH  19  22
HETATM   22  C   UNL     1      -6.058  -1.761 -34.035  1.00  0.00     0.036 A 
HETATM   23  C   UNL     1      -7.055  -2.666 -34.429  1.00  0.00     0.029 A 
HETATM   24  C   UNL     1      -6.738  -3.977 -34.802  1.00  0.00     0.002 A 
HETATM   25  C   UNL     1      -5.413  -4.403 -34.795  1.00  0.00     0.000 A 
HETATM   26  C   UNL     1      -4.408  -3.519 -34.416  1.00  0.00     0.002 A 
HETATM   27  C   UNL     1      -4.728  -2.211 -34.033  1.00  0.00     0.029 A 
ENDBRANCH  19  22
ENDBRANCH  17  18
ENDBRANCH  12  17
TORSDOF 3
ENDMDL
MODEL 7
REMARK VINA RESULT:      -8.3      2.776      9.180
REMARK  3 active torsions:
REMARK  status: ('A' for Active; 'I' for Inactive)
REMARK    1  A    between atoms: N_12  and  C_13 
REMARK    2  A    between atoms: C_13  and  C_14 
REMARK       I    between atoms: C_14  and  N_15 
REMARK    3  A    between atoms: N_15  and  C_16 
ROOT
HETATM    1  C   UNL     1      -6.427  -2.135 -34.211  1.00  0.00     0.048 C 
HETATM    2  C   UNL     1      -6.568  -0.726 -33.713  1.00  0.00    -0.061 A 
HETATM    3  C   UNL     1      -5.430   0.038 -33.403  1.00  0.00     0.021 A 
HETATM    4  C   UNL     1      -5.580   1.361 -32.941  1.00  0.00     0.005 A 
HETATM    5  C   UNL     1      -6.870   1.883 -32.794  1.00  0.00     0.044 A 
HETATM    6  N   UNL     1      -6.743   3.184 -32.349  1.00  0.00    -0.350 N 
HETATM    7  H   UNL     1      -7.509   3.820 -32.165  1.00  0.00     0.166 HD
HETATM    8  C   UNL     1      -5.420   3.496 -32.218  1.00  0.00     0.116 A 
HETATM    9  C   UNL     1      -4.683   2.392 -32.566  1.00  0.00     0.028 A 
HETATM   10  C   UNL     1      -4.832   4.741 -31.818  1.00  0.00     0.291 A 
HETATM   11  O   UNL     1      -5.496   5.735 -31.544  1.00  0.00    -0.264 OA
HETATM   12  N   UNL     1      -3.425   4.689 -31.765  1.00  0.00    -0.224 N 
HETATM   13  N   UNL     1      -2.657   3.567 -32.149  1.00  0.00    -0.180 NA
HETATM   14  C   UNL     1      -3.252   2.471 -32.522  1.00  0.00     0.153 A 
HETATM   15  C   UNL     1      -8.017   1.137 -33.082  1.00  0.00     0.031 A 
HETATM   16  C   UNL     1      -7.842  -0.173 -33.543  1.00  0.00     0.009 A 
ENDROOT
BRANCH  12  17
HETATM   17  C   UNL     1      -2.687   5.928 -31.579  1.00  0.00     0.258 C 
BRANCH  17  18
HETATM   18  C   UNL     1      -2.032   6.300 -30.234  1.00  0.00     0.244 C 
HETATM   19  N   UNL     1      -0.653   6.136 -30.031  1.00  0.00    -0.321 N 
HETATM   20  C   UNL     1       0.193   5.369 -30.938  1.00  0.00     0.159 C 
HETATM   21  O   UNL     1      -2.762   6.874 -29.413  1.00  0.00    -0.271 OA
BRANCH  19  22
HETATM   22  C   UNL     1      -0.013   6.699 -28.870  1.00  0.00     0.036 A 
HETATM   23  C   UNL     1      -0.228   6.160 -27.593  1.00  0.00     0.029 A 
HETATM   24  C   UNL     1       0.348   6.738 -26.456  1.00  0.00     0.002 A 
HETATM   25  C   UNL     1       1.159   7.863 -26.580  1.00  0.00     0.000 A 
HETATM   26  C   UNL     1       1.392   8.408 -27.838  1.00  0.00     0.002 A 
HETATM   27  C   UNL     1       0.806   7.834 -28.973  1.00  0.00     0.029 A 
ENDBRANCH  19  22
ENDBRANCH  17  18
ENDBRANCH  12  17
TORSDOF 3
ENDMDL
MODEL 8
REMARK VINA RESULT:      -8.2      1.409      1.605
REMARK  3 active torsions:
REMARK  status: ('A' for Active; 'I' for Inactive)
REMARK    1  A    between atoms: N_12  and  C_13 
REMARK    2  A    between atoms: C_13  and  C_14 
REMARK       I    between atoms: C_14  and  N_15 
REMARK    3  A    between atoms: N_15  and  C_16 
ROOT
HETATM    1  C   UNL     1      -0.946   8.135 -29.119  1.00  0.00     0.048 C 
HETATM    2  C   UNL     1      -1.640   7.609 -30.341  1.00  0.00    -0.061 A 
HETATM    3  C   UNL     1      -2.411   6.436 -30.275  1.00  0.00     0.021 A 
HETATM    4  C   UNL     1      -3.060   5.959 -31.432  1.00  0.00     0.005 A 
HETATM    5  C   UNL     1      -2.913   6.667 -32.630  1.00  0.00     0.044 A 
HETATM    6  N   UNL     1      -3.651   6.009 -33.594  1.00  0.00    -0.350 N 
HETATM    7  H   UNL     1      -3.746   6.297 -34.560  1.00  0.00     0.166 HD
HETATM    8  C   UNL     1      -4.259   4.918 -33.040  1.00  0.00     0.116 A 
HETATM    9  C   UNL     1      -3.906   4.858 -31.715  1.00  0.00     0.028 A 
HETATM   10  C   UNL     1      -5.140   3.976 -33.664  1.00  0.00     0.291 A 
HETATM   11  O   UNL     1      -5.480   4.057 -34.839  1.00  0.00    -0.264 OA
HETATM   12  N   UNL     1      -5.555   2.953 -32.788  1.00  0.00    -0.224 N 
HETATM   13  N   UNL     1      -5.221   2.898 -31.417  1.00  0.00    -0.180 NA
HETATM   14  C   UNL     1      -4.430   3.797 -30.906  1.00  0.00     0.153 A 
HETATM   15  C   UNL     1      -2.139   7.828 -32.724  1.00  0.00     0.031 A 
HETATM   16  C   UNL     1      -1.508   8.284 -31.560  1.00  0.00     0.009 A 
ENDROOT
BRANCH  12  17
HETATM   17  C   UNL     1      -6.610   2.050 -33.220  1.00  0.00     0.258 C 
BRANCH  17  18
HETATM   18  C   UNL     1      -6.307   0.701 -33.904  1.00  0.00     0.244 C 
HETATM   19  N   UNL     1      -5.939  -0.424 -33.153  1.00  0.00    -0.321 N 
HETATM   20  C   UNL     1      -5.552  -0.345 -31.748  1.00  0.00     0.159 C 
HETATM   21  O   UNL     1      -6.545   0.642 -35.120  1.00  0.00    -0.271 OA
BRANCH  19  22
HETATM   22  C   UNL     1      -5.888  -1.728 -33.765  1.00  0.00     0.036 A 
HETATM   23  C   UNL     1      -4.663  -2.370 -33.998  1.00  0.00     0.029 A 
HETATM   24  C   UNL     1      -4.606  -3.611 -34.643  1.00  0.00     0.002 A 
HETATM   25  C   UNL     1      -5.779  -4.236 -35.057  1.00  0.00     0.000 A 
HETATM   26  C   UNL     1      -7.005  -3.620 -34.827  1.00  0.00     0.002 A 
HETATM   27  C   UNL     1      -7.058  -2.374 -34.192  1.00  0.00     0.029 A 
ENDBRANCH  19  22
ENDBRANCH  17  18
ENDBRANCH  12  17
TORSDOF 3
ENDMDL
MODEL 9
REMARK VINA RESULT:      -8.0      3.984      6.523
REMARK  3 active torsions:
REMARK  status: ('A' for Active; 'I' for Inactive)
REMARK    1  A    between atoms: N_12  and  C_13 
REMARK    2  A    between atoms: C_13  and  C_14 
REMARK       I    between atoms: C_14  and  N_15 
REMARK    3  A    between atoms: N_15  and  C_16 
ROOT
HETATM    1  C   UNL     1     -14.710   4.184 -32.338  1.00  0.00     0.048 C 
HETATM    2  C   UNL     1     -13.302   4.325 -32.836  1.00  0.00    -0.061 A 
HETATM    3  C   UNL     1     -12.287   3.477 -32.360  1.00  0.00     0.021 A 
HETATM    4  C   UNL     1     -10.971   3.620 -32.842  1.00  0.00     0.005 A 
HETATM    5  C   UNL     1     -10.702   4.617 -33.787  1.00  0.00     0.044 A 
HETATM    6  N   UNL     1      -9.361   4.538 -34.104  1.00  0.00    -0.350 N 
HETATM    7  H   UNL     1      -8.878   5.126 -34.772  1.00  0.00     0.166 HD
HETATM    8  C   UNL     1      -8.782   3.524 -33.395  1.00  0.00     0.116 A 
HETATM    9  C   UNL     1      -9.746   2.949 -32.605  1.00  0.00     0.028 A 
HETATM   10  C   UNL     1      -7.423   3.069 -33.437  1.00  0.00     0.291 A 
HETATM   11  O   UNL     1      -6.576   3.563 -34.173  1.00  0.00    -0.264 OA
HETATM   12  N   UNL     1      -7.174   2.011 -32.540  1.00  0.00    -0.224 N 
HETATM   13  N   UNL     1      -8.164   1.394 -31.745  1.00  0.00    -0.180 NA
HETATM   14  C   UNL     1      -9.386   1.843 -31.767  1.00  0.00     0.153 A 
HETATM   15  C   UNL     1     -11.691   5.482 -34.265  1.00  0.00     0.031 A 
HETATM   16  C   UNL     1     -12.992   5.317 -33.773  1.00  0.00     0.009 A 
ENDROOT
BRANCH  12  17
HETATM   17  C   UNL     1      -5.901   1.312 -32.622  1.00  0.00     0.258 C 
BRANCH  17  18
HETATM   18  C   UNL     1      -5.813  -0.216 -32.806  1.00  0.00     0.244 C 
HETATM   19  N   UNL     1      -6.095  -0.814 -34.043  1.00  0.00    -0.321 N 
HETATM   20  C   UNL     1      -6.741  -0.098 -35.138  1.00  0.00     0.159 C 
HETATM   21  O   UNL     1      -5.349  -0.854 -31.848  1.00  0.00    -0.271 OA
BRANCH  19  22
HETATM   22  C   UNL     1      -5.786  -2.202 -34.272  1.00  0.00     0.036 A 
HETATM   23  C   UNL     1      -6.783  -3.111 -34.659  1.00  0.00     0.029 A 
HETATM   24  C   UNL     1      -6.498  -4.471 -34.829  1.00  0.00     0.002 A 
HETATM   25  C   UNL     1      -5.205  -4.943 -34.623  1.00  0.00     0.000 A 
HETATM   26  C   UNL     1      -4.200  -4.058 -34.247  1.00  0.00     0.002 A 
HETATM   27  C   UNL     1      -4.490  -2.700 -34.068  1.00  0.00     0.029 A 
ENDBRANCH  19  22
ENDBRANCH  17  18
ENDBRANCH  12  17
TORSDOF 3
ENDMDL
MODEL 10
REMARK VINA RESULT:      -7.8      4.151      9.192
REMARK  3 active torsions:
REMARK  status: ('A' for Active; 'I' for Inactive)
REMARK    1  A    between atoms: N_12  and  C_13 
REMARK    2  A    between atoms: C_13  and  C_14 
REMARK       I    between atoms: C_14  and  N_15 
REMARK    3  A    between atoms: N_15  and  C_16 
ROOT
HETATM    1  C   UNL     1     -15.411   2.639 -32.302  1.00  0.00     0.048 C 
HETATM    2  C   UNL     1     -14.135   2.261 -32.996  1.00  0.00    -0.061 A 
HETATM    3  C   UNL     1     -12.899   2.730 -32.521  1.00  0.00     0.021 A 
HETATM    4  C   UNL     1     -11.709   2.362 -33.182  1.00  0.00     0.005 A 
HETATM    5  C   UNL     1     -11.791   1.536 -34.309  1.00  0.00     0.044 A 
HETATM    6  N   UNL     1     -10.503   1.314 -34.754  1.00  0.00    -0.350 N 
HETATM    7  H   UNL     1     -10.245   0.741 -35.548  1.00  0.00     0.166 HD
HETATM    8  C   UNL     1      -9.618   1.965 -33.942  1.00  0.00     0.116 A 
HETATM    9  C   UNL     1     -10.333   2.625 -32.973  1.00  0.00     0.028 A 
HETATM   10  C   UNL     1      -8.187   1.982 -34.014  1.00  0.00     0.291 A 
HETATM   11  O   UNL     1      -7.554   1.360 -34.859  1.00  0.00    -0.264 OA
HETATM   12  N   UNL     1      -7.600   2.793 -33.022  1.00  0.00    -0.224 N 
HETATM   13  N   UNL     1      -8.323   3.452 -32.004  1.00  0.00    -0.180 NA
HETATM   14  C   UNL     1      -9.623   3.381 -31.983  1.00  0.00     0.153 A 
HETATM   15  C   UNL     1     -13.010   1.069 -34.809  1.00  0.00     0.031 A 
HETATM   16  C   UNL     1     -14.177   1.446 -34.133  1.00  0.00     0.009 A 
ENDROOT
BRANCH  12  17
HETATM   17  C   UNL     1      -6.157   2.741 -32.841  1.00  0.00     0.258 C 
BRANCH  17  18
HETATM   18  C   UNL     1      -5.244   3.937 -33.176  1.00  0.00     0.244 C 
HETATM   19  N   UNL     1      -3.972   4.060 -32.597  1.00  0.00    -0.321 N 
HETATM   20  C   UNL     1      -3.537   3.251 -31.464  1.00  0.00     0.159 C 
HETATM   21  O   UNL     1      -5.641   4.689 -34.078  1.00  0.00    -0.271 OA
BRANCH  19  22
HETATM   22  C   UNL     1      -3.038   5.041 -33.087  1.00  0.00     0.036 A 
HETATM   23  C   UNL     1      -2.120   4.724 -34.100  1.00  0.00     0.029 A 
HETATM   24  C   UNL     1      -1.175   5.657 -34.540  1.00  0.00     0.002 A 
HETATM   25  C   UNL     1      -1.136   6.929 -33.978  1.00  0.00     0.000 A 
HETATM   26  C   UNL     1      -2.042   7.267 -32.977  1.00  0.00     0.002 A 
HETATM   27  C   UNL     1      -2.981   6.328 -32.532  1.00  0.00     0.029 A 
ENDBRANCH  19  22
ENDBRANCH  17  18
ENDBRANCH  12  17
TORSDOF 3
ENDMDL
