MODEL 1
REMARK VINA RESULT:      -9.2      0.000      0.000
REMARK  8 active torsions:
REMARK  status: ('A' for Active; 'I' for Inactive)
REMARK    1  A    between atoms: O_2  and  C_3 
REMARK    2  A    between atoms: C_4  and  O_5 
REMARK    3  A    between atoms: C_8  and  C_9 
REMARK    4  A    between atoms: C_13  and  C_14 
REMARK       I    between atoms: C_14  and  N_15 
REMARK    5  A    between atoms: N_15  and  C_16 
REMARK    6  A    between atoms: C_20  and  C_21 
REMARK    7  A    between atoms: C_21  and  C_22 
REMARK    8  A    between atoms: C_22  and  C_23 
ROOT
HETATM    1  C   UNL     1      -2.243   4.271 -32.030  1.00  0.00     0.290 C 
HETATM    2  N   UNL     1      -3.144   3.483 -31.349  1.00  0.00    -0.149 N 
HETATM    3  O   UNL     1      -2.151   4.353 -33.251  1.00  0.00    -0.265 OA
HETATM    4  H   UNL     1      -3.075   3.344 -30.357  1.00  0.00     0.188 HD
ENDROOT
BRANCH   1   5
HETATM    5  C   UNL     1      -1.344   5.045 -31.136  1.00  0.00     0.147 A 
HETATM    6  N   UNL     1      -0.029   4.780 -31.067  1.00  0.00    -0.169 NA
HETATM    7  N   UNL     1       0.469   5.707 -30.243  1.00  0.00    -0.277 N 
HETATM    8  C   UNL     1      -0.463   6.568 -29.725  1.00  0.00     0.063 A 
HETATM    9  H   UNL     1       1.472   5.715 -30.096  1.00  0.00     0.189 HD
HETATM   10  C   UNL     1      -1.657   6.150 -30.288  1.00  0.00     0.071 A 
BRANCH   8  11
HETATM   11  C   UNL     1      -0.135   7.692 -28.845  1.00  0.00    -0.005 A 
HETATM   12  C   UNL     1      -1.109   8.625 -28.452  1.00  0.00     0.053 A 
HETATM   13  C   UNL     1      -0.800   9.669 -27.568  1.00  0.00     0.102 A 
HETATM   14  C   UNL     1       0.508   9.789 -27.067  1.00  0.00     0.101 A 
HETATM   15  C   UNL     1       1.490   8.887 -27.481  1.00  0.00     0.040 A 
HETATM   16  C   UNL     1       1.169   7.847 -28.358  1.00  0.00     0.017 A 
BRANCH  13  17
HETATM   17  O   UNL     1      -1.699  10.608 -27.126  1.00  0.00    -0.353 OA
HETATM   18  C   UNL     1      -2.651  10.211 -26.150  1.00  0.00     0.210 C 
ENDBRANCH  13  17
BRANCH  14  19
HETATM   19  O   UNL     1       0.747  10.834 -26.209  1.00  0.00    -0.353 OA
HETATM   20  C   UNL     1       1.206  10.488 -24.909  1.00  0.00     0.210 C 
ENDBRANCH  14  19
ENDBRANCH   8  11
ENDBRANCH   1   5
BRANCH   2  21
HETATM   21  C   UNL     1      -4.175   2.802 -31.925  1.00  0.00     0.747 A 
HETATM   22  N   UNL     1      -5.232   3.299 -32.563  1.00  0.00     0.020 NA
HETATM   23  N   UNL     1      -5.929   2.200 -32.858  1.00  0.00    -0.248 N 
HETATM   24  H   UNL     1      -6.811   2.291 -33.352  1.00  0.00     0.191 HD
HETATM   25  C   UNL     1      -5.295   1.076 -32.412  1.00  0.00     0.140 A 
HETATM   26  N   UNL     1      -4.182   1.436 -31.806  1.00  0.00    -0.046 NA
BRANCH  25  27
HETATM   27  C   UNL     1      -5.851  -0.295 -32.572  1.00  0.00     0.085 C 
BRANCH  27  28
HETATM   28  C   UNL     1      -5.998  -0.695 -34.043  1.00  0.00     0.046 C 
BRANCH  28  29
HETATM   29  C   UNL     1      -5.743  -2.166 -34.257  1.00  0.00    -0.058 A 
HETATM   30  C   UNL     1      -6.761  -3.003 -34.737  1.00  0.00     0.007 A 
HETATM   31  C   UNL     1      -6.526  -4.367 -34.923  1.00  0.00     0.001 A 
HETATM   32  C   UNL     1      -5.274  -4.906 -34.631  1.00  0.00     0.000 A 
HETATM   33  C   UNL     1      -4.257  -4.082 -34.152  1.00  0.00     0.001 A 
HETATM   34  C   UNL     1      -4.490  -2.720 -33.963  1.00  0.00     0.007 A 
ENDBRANCH  28  29
ENDBRANCH  27  28
ENDBRANCH  25  27
ENDBRANCH   2  21
TORSDOF 8
ENDMDL
MODEL 2
REMARK VINA RESULT:      -8.8      1.925      2.414
REMARK  8 active torsions:
REMARK  status: ('A' for Active; 'I' for Inactive)
REMARK    1  A    between atoms: O_2  and  C_3 
REMARK    2  A    between atoms: C_4  and  O_5 
REMARK    3  A    between atoms: C_8  and  C_9 
REMARK    4  A    between atoms: C_13  and  C_14 
REMARK       I    between atoms: C_14  and  N_15 
REMARK    5  A    between atoms: N_15  and  C_16 
REMARK    6  A    between atoms: C_20  and  C_21 
REMARK    7  A    between atoms: C_21  and  C_22 
REMARK    8  A    between atoms: C_22  and  C_23 
ROOT
HETATM    1  C   UNL     1      -4.904   4.453 -33.551  1.00  0.00     0.290 C 
HETATM    2  N   UNL     1      -5.167   3.400 -32.703  1.00  0.00    -0.149 N 
HETATM    3  O   UNL     1      -5.489   4.679 -34.606  1.00  0.00    -0.265 OA
HETATM    4  H   UNL     1      -4.560   3.183 -31.933  1.00  0.00     0.188 HD
ENDROOT
BRANCH   1   5
HETATM    5  C   UNL     1      -3.806   5.333 -33.076  1.00  0.00     0.147 A 
HETATM    6  N   UNL     1      -3.263   6.267 -33.874  1.00  0.00    -0.169 NA
HETATM    7  N   UNL     1      -2.381   6.911 -33.103  1.00  0.00    -0.277 N 
HETATM    8  C   UNL     1      -2.281   6.427 -31.826  1.00  0.00     0.063 A 
HETATM    9  H   UNL     1      -1.893   7.702 -33.508  1.00  0.00     0.189 HD
HETATM   10  C   UNL     1      -3.198   5.390 -31.786  1.00  0.00     0.071 A 
BRANCH   8  11
HETATM   11  C   UNL     1      -1.418   7.014 -30.796  1.00  0.00    -0.005 A 
HETATM   12  C   UNL     1      -1.872   8.051 -29.964  1.00  0.00     0.053 A 
HETATM   13  C   UNL     1      -1.060   8.573 -28.946  1.00  0.00     0.102 A 
HETATM   14  C   UNL     1       0.232   8.053 -28.756  1.00  0.00     0.101 A 
HETATM   15  C   UNL     1       0.703   7.048 -29.602  1.00  0.00     0.040 A 
HETATM   16  C   UNL     1      -0.118   6.531 -30.609  1.00  0.00     0.017 A 
BRANCH  13  17
HETATM   17  O   UNL     1      -1.437   9.572 -28.084  1.00  0.00    -0.353 OA
HETATM   18  C   UNL     1      -2.574   9.350 -27.262  1.00  0.00     0.210 C 
ENDBRANCH  13  17
BRANCH  14  19
HETATM   19  O   UNL     1       0.978   8.609 -27.745  1.00  0.00    -0.353 OA
HETATM   20  C   UNL     1       1.456   7.713 -26.750  1.00  0.00     0.210 C 
ENDBRANCH  14  19
ENDBRANCH   8  11
ENDBRANCH   1   5
BRANCH   2  21
HETATM   21  C   UNL     1      -6.221   2.545 -32.826  1.00  0.00     0.747 A 
HETATM   22  N   UNL     1      -7.477   2.728 -32.426  1.00  0.00     0.020 NA
HETATM   23  N   UNL     1      -8.049   1.564 -32.742  1.00  0.00    -0.248 N 
HETATM   24  H   UNL     1      -9.032   1.424 -32.534  1.00  0.00     0.191 HD
HETATM   25  C   UNL     1      -7.153   0.714 -33.324  1.00  0.00     0.140 A 
HETATM   26  N   UNL     1      -5.981   1.313 -33.378  1.00  0.00    -0.046 NA
BRANCH  25  27
HETATM   27  C   UNL     1      -7.499  -0.668 -33.756  1.00  0.00     0.085 C 
BRANCH  27  28
HETATM   28  C   UNL     1      -6.695  -1.113 -34.980  1.00  0.00     0.046 C 
BRANCH  28  29
HETATM   29  C   UNL     1      -6.020  -2.444 -34.760  1.00  0.00    -0.058 A 
HETATM   30  C   UNL     1      -6.689  -3.640 -35.060  1.00  0.00     0.007 A 
HETATM   31  C   UNL     1      -6.068  -4.871 -34.844  1.00  0.00     0.001 A 
HETATM   32  C   UNL     1      -4.775  -4.919 -34.327  1.00  0.00     0.000 A 
HETATM   33  C   UNL     1      -4.102  -3.737 -34.025  1.00  0.00     0.001 A 
HETATM   34  C   UNL     1      -4.722  -2.505 -34.237  1.00  0.00     0.007 A 
ENDBRANCH  28  29
ENDBRANCH  27  28
ENDBRANCH  25  27
ENDBRANCH   2  21
TORSDOF 8
ENDMDL
MODEL 3
REMARK VINA RESULT:      -8.8      1.614      2.051
REMARK  8 active torsions:
REMARK  status: ('A' for Active; 'I' for Inactive)
REMARK    1  A    between atoms: O_2  and  C_3 
REMARK    2  A    between atoms: C_4  and  O_5 
REMARK    3  A    between atoms: C_8  and  C_9 
REMARK    4  A    between atoms: C_13  and  C_14 
REMARK       I    between atoms: C_14  and  N_15 
REMARK    5  A    between atoms: N_15  and  C_16 
REMARK    6  A    between atoms: C_20  and  C_21 
REMARK    7  A    between atoms: C_21  and  C_22 
REMARK    8  A    between atoms: C_22  and  C_23 
ROOT
HETATM    1  C   UNL     1      -1.292   5.241 -31.021  1.00  0.00     0.290 C 
HETATM    2  N   UNL     1      -2.553   4.733 -30.799  1.00  0.00    -0.149 N 
HETATM    3  O   UNL     1      -0.495   4.824 -31.855  1.00  0.00    -0.265 OA
HETATM    4  H   UNL     1      -3.101   5.018 -30.007  1.00  0.00     0.188 HD
ENDROOT
BRANCH   1   5
HETATM    5  C   UNL     1      -0.950   6.379 -30.130  1.00  0.00     0.147 A 
HETATM    6  N   UNL     1      -1.472   7.602 -30.327  1.00  0.00    -0.169 NA
HETATM    7  N   UNL     1      -1.019   8.340 -29.308  1.00  0.00    -0.277 N 
HETATM    8  C   UNL     1      -0.184   7.674 -28.450  1.00  0.00     0.063 A 
HETATM    9  H   UNL     1      -1.345   9.297 -29.241  1.00  0.00     0.189 HD
HETATM   10  C   UNL     1      -0.118   6.393 -28.971  1.00  0.00     0.071 A 
BRANCH   8  11
HETATM   11  C   UNL     1       0.385   8.270 -27.238  1.00  0.00    -0.005 A 
HETATM   12  C   UNL     1      -0.383   9.092 -26.396  1.00  0.00     0.053 A 
HETATM   13  C   UNL     1       0.151   9.617 -25.210  1.00  0.00     0.102 A 
HETATM   14  C   UNL     1       1.479   9.321 -24.858  1.00  0.00     0.101 A 
HETATM   15  C   UNL     1       2.260   8.535 -25.708  1.00  0.00     0.040 A 
HETATM   16  C   UNL     1       1.714   8.012 -26.884  1.00  0.00     0.017 A 
BRANCH  13  17
HETATM   17  O   UNL     1      -0.539  10.413 -24.330  1.00  0.00    -0.353 OA
HETATM   18  C   UNL     1      -1.563   9.812 -23.551  1.00  0.00     0.210 C 
ENDBRANCH  13  17
BRANCH  14  19
HETATM   19  O   UNL     1       1.944   9.868 -23.687  1.00  0.00    -0.353 OA
HETATM   20  C   UNL     1       3.355  10.002 -23.571  1.00  0.00     0.210 C 
ENDBRANCH  14  19
ENDBRANCH   8  11
ENDBRANCH   1   5
BRANCH   2  21
HETATM   21  C   UNL     1      -3.166   3.799 -31.579  1.00  0.00     0.747 A 
HETATM   22  N   UNL     1      -3.931   3.998 -32.650  1.00  0.00     0.020 NA
HETATM   23  N   UNL     1      -4.300   2.757 -32.971  1.00  0.00    -0.248 N 
HETATM   24  H   UNL     1      -4.911   2.614 -33.768  1.00  0.00     0.191 HD
HETATM   25  C   UNL     1      -3.759   1.841 -32.114  1.00  0.00     0.140 A 
HETATM   26  N   UNL     1      -3.042   2.483 -31.215  1.00  0.00    -0.046 NA
BRANCH  25  27
HETATM   27  C   UNL     1      -4.020   0.379 -32.208  1.00  0.00     0.085 C 
BRANCH  27  28
HETATM   28  C   UNL     1      -5.449   0.072 -32.666  1.00  0.00     0.046 C 
BRANCH  28  29
HETATM   29  C   UNL     1      -5.522  -1.199 -33.474  1.00  0.00    -0.058 A 
HETATM   30  C   UNL     1      -6.761  -1.706 -33.894  1.00  0.00     0.007 A 
HETATM   31  C   UNL     1      -6.827  -2.889 -34.632  1.00  0.00     0.001 A 
HETATM   32  C   UNL     1      -5.659  -3.576 -34.957  1.00  0.00     0.000 A 
HETATM   33  C   UNL     1      -4.424  -3.082 -34.542  1.00  0.00     0.001 A 
HETATM   34  C   UNL     1      -4.355  -1.901 -33.802  1.00  0.00     0.007 A 
ENDBRANCH  28  29
ENDBRANCH  27  28
ENDBRANCH  25  27
ENDBRANCH   2  21
TORSDOF 8
ENDMDL
MODEL 4
REMARK VINA RESULT:      -8.7      2.502     12.182
REMARK  8 active torsions:
REMARK  status: ('A' for Active; 'I' for Inactive)
REMARK    1  A    between atoms: O_2  and  C_3 
REMARK    2  A    between atoms: C_4  and  O_5 
REMARK    3  A    between atoms: C_8  and  C_9 
REMARK    4  A    between atoms: C_13  and  C_14 
REMARK       I    between atoms: C_14  and  N_15 
REMARK    5  A    between atoms: N_15  and  C_16 
REMARK    6  A    between atoms: C_20  and  C_21 
REMARK    7  A    between atoms: C_21  and  C_22 
REMARK    8  A    between atoms: C_22  and  C_23 
ROOT
HETATM    1  C   UNL     1      -3.565   4.612 -31.396  1.00  0.00     0.290 C 
HETATM    2  N   UNL     1      -2.225   4.423 -31.141  1.00  0.00    -0.149 N 
HETATM    3  O   UNL     1      -4.151   5.690 -31.355  1.00  0.00    -0.265 OA
HETATM    4  H   UNL     1      -1.834   3.503 -31.044  1.00  0.00     0.188 HD
ENDROOT
BRANCH   1   5
HETATM    5  C   UNL     1      -4.284   3.357 -31.733  1.00  0.00     0.147 A 
HETATM    6  N   UNL     1      -5.603   3.227 -31.515  1.00  0.00    -0.169 NA
HETATM    7  N   UNL     1      -5.918   2.024 -32.005  1.00  0.00    -0.277 N 
HETATM    8  C   UNL     1      -4.858   1.321 -32.514  1.00  0.00     0.063 A 
HETATM    9  H   UNL     1      -6.894   1.750 -31.986  1.00  0.00     0.189 HD
HETATM   10  C   UNL     1      -3.777   2.169 -32.341  1.00  0.00     0.071 A 
BRANCH   8  11
HETATM   11  C   UNL     1      -4.980   0.006 -33.150  1.00  0.00    -0.005 A 
HETATM   12  C   UNL     1      -4.122  -1.054 -32.813  1.00  0.00     0.053 A 
HETATM   13  C   UNL     1      -4.278  -2.325 -33.387  1.00  0.00     0.102 A 
HETATM   14  C   UNL     1      -5.308  -2.542 -34.319  1.00  0.00     0.101 A 
HETATM   15  C   UNL     1      -6.142  -1.484 -34.686  1.00  0.00     0.040 A 
HETATM   16  C   UNL     1      -5.981  -0.223 -34.102  1.00  0.00     0.017 A 
BRANCH  13  17
HETATM   17  O   UNL     1      -3.492  -3.412 -33.098  1.00  0.00    -0.353 OA
HETATM   18  C   UNL     1      -2.940  -3.507 -31.793  1.00  0.00     0.210 C 
ENDBRANCH  13  17
BRANCH  14  19
HETATM   19  O   UNL     1      -5.405  -3.806 -34.847  1.00  0.00    -0.353 OA
HETATM   20  C   UNL     1      -6.713  -4.362 -34.910  1.00  0.00     0.210 C 
ENDBRANCH  14  19
ENDBRANCH   8  11
ENDBRANCH   1   5
BRANCH   2  21
HETATM   21  C   UNL     1      -1.316   5.423 -30.965  1.00  0.00     0.747 A 
HETATM   22  N   UNL     1      -0.328   5.787 -31.779  1.00  0.00     0.020 NA
HETATM   23  N   UNL     1       0.266   6.762 -31.088  1.00  0.00    -0.248 N 
HETATM   24  H   UNL     1       1.078   7.224 -31.484  1.00  0.00     0.191 HD
HETATM   25  C   UNL     1      -0.360   6.976 -29.894  1.00  0.00     0.140 A 
HETATM   26  N   UNL     1      -1.364   6.128 -29.790  1.00  0.00    -0.046 NA
BRANCH  25  27
HETATM   27  C   UNL     1       0.099   7.982 -28.898  1.00  0.00     0.085 C 
BRANCH  27  28
HETATM   28  C   UNL     1       0.994   7.367 -27.819  1.00  0.00     0.046 C 
BRANCH  28  29
HETATM   29  C   UNL     1       1.071   8.233 -26.587  1.00  0.00    -0.058 A 
HETATM   30  C   UNL     1       2.234   8.256 -25.804  1.00  0.00     0.007 A 
HETATM   31  C   UNL     1       2.299   9.049 -24.656  1.00  0.00     0.001 A 
HETATM   32  C   UNL     1       1.204   9.825 -24.282  1.00  0.00     0.000 A 
HETATM   33  C   UNL     1       0.043   9.808 -25.052  1.00  0.00     0.001 A 
HETATM   34  C   UNL     1      -0.026   9.013 -26.198  1.00  0.00     0.007 A 
ENDBRANCH  28  29
ENDBRANCH  27  28
ENDBRANCH  25  27
ENDBRANCH   2  21
TORSDOF 8
ENDMDL
MODEL 5
REMARK VINA RESULT:      -8.4      3.986     11.622
REMARK  8 active torsions:
REMARK  status: ('A' for Active; 'I' for Inactive)
REMARK    1  A    between atoms: O_2  and  C_3 
REMARK    2  A    between atoms: C_4  and  O_5 
REMARK    3  A    between atoms: C_8  and  C_9 
REMARK    4  A    between atoms: C_13  and  C_14 
REMARK       I    between atoms: C_14  and  N_15 
REMARK    5  A    between atoms: N_15  and  C_16 
REMARK    6  A    between atoms: C_20  and  C_21 
REMARK    7  A    between atoms: C_21  and  C_22 
REMARK    8  A    between atoms: C_22  and  C_23 
ROOT
HETATM    1  C   UNL     1      -3.683   2.028 -31.993  1.00  0.00     0.290 C 
HETATM    2  N   UNL     1      -3.513   3.196 -32.701  1.00  0.00    -0.149 N 
HETATM    3  O   UNL     1      -2.838   1.504 -31.272  1.00  0.00    -0.265 OA
HETATM    4  H   UNL     1      -4.182   3.496 -33.387  1.00  0.00     0.188 HD
ENDROOT
BRANCH   1   5
HETATM    5  C   UNL     1      -5.022   1.415 -32.180  1.00  0.00     0.147 A 
HETATM    6  N   UNL     1      -5.317   0.208 -31.667  1.00  0.00    -0.169 NA
HETATM    7  N   UNL     1      -6.609   0.016 -31.954  1.00  0.00    -0.277 N 
HETATM    8  C   UNL     1      -7.189   1.029 -32.672  1.00  0.00     0.063 A 
HETATM    9  H   UNL     1      -7.047  -0.827 -31.602  1.00  0.00     0.189 HD
HETATM   10  C   UNL     1      -6.170   1.951 -32.837  1.00  0.00     0.071 A 
BRANCH   8  11
HETATM   11  C   UNL     1      -8.606   1.054 -33.048  1.00  0.00    -0.005 A 
HETATM   12  C   UNL     1      -9.113   2.026 -33.927  1.00  0.00     0.053 A 
HETATM   13  C   UNL     1     -10.459   2.013 -34.325  1.00  0.00     0.102 A 
HETATM   14  C   UNL     1     -11.316   1.013 -33.834  1.00  0.00     0.101 A 
HETATM   15  C   UNL     1     -10.828   0.065 -32.932  1.00  0.00     0.040 A 
HETATM   16  C   UNL     1      -9.483   0.085 -32.548  1.00  0.00     0.017 A 
BRANCH  13  17
HETATM   17  O   UNL     1     -11.024   2.916 -35.190  1.00  0.00    -0.353 OA
HETATM   18  C   UNL     1     -10.665   4.283 -35.054  1.00  0.00     0.210 C 
ENDBRANCH  13  17
BRANCH  14  19
HETATM   19  O   UNL     1     -12.622   1.057 -34.258  1.00  0.00    -0.353 OA
HETATM   20  C   UNL     1     -13.485   0.051 -33.744  1.00  0.00     0.210 C 
ENDBRANCH  14  19
ENDBRANCH   8  11
ENDBRANCH   1   5
BRANCH   2  21
HETATM   21  C   UNL     1      -2.443   4.032 -32.581  1.00  0.00     0.747 A 
HETATM   22  N   UNL     1      -1.790   4.674 -33.546  1.00  0.00     0.020 NA
HETATM   23  N   UNL     1      -0.816   5.288 -32.872  1.00  0.00    -0.248 N 
HETATM   24  H   UNL     1      -0.146   5.857 -33.379  1.00  0.00     0.191 HD
HETATM   25  C   UNL     1      -0.894   5.021 -31.535  1.00  0.00     0.140 A 
HETATM   26  N   UNL     1      -1.917   4.217 -31.328  1.00  0.00    -0.046 NA
BRANCH  25  27
HETATM   27  C   UNL     1       0.078   5.546 -30.538  1.00  0.00     0.085 C 
BRANCH  27  28
HETATM   28  C   UNL     1      -0.255   6.974 -30.096  1.00  0.00     0.046 C 
BRANCH  28  29
HETATM   29  C   UNL     1       0.185   7.243 -28.678  1.00  0.00    -0.058 A 
HETATM   30  C   UNL     1      -0.437   6.591 -27.604  1.00  0.00     0.007 A 
HETATM   31  C   UNL     1      -0.037   6.852 -26.292  1.00  0.00     0.001 A 
HETATM   32  C   UNL     1       0.986   7.764 -26.042  1.00  0.00     0.000 A 
HETATM   33  C   UNL     1       1.609   8.419 -27.103  1.00  0.00     0.001 A 
HETATM   34  C   UNL     1       1.209   8.163 -28.415  1.00  0.00     0.007 A 
ENDBRANCH  28  29
ENDBRANCH  27  28
ENDBRANCH  25  27
ENDBRANCH   2  21
TORSDOF 8
ENDMDL
MODEL 6
REMARK VINA RESULT:      -8.3      7.843     11.597
REMARK  8 active torsions:
REMARK  status: ('A' for Active; 'I' for Inactive)
REMARK    1  A    between atoms: O_2  and  C_3 
REMARK    2  A    between atoms: C_4  and  O_5 
REMARK    3  A    between atoms: C_8  and  C_9 
REMARK    4  A    between atoms: C_13  and  C_14 
REMARK       I    between atoms: C_14  and  N_15 
REMARK    5  A    between atoms: N_15  and  C_16 
REMARK    6  A    between atoms: C_20  and  C_21 
REMARK    7  A    between atoms: C_21  and  C_22 
REMARK    8  A    between atoms: C_22  and  C_23 
ROOT
HETATM    1  C   UNL     1      -9.432   1.597 -33.379  1.00  0.00     0.290 C 
HETATM    2  N   UNL     1      -8.828   1.505 -32.144  1.00  0.00    -0.149 N 
HETATM    3  O   UNL     1      -8.844   1.660 -34.454  1.00  0.00    -0.265 OA
HETATM    4  H   UNL     1      -9.354   1.606 -31.295  1.00  0.00     0.188 HD
ENDROOT
BRANCH   1   5
HETATM    5  C   UNL     1     -10.915   1.622 -33.309  1.00  0.00     0.147 A 
HETATM    6  N   UNL     1     -11.648   0.537 -33.610  1.00  0.00    -0.169 NA
HETATM    7  N   UNL     1     -12.912   0.893 -33.361  1.00  0.00    -0.277 N 
HETATM    8  C   UNL     1     -13.067   2.187 -32.937  1.00  0.00     0.063 A 
HETATM    9  H   UNL     1     -13.630   0.186 -33.475  1.00  0.00     0.189 HD
HETATM   10  C   UNL     1     -11.776   2.685 -32.902  1.00  0.00     0.071 A 
BRANCH   8  11
HETATM   11  C   UNL     1     -14.355   2.772 -32.555  1.00  0.00    -0.005 A 
HETATM   12  C   UNL     1     -14.470   4.129 -32.211  1.00  0.00     0.053 A 
HETATM   13  C   UNL     1     -15.715   4.695 -31.897  1.00  0.00     0.102 A 
HETATM   14  C   UNL     1     -16.868   3.891 -31.923  1.00  0.00     0.101 A 
HETATM   15  C   UNL     1     -16.756   2.533 -32.229  1.00  0.00     0.040 A 
HETATM   16  C   UNL     1     -15.511   1.982 -32.546  1.00  0.00     0.017 A 
BRANCH  13  17
HETATM   17  O   UNL     1     -15.911   6.013 -31.567  1.00  0.00    -0.353 OA
HETATM   18  C   UNL     1     -15.016   6.975 -32.106  1.00  0.00     0.210 C 
ENDBRANCH  13  17
BRANCH  14  19
HETATM   19  O   UNL     1     -18.055   4.504 -31.603  1.00  0.00    -0.353 OA
HETATM   20  C   UNL     1     -18.953   4.736 -32.681  1.00  0.00     0.210 C 
ENDBRANCH  14  19
ENDBRANCH   8  11
ENDBRANCH   1   5
BRANCH   2  21
HETATM   21  C   UNL     1      -7.495   1.306 -31.941  1.00  0.00     0.747 A 
HETATM   22  N   UNL     1      -6.577   2.201 -31.587  1.00  0.00     0.020 NA
HETATM   23  N   UNL     1      -5.456   1.477 -31.593  1.00  0.00    -0.248 N 
HETATM   24  H   UNL     1      -4.576   1.926 -31.361  1.00  0.00     0.191 HD
HETATM   25  C   UNL     1      -5.706   0.179 -31.937  1.00  0.00     0.140 A 
HETATM   26  N   UNL     1      -6.996   0.051 -32.172  1.00  0.00    -0.046 NA
BRANCH  25  27
HETATM   27  C   UNL     1      -4.643  -0.855 -32.057  1.00  0.00     0.085 C 
BRANCH  27  28
HETATM   28  C   UNL     1      -4.272  -1.142 -33.515  1.00  0.00     0.046 C 
BRANCH  28  29
HETATM   29  C   UNL     1      -4.889  -2.426 -34.012  1.00  0.00    -0.058 A 
HETATM   30  C   UNL     1      -4.162  -3.624 -33.978  1.00  0.00     0.007 A 
HETATM   31  C   UNL     1      -4.730  -4.809 -34.451  1.00  0.00     0.001 A 
HETATM   32  C   UNL     1      -6.027  -4.807 -34.960  1.00  0.00     0.000 A 
HETATM   33  C   UNL     1      -6.757  -3.620 -34.999  1.00  0.00     0.001 A 
HETATM   34  C   UNL     1      -6.190  -2.434 -34.530  1.00  0.00     0.007 A 
ENDBRANCH  28  29
ENDBRANCH  27  28
ENDBRANCH  25  27
ENDBRANCH   2  21
TORSDOF 8
ENDMDL
MODEL 7
REMARK VINA RESULT:      -8.2      1.993      2.752
REMARK  8 active torsions:
REMARK  status: ('A' for Active; 'I' for Inactive)
REMARK    1  A    between atoms: O_2  and  C_3 
REMARK    2  A    between atoms: C_4  and  O_5 
REMARK    3  A    between atoms: C_8  and  C_9 
REMARK    4  A    between atoms: C_13  and  C_14 
REMARK       I    between atoms: C_14  and  N_15 
REMARK    5  A    between atoms: N_15  and  C_16 
REMARK    6  A    between atoms: C_20  and  C_21 
REMARK    7  A    between atoms: C_21  and  C_22 
REMARK    8  A    between atoms: C_22  and  C_23 
ROOT
HETATM    1  C   UNL     1      -4.240   5.211 -33.967  1.00  0.00     0.290 C 
HETATM    2  N   UNL     1      -4.800   4.253 -33.151  1.00  0.00    -0.149 N 
HETATM    3  O   UNL     1      -4.395   5.288 -35.182  1.00  0.00    -0.265 OA
HETATM    4  H   UNL     1      -4.520   4.152 -32.192  1.00  0.00     0.188 HD
ENDROOT
BRANCH   1   5
HETATM    5  C   UNL     1      -3.387   6.182 -33.236  1.00  0.00     0.147 A 
HETATM    6  N   UNL     1      -2.553   7.010 -33.888  1.00  0.00    -0.169 NA
HETATM    7  N   UNL     1      -2.020   7.784 -32.938  1.00  0.00    -0.277 N 
HETATM    8  C   UNL     1      -2.434   7.489 -31.665  1.00  0.00     0.063 A 
HETATM    9  H   UNL     1      -1.393   8.524 -33.232  1.00  0.00     0.189 HD
HETATM   10  C   UNL     1      -3.322   6.441 -31.834  1.00  0.00     0.071 A 
BRANCH   8  11
HETATM   11  C   UNL     1      -2.020   8.243 -30.478  1.00  0.00    -0.005 A 
HETATM   12  C   UNL     1      -0.965   7.803 -29.661  1.00  0.00     0.053 A 
HETATM   13  C   UNL     1      -0.540   8.556 -28.556  1.00  0.00     0.102 A 
HETATM   14  C   UNL     1      -1.182   9.770 -28.257  1.00  0.00     0.101 A 
HETATM   15  C   UNL     1      -2.254  10.196 -29.043  1.00  0.00     0.040 A 
HETATM   16  C   UNL     1      -2.665   9.440 -30.146  1.00  0.00     0.017 A 
BRANCH  13  17
HETATM   17  O   UNL     1       0.491   8.201 -27.722  1.00  0.00    -0.353 OA
HETATM   18  C   UNL     1       0.510   6.876 -27.212  1.00  0.00     0.210 C 
ENDBRANCH  13  17
BRANCH  14  19
HETATM   19  O   UNL     1      -0.721  10.458 -27.161  1.00  0.00    -0.353 OA
HETATM   20  C   UNL     1      -1.579  10.484 -26.028  1.00  0.00     0.210 C 
ENDBRANCH  14  19
ENDBRANCH   8  11
ENDBRANCH   1   5
BRANCH   2  21
HETATM   21  C   UNL     1      -5.741   3.349 -33.543  1.00  0.00     0.747 A 
HETATM   22  N   UNL     1      -7.002   3.579 -33.900  1.00  0.00     0.020 NA
HETATM   23  N   UNL     1      -7.465   2.347 -34.122  1.00  0.00    -0.248 N 
HETATM   24  H   UNL     1      -8.431   2.225 -34.408  1.00  0.00     0.191 HD
HETATM   25  C   UNL     1      -6.497   1.408 -33.908  1.00  0.00     0.140 A 
HETATM   26  N   UNL     1      -5.395   2.022 -33.529  1.00  0.00    -0.046 NA
BRANCH  25  27
HETATM   27  C   UNL     1      -6.731  -0.055 -34.049  1.00  0.00     0.085 C 
BRANCH  27  28
HETATM   28  C   UNL     1      -5.547  -0.885 -33.543  1.00  0.00     0.046 C 
BRANCH  28  29
HETATM   29  C   UNL     1      -5.602  -2.308 -34.038  1.00  0.00    -0.058 A 
HETATM   30  C   UNL     1      -4.469  -3.131 -33.968  1.00  0.00     0.007 A 
HETATM   31  C   UNL     1      -4.518  -4.445 -34.439  1.00  0.00     0.001 A 
HETATM   32  C   UNL     1      -5.698  -4.947 -34.983  1.00  0.00     0.000 A 
HETATM   33  C   UNL     1      -6.830  -4.137 -35.059  1.00  0.00     0.001 A 
HETATM   34  C   UNL     1      -6.782  -2.823 -34.592  1.00  0.00     0.007 A 
ENDBRANCH  28  29
ENDBRANCH  27  28
ENDBRANCH  25  27
ENDBRANCH   2  21
TORSDOF 8
ENDMDL
MODEL 8
REMARK VINA RESULT:      -8.2      5.013     11.824
REMARK  8 active torsions:
REMARK  status: ('A' for Active; 'I' for Inactive)
REMARK    1  A    between atoms: O_2  and  C_3 
REMARK    2  A    between atoms: C_4  and  O_5 
REMARK    3  A    between atoms: C_8  and  C_9 
REMARK    4  A    between atoms: C_13  and  C_14 
REMARK       I    between atoms: C_14  and  N_15 
REMARK    5  A    between atoms: N_15  and  C_16 
REMARK    6  A    between atoms: C_20  and  C_21 
REMARK    7  A    between atoms: C_21  and  C_22 
REMARK    8  A    between atoms: C_22  and  C_23 
ROOT
HETATM    1  C   UNL     1      -5.095   3.702 -33.111  1.00  0.00     0.290 C 
HETATM    2  N   UNL     1      -5.074   4.968 -33.654  1.00  0.00    -0.149 N 
HETATM    3  O   UNL     1      -4.106   3.048 -32.795  1.00  0.00    -0.265 OA
HETATM    4  H   UNL     1      -5.904   5.392 -34.028  1.00  0.00     0.188 HD
ENDROOT
BRANCH   1   5
HETATM    5  C   UNL     1      -6.466   3.159 -32.935  1.00  0.00     0.147 A 
HETATM    6  N   UNL     1      -6.921   2.787 -31.727  1.00  0.00    -0.169 NA
HETATM    7  N   UNL     1      -8.195   2.434 -31.930  1.00  0.00    -0.277 N 
HETATM    8  C   UNL     1      -8.609   2.521 -33.234  1.00  0.00     0.063 A 
HETATM    9  H   UNL     1      -8.743   2.167 -31.120  1.00  0.00     0.189 HD
HETATM   10  C   UNL     1      -7.494   2.986 -33.910  1.00  0.00     0.071 A 
BRANCH   8  11
HETATM   11  C   UNL     1      -9.977   2.237 -33.675  1.00  0.00    -0.005 A 
HETATM   12  C   UNL     1     -10.663   3.106 -34.541  1.00  0.00     0.053 A 
HETATM   13  C   UNL     1     -11.953   2.802 -35.001  1.00  0.00     0.102 A 
HETATM   14  C   UNL     1     -12.573   1.610 -34.588  1.00  0.00     0.101 A 
HETATM   15  C   UNL     1     -11.912   0.760 -33.700  1.00  0.00     0.040 A 
HETATM   16  C   UNL     1     -10.624   1.070 -33.252  1.00  0.00     0.017 A 
BRANCH  13  17
HETATM   17  O   UNL     1     -12.680   3.590 -35.859  1.00  0.00    -0.353 OA
HETATM   18  C   UNL     1     -12.784   4.975 -35.564  1.00  0.00     0.210 C 
ENDBRANCH  13  17
BRANCH  14  19
HETATM   19  O   UNL     1     -13.837   1.373 -35.072  1.00  0.00    -0.353 OA
HETATM   20  C   UNL     1     -14.745   0.744 -34.177  1.00  0.00     0.210 C 
ENDBRANCH  14  19
ENDBRANCH   8  11
ENDBRANCH   1   5
BRANCH   2  21
HETATM   21  C   UNL     1      -3.963   5.748 -33.770  1.00  0.00     0.747 A 
HETATM   22  N   UNL     1      -3.190   5.923 -34.839  1.00  0.00     0.020 NA
HETATM   23  N   UNL     1      -2.234   6.727 -34.372  1.00  0.00    -0.248 N 
HETATM   24  H   UNL     1      -1.487   7.021 -34.993  1.00  0.00     0.191 HD
HETATM   25  C   UNL     1      -2.439   7.028 -33.056  1.00  0.00     0.140 A 
HETATM   26  N   UNL     1      -3.528   6.407 -32.649  1.00  0.00    -0.046 NA
BRANCH  25  27
HETATM   27  C   UNL     1      -1.516   7.881 -32.259  1.00  0.00     0.085 C 
BRANCH  27  28
HETATM   28  C   UNL     1      -1.996   8.067 -30.816  1.00  0.00     0.046 C 
BRANCH  28  29
HETATM   29  C   UNL     1      -0.994   7.547 -29.816  1.00  0.00    -0.058 A 
HETATM   30  C   UNL     1      -0.513   6.233 -29.908  1.00  0.00     0.007 A 
HETATM   31  C   UNL     1       0.405   5.749 -28.973  1.00  0.00     0.001 A 
HETATM   32  C   UNL     1       0.850   6.572 -27.941  1.00  0.00     0.000 A 
HETATM   33  C   UNL     1       0.376   7.879 -27.840  1.00  0.00     0.001 A 
HETATM   34  C   UNL     1      -0.544   8.364 -28.771  1.00  0.00     0.007 A 
ENDBRANCH  28  29
ENDBRANCH  27  28
ENDBRANCH  25  27
ENDBRANCH   2  21
TORSDOF 8
ENDMDL
MODEL 9
REMARK VINA RESULT:      -8.0      2.625     12.315
REMARK  8 active torsions:
REMARK  status: ('A' for Active; 'I' for Inactive)
REMARK    1  A    between atoms: O_2  and  C_3 
REMARK    2  A    between atoms: C_4  and  O_5 
REMARK    3  A    between atoms: C_8  and  C_9 
REMARK    4  A    between atoms: C_13  and  C_14 
REMARK       I    between atoms: C_14  and  N_15 
REMARK    5  A    between atoms: N_15  and  C_16 
REMARK    6  A    between atoms: C_20  and  C_21 
REMARK    7  A    between atoms: C_21  and  C_22 
REMARK    8  A    between atoms: C_22  and  C_23 
ROOT
HETATM    1  C   UNL     1      -1.938   4.703 -31.367  1.00  0.00     0.290 C 
HETATM    2  N   UNL     1      -2.067   5.588 -30.319  1.00  0.00    -0.149 N 
HETATM    3  O   UNL     1      -0.970   4.627 -32.118  1.00  0.00    -0.265 OA
HETATM    4  H   UNL     1      -2.939   5.703 -29.835  1.00  0.00     0.188 HD
ENDROOT
BRANCH   1   5
HETATM    5  C   UNL     1      -3.115   3.813 -31.535  1.00  0.00     0.147 A 
HETATM    6  N   UNL     1      -4.341   4.193 -31.139  1.00  0.00    -0.169 NA
HETATM    7  N   UNL     1      -5.150   3.197 -31.514  1.00  0.00    -0.277 N 
HETATM    8  C   UNL     1      -4.514   2.143 -32.116  1.00  0.00     0.063 A 
HETATM    9  H   UNL     1      -6.144   3.313 -31.353  1.00  0.00     0.189 HD
HETATM   10  C   UNL     1      -3.182   2.519 -32.134  1.00  0.00     0.071 A 
BRANCH   8  11
HETATM   11  C   UNL     1      -5.210   0.970 -32.654  1.00  0.00    -0.005 A 
HETATM   12  C   UNL     1      -6.612   0.921 -32.730  1.00  0.00     0.053 A 
HETATM   13  C   UNL     1      -7.270  -0.182 -33.294  1.00  0.00     0.102 A 
HETATM   14  C   UNL     1      -6.515  -1.261 -33.788  1.00  0.00     0.101 A 
HETATM   15  C   UNL     1      -5.123  -1.234 -33.683  1.00  0.00     0.040 A 
HETATM   16  C   UNL     1      -4.478  -0.126 -33.125  1.00  0.00     0.017 A 
BRANCH  13  17
HETATM   17  O   UNL     1      -8.632  -0.298 -33.419  1.00  0.00    -0.353 OA
HETATM   18  C   UNL     1      -9.385   0.889 -33.620  1.00  0.00     0.210 C 
ENDBRANCH  13  17
BRANCH  14  19
HETATM   19  O   UNL     1      -7.218  -2.311 -34.325  1.00  0.00    -0.353 OA
HETATM   20  C   UNL     1      -6.455  -3.448 -34.710  1.00  0.00     0.210 C 
ENDBRANCH  14  19
ENDBRANCH   8  11
ENDBRANCH   1   5
BRANCH   2  21
HETATM   21  C   UNL     1      -1.074   6.398 -29.856  1.00  0.00     0.747 A 
HETATM   22  N   UNL     1      -0.418   7.351 -30.515  1.00  0.00     0.020 NA
HETATM   23  N   UNL     1       0.466   7.768 -29.607  1.00  0.00    -0.248 N 
HETATM   24  H   UNL     1       1.118   8.506 -29.854  1.00  0.00     0.191 HD
HETATM   25  C   UNL     1       0.332   7.083 -28.433  1.00  0.00     0.140 A 
HETATM   26  N   UNL     1      -0.635   6.199 -28.573  1.00  0.00    -0.046 NA
BRANCH  25  27
HETATM   27  C   UNL     1       1.203   7.312 -27.248  1.00  0.00     0.085 C 
BRANCH  27  28
HETATM   28  C   UNL     1       1.754   8.740 -27.199  1.00  0.00     0.046 C 
BRANCH  28  29
HETATM   29  C   UNL     1       1.876   9.250 -25.785  1.00  0.00    -0.058 A 
HETATM   30  C   UNL     1       2.525   8.485 -24.805  1.00  0.00     0.007 A 
HETATM   31  C   UNL     1       2.626   8.954 -23.494  1.00  0.00     0.001 A 
HETATM   32  C   UNL     1       2.080  10.188 -23.150  1.00  0.00     0.000 A 
HETATM   33  C   UNL     1       1.430  10.955 -24.116  1.00  0.00     0.001 A 
HETATM   34  C   UNL     1       1.326  10.488 -25.426  1.00  0.00     0.007 A 
ENDBRANCH  28  29
ENDBRANCH  27  28
ENDBRANCH  25  27
ENDBRANCH   2  21
TORSDOF 8
ENDMDL
MODEL 10
REMARK VINA RESULT:      -7.7      3.776      4.775
REMARK  8 active torsions:
REMARK  status: ('A' for Active; 'I' for Inactive)
REMARK    1  A    between atoms: O_2  and  C_3 
REMARK    2  A    between atoms: C_4  and  O_5 
REMARK    3  A    between atoms: C_8  and  C_9 
REMARK    4  A    between atoms: C_13  and  C_14 
REMARK       I    between atoms: C_14  and  N_15 
REMARK    5  A    between atoms: N_15  and  C_16 
REMARK    6  A    between atoms: C_20  and  C_21 
REMARK    7  A    between atoms: C_21  and  C_22 
REMARK    8  A    between atoms: C_22  and  C_23 
ROOT
HETATM    1  C   UNL     1      -5.063   4.401 -33.622  1.00  0.00     0.290 C 
HETATM    2  N   UNL     1      -5.263   3.222 -32.939  1.00  0.00    -0.149 N 
HETATM    3  O   UNL     1      -5.695   4.766 -34.609  1.00  0.00    -0.265 OA
HETATM    4  H   UNL     1      -4.621   2.909 -32.233  1.00  0.00     0.188 HD
ENDROOT
BRANCH   1   5
HETATM    5  C   UNL     1      -3.971   5.232 -33.055  1.00  0.00     0.147 A 
HETATM    6  N   UNL     1      -3.503   6.311 -33.706  1.00  0.00    -0.169 NA
HETATM    7  N   UNL     1      -2.603   6.851 -32.879  1.00  0.00    -0.277 N 
HETATM    8  C   UNL     1      -2.417   6.161 -31.710  1.00  0.00     0.063 A 
HETATM    9  H   UNL     1      -2.164   7.719 -33.165  1.00  0.00     0.189 HD
HETATM   10  C   UNL     1      -3.296   5.095 -31.806  1.00  0.00     0.071 A 
BRANCH   8  11
HETATM   11  C   UNL     1      -1.521   6.600 -30.637  1.00  0.00    -0.005 A 
HETATM   12  C   UNL     1      -2.017   6.993 -29.382  1.00  0.00     0.053 A 
HETATM   13  C   UNL     1      -1.150   7.362 -28.343  1.00  0.00     0.102 A 
HETATM   14  C   UNL     1       0.239   7.344 -28.559  1.00  0.00     0.101 A 
HETATM   15  C   UNL     1       0.737   6.990 -29.814  1.00  0.00     0.040 A 
HETATM   16  C   UNL     1      -0.136   6.618 -30.841  1.00  0.00     0.017 A 
BRANCH  13  17
HETATM   17  O   UNL     1      -1.556   7.742 -27.088  1.00  0.00    -0.353 OA
HETATM   18  C   UNL     1      -2.356   6.834 -26.343  1.00  0.00     0.210 C 
ENDBRANCH  13  17
BRANCH  14  19
HETATM   19  O   UNL     1       1.032   7.720 -27.503  1.00  0.00    -0.353 OA
HETATM   20  C   UNL     1       1.760   8.931 -27.663  1.00  0.00     0.210 C 
ENDBRANCH  14  19
ENDBRANCH   8  11
ENDBRANCH   1   5
BRANCH   2  21
HETATM   21  C   UNL     1      -6.298   2.362 -33.155  1.00  0.00     0.747 A 
HETATM   22  N   UNL     1      -6.508   1.578 -34.209  1.00  0.00     0.020 NA
HETATM   23  N   UNL     1      -7.679   1.011 -33.915  1.00  0.00    -0.248 N 
HETATM   24  H   UNL     1      -8.090   0.355 -34.571  1.00  0.00     0.191 HD
HETATM   25  C   UNL     1      -8.150   1.443 -32.708  1.00  0.00     0.140 A 
HETATM   26  N   UNL     1      -7.292   2.311 -32.211  1.00  0.00    -0.046 NA
BRANCH  25  27
HETATM   27  C   UNL     1      -9.450   1.004 -32.132  1.00  0.00     0.085 C 
BRANCH  27  28
HETATM   28  C   UNL     1     -10.155  -0.033 -33.011  1.00  0.00     0.046 C 
BRANCH  28  29
HETATM   29  C   UNL     1     -11.457   0.487 -33.565  1.00  0.00    -0.058 A 
HETATM   30  C   UNL     1     -12.628  -0.280 -33.472  1.00  0.00     0.007 A 
HETATM   31  C   UNL     1     -13.830   0.197 -33.996  1.00  0.00     0.001 A 
HETATM   32  C   UNL     1     -13.874   1.443 -34.618  1.00  0.00     0.000 A 
HETATM   33  C   UNL     1     -12.716   2.212 -34.718  1.00  0.00     0.001 A 
HETATM   34  C   UNL     1     -11.512   1.736 -34.197  1.00  0.00     0.007 A 
ENDBRANCH  28  29
ENDBRANCH  27  28
ENDBRANCH  25  27
ENDBRANCH   2  21
TORSDOF 8
ENDMDL
