MODEL 1
REMARK VINA RESULT:      -8.4      0.000      0.000
REMARK  7 active torsions:
REMARK  status: ('A' for Active; 'I' for Inactive)
REMARK    1  A    between atoms: O_2  and  C_3 
REMARK    2  A    between atoms: C_3  and  C_4 
REMARK    3  A    between atoms: C_5  and  N_6 
REMARK       I    between atoms: N_6  and  C_7 
REMARK    4  A    between atoms: C_7  and  C_8 
REMARK    5  A    between atoms: C_8  and  N_9 
REMARK    6  A    between atoms: C_11  and  C_12 
REMARK    7  A    between atoms: C_20  and  O_21 
ROOT
HETATM    1  N   UNL     1      -8.264   3.389 -31.031  1.00  0.00    -0.054 N 
HETATM    2  H   UNL     1      -7.640   2.638 -30.685  1.00  0.00     0.281 HD
HETATM    3  C   UNL     1      -8.278   3.320 -32.560  1.00  0.00     0.228 C 
HETATM    4  C   UNL     1      -9.480   4.136 -33.124  1.00  0.00     0.055 C 
HETATM    5  C   UNL     1     -10.830   3.820 -32.455  1.00  0.00     0.065 C 
HETATM    6  C   UNL     1     -10.700   3.973 -30.937  1.00  0.00     0.066 C 
HETATM    7  C   UNL     1      -9.593   3.093 -30.383  1.00  0.00     0.239 C 
HETATM    8  C   UNL     1      -9.590   4.091 -34.659  1.00  0.00     0.010 C 
HETATM    9  C   UNL     1     -10.665   5.058 -35.156  1.00  0.00     0.001 C 
HETATM   10  C   UNL     1     -12.020   4.788 -34.512  1.00  0.00     0.003 C 
HETATM   11  C   UNL     1     -11.937   4.757 -32.983  1.00  0.00     0.038 C 
ENDROOT
BRANCH   1  12
HETATM   12  C   UNL     1      -7.540   4.666 -30.539  1.00  0.00     0.338 C 
BRANCH  12  13
HETATM   13  C   UNL     1      -6.691   4.583 -29.265  1.00  0.00     0.248 C 
HETATM   14  N   UNL     1      -5.512   3.901 -29.254  1.00  0.00    -0.319 N 
HETATM   15  H   UNL     1      -4.818   4.276 -28.613  1.00  0.00     0.169 HD
HETATM   16  O   UNL     1      -6.962   5.291 -28.291  1.00  0.00    -0.271 OA
BRANCH  14  17
HETATM   17  C   UNL     1      -5.094   2.877 -30.065  1.00  0.00     0.094 A 
HETATM   18  C   UNL     1      -4.177   2.763 -31.097  1.00  0.00     0.080 A 
HETATM   19  C   UNL     1      -4.236   1.419 -31.658  1.00  0.00    -0.026 A 
HETATM   20  C   UNL     1      -5.167   0.629 -31.007  1.00  0.00    -0.008 A 
HETATM   21  C   UNL     1      -3.413   0.862 -32.794  1.00  0.00     0.041 C 
HETATM   22  S   UNL     1      -6.056   1.492 -29.852  1.00  0.00    -0.075 SA
HETATM   23  C   UNL     1      -5.472  -0.806 -31.315  1.00  0.00     0.047 C 
HETATM   24  C   UNL     1      -4.371  -1.414 -32.192  1.00  0.00     0.005 C 
HETATM   25  C   UNL     1      -3.980  -0.465 -33.328  1.00  0.00     0.005 C 
BRANCH  18  26
HETATM   26  C   UNL     1      -3.380   3.877 -31.611  1.00  0.00     0.296 C 
HETATM   27  O   UNL     1      -2.153   3.853 -31.675  1.00  0.00    -0.259 OA
BRANCH  26  28
HETATM   28  O   UNL     1      -4.147   4.943 -31.959  1.00  0.00    -0.322 OA
HETATM   29  C   UNL     1      -4.815   4.838 -33.217  1.00  0.00     0.213 C 
ENDBRANCH  26  28
ENDBRANCH  18  26
ENDBRANCH  14  17
ENDBRANCH  12  13
ENDBRANCH   1  12
BRANCH   3  30
HETATM   30  C   UNL     1      -8.002   1.951 -33.175  1.00  0.00    -0.027 A 
HETATM   31  C   UNL     1      -8.627   0.761 -32.773  1.00  0.00     0.012 A 
HETATM   32  C   UNL     1      -8.379  -0.447 -33.435  1.00  0.00     0.043 A 
HETATM   33  C   UNL     1      -7.503  -0.482 -34.509  1.00  0.00     0.116 A 
HETATM   34  F   UNL     1      -7.284  -1.636 -35.150  1.00  0.00    -0.206 F 
HETATM   35  C   UNL     1      -6.863   0.671 -34.933  1.00  0.00     0.043 A 
HETATM   36  C   UNL     1      -7.108   1.877 -34.269  1.00  0.00     0.012 A 
ENDBRANCH   3  30
BRANCH   5  37
HETATM   37  O   UNL     1     -11.201   2.466 -32.701  1.00  0.00    -0.389 OA
HETATM   38  H   UNL     1     -11.940   2.209 -32.117  1.00  0.00     0.210 HD
ENDBRANCH   5  37
TORSDOF 7
ENDMDL
MODEL 2
REMARK VINA RESULT:      -8.1      3.502      5.501
REMARK  7 active torsions:
REMARK  status: ('A' for Active; 'I' for Inactive)
REMARK    1  A    between atoms: O_2  and  C_3 
REMARK    2  A    between atoms: C_3  and  C_4 
REMARK    3  A    between atoms: C_5  and  N_6 
REMARK       I    between atoms: N_6  and  C_7 
REMARK    4  A    between atoms: C_7  and  C_8 
REMARK    5  A    between atoms: C_8  and  N_9 
REMARK    6  A    between atoms: C_11  and  C_12 
REMARK    7  A    between atoms: C_20  and  O_21 
ROOT
HETATM    1  N   UNL     1      -4.418   3.171 -32.256  1.00  0.00    -0.054 N 
HETATM    2  H   UNL     1      -3.706   2.561 -32.699  1.00  0.00     0.281 HD
HETATM    3  C   UNL     1      -5.764   2.881 -32.924  1.00  0.00     0.228 C 
HETATM    4  C   UNL     1      -6.928   3.451 -32.058  1.00  0.00     0.055 C 
HETATM    5  C   UNL     1      -6.854   3.069 -30.568  1.00  0.00     0.065 C 
HETATM    6  C   UNL     1      -5.483   3.454 -30.005  1.00  0.00     0.066 C 
HETATM    7  C   UNL     1      -4.358   2.808 -30.794  1.00  0.00     0.239 C 
HETATM    8  C   UNL     1      -8.325   3.172 -32.640  1.00  0.00     0.010 C 
HETATM    9  C   UNL     1      -9.403   3.915 -31.851  1.00  0.00     0.001 C 
HETATM   10  C   UNL     1      -9.361   3.574 -30.365  1.00  0.00     0.003 C 
HETATM   11  C   UNL     1      -7.967   3.774 -29.765  1.00  0.00     0.038 C 
ENDROOT
BRANCH   1  12
HETATM   12  C   UNL     1      -3.908   4.586 -32.624  1.00  0.00     0.338 C 
BRANCH  12  13
HETATM   13  C   UNL     1      -2.648   4.709 -33.489  1.00  0.00     0.248 C 
HETATM   14  N   UNL     1      -1.453   5.060 -32.937  1.00  0.00    -0.319 N 
HETATM   15  H   UNL     1      -0.644   4.660 -33.404  1.00  0.00     0.169 HD
HETATM   16  O   UNL     1      -2.654   4.305 -34.656  1.00  0.00    -0.271 OA
BRANCH  14  17
HETATM   17  C   UNL     1      -1.201   5.759 -31.785  1.00  0.00     0.094 A 
HETATM   18  C   UNL     1      -1.410   7.064 -31.370  1.00  0.00     0.080 A 
HETATM   19  C   UNL     1      -0.831   7.256 -30.047  1.00  0.00    -0.026 A 
HETATM   20  C   UNL     1      -0.251   6.096 -29.565  1.00  0.00    -0.008 A 
HETATM   21  C   UNL     1      -0.829   8.519 -29.220  1.00  0.00     0.041 C 
HETATM   22  S   UNL     1      -0.262   4.843 -30.703  1.00  0.00    -0.075 SA
HETATM   23  C   UNL     1       0.418   5.935 -28.232  1.00  0.00     0.047 C 
HETATM   24  C   UNL     1       0.061   7.104 -27.306  1.00  0.00     0.005 C 
HETATM   25  C   UNL     1       0.157   8.444 -28.043  1.00  0.00     0.005 C 
BRANCH  18  26
HETATM   26  C   UNL     1      -2.007   8.104 -32.210  1.00  0.00     0.296 C 
HETATM   27  O   UNL     1      -1.665   8.308 -33.372  1.00  0.00    -0.259 OA
BRANCH  26  28
HETATM   28  O   UNL     1      -2.935   8.837 -31.541  1.00  0.00    -0.322 OA
HETATM   29  C   UNL     1      -4.165   8.166 -31.260  1.00  0.00     0.213 C 
ENDBRANCH  26  28
ENDBRANCH  18  26
ENDBRANCH  14  17
ENDBRANCH  12  13
ENDBRANCH   1  12
BRANCH   3  30
HETATM   30  C   UNL     1      -5.939   1.483 -33.511  1.00  0.00    -0.027 A 
HETATM   31  C   UNL     1      -5.396   0.317 -32.951  1.00  0.00     0.012 A 
HETATM   32  C   UNL     1      -5.661  -0.942 -33.503  1.00  0.00     0.043 A 
HETATM   33  C   UNL     1      -6.473  -1.052 -34.622  1.00  0.00     0.116 A 
HETATM   34  F   UNL     1      -6.739  -2.259 -35.134  1.00  0.00    -0.206 F 
HETATM   35  C   UNL     1      -7.023   0.078 -35.206  1.00  0.00     0.043 A 
HETATM   36  C   UNL     1      -6.755   1.335 -34.656  1.00  0.00     0.012 A 
ENDBRANCH   3  30
BRANCH   5  37
HETATM   37  O   UNL     1      -6.981   1.658 -30.411  1.00  0.00    -0.389 OA
HETATM   38  H   UNL     1      -7.439   1.453 -29.574  1.00  0.00     0.210 HD
ENDBRANCH   5  37
TORSDOF 7
ENDMDL
MODEL 3
REMARK VINA RESULT:      -8.0      3.256      5.305
REMARK  7 active torsions:
REMARK  status: ('A' for Active; 'I' for Inactive)
REMARK    1  A    between atoms: O_2  and  C_3 
REMARK    2  A    between atoms: C_3  and  C_4 
REMARK    3  A    between atoms: C_5  and  N_6 
REMARK       I    between atoms: N_6  and  C_7 
REMARK    4  A    between atoms: C_7  and  C_8 
REMARK    5  A    between atoms: C_8  and  N_9 
REMARK    6  A    between atoms: C_11  and  C_12 
REMARK    7  A    between atoms: C_20  and  O_21 
ROOT
HETATM    1  N   UNL     1      -4.699   3.289 -32.164  1.00  0.00    -0.054 N 
HETATM    2  H   UNL     1      -3.716   3.070 -31.914  1.00  0.00     0.281 HD
HETATM    3  C   UNL     1      -5.269   2.086 -32.920  1.00  0.00     0.228 C 
HETATM    4  C   UNL     1      -6.823   2.172 -32.973  1.00  0.00     0.055 C 
HETATM    5  C   UNL     1      -7.489   2.449 -31.613  1.00  0.00     0.065 C 
HETATM    6  C   UNL     1      -6.871   3.701 -30.983  1.00  0.00     0.066 C 
HETATM    7  C   UNL     1      -5.365   3.564 -30.840  1.00  0.00     0.239 C 
HETATM    8  C   UNL     1      -7.484   0.979 -33.687  1.00  0.00     0.010 C 
HETATM    9  C   UNL     1      -8.983   1.216 -33.871  1.00  0.00     0.001 C 
HETATM   10  C   UNL     1      -9.683   1.505 -32.548  1.00  0.00     0.003 C 
HETATM   11  C   UNL     1      -9.011   2.644 -31.775  1.00  0.00     0.038 C 
ENDROOT
BRANCH   1  12
HETATM   12  C   UNL     1      -4.531   4.508 -33.104  1.00  0.00     0.338 C 
BRANCH  12  13
HETATM   13  C   UNL     1      -5.330   5.781 -32.804  1.00  0.00     0.248 C 
HETATM   14  N   UNL     1      -4.716   6.890 -32.307  1.00  0.00    -0.319 N 
HETATM   15  H   UNL     1      -5.145   7.768 -32.590  1.00  0.00     0.169 HD
HETATM   16  O   UNL     1      -6.499   5.886 -33.189  1.00  0.00    -0.271 OA
BRANCH  14  17
HETATM   17  C   UNL     1      -3.547   6.992 -31.597  1.00  0.00     0.094 A 
HETATM   18  C   UNL     1      -2.203   7.005 -31.929  1.00  0.00     0.080 A 
HETATM   19  C   UNL     1      -1.398   7.037 -30.715  1.00  0.00    -0.026 A 
HETATM   20  C   UNL     1      -2.184   7.060 -29.576  1.00  0.00    -0.008 A 
HETATM   21  C   UNL     1       0.108   7.060 -30.611  1.00  0.00     0.041 C 
HETATM   22  S   UNL     1      -3.834   6.904 -29.924  1.00  0.00    -0.075 SA
HETATM   23  C   UNL     1      -1.686   7.113 -28.163  1.00  0.00     0.047 C 
HETATM   24  C   UNL     1      -0.205   7.513 -28.130  1.00  0.00     0.005 C 
HETATM   25  C   UNL     1       0.599   6.750 -29.187  1.00  0.00     0.005 C 
BRANCH  18  26
HETATM   26  C   UNL     1      -1.695   6.872 -33.296  1.00  0.00     0.296 C 
HETATM   27  O   UNL     1      -1.695   7.795 -34.106  1.00  0.00    -0.259 OA
BRANCH  26  28
HETATM   28  O   UNL     1      -1.276   5.609 -33.570  1.00  0.00    -0.322 OA
HETATM   29  C   UNL     1      -1.424   5.190 -34.928  1.00  0.00     0.213 C 
ENDBRANCH  26  28
ENDBRANCH  18  26
ENDBRANCH  14  17
ENDBRANCH  12  13
ENDBRANCH   1  12
BRANCH   3  30
HETATM   30  C   UNL     1      -4.646   0.731 -32.598  1.00  0.00    -0.027 A 
HETATM   31  C   UNL     1      -4.875  -0.441 -33.334  1.00  0.00     0.012 A 
HETATM   32  C   UNL     1      -4.209  -1.633 -33.024  1.00  0.00     0.043 A 
HETATM   33  C   UNL     1      -3.304  -1.669 -31.975  1.00  0.00     0.116 A 
HETATM   34  F   UNL     1      -2.655  -2.805 -31.695  1.00  0.00    -0.206 F 
HETATM   35  C   UNL     1      -3.055  -0.533 -31.222  1.00  0.00     0.043 A 
HETATM   36  C   UNL     1      -3.723   0.656 -31.528  1.00  0.00     0.012 A 
ENDBRANCH   3  30
BRANCH   5  37
HETATM   37  O   UNL     1      -7.245   1.373 -30.711  1.00  0.00    -0.389 OA
HETATM   38  H   UNL     1      -8.086   1.052 -30.335  1.00  0.00     0.210 HD
ENDBRANCH   5  37
TORSDOF 7
ENDMDL
MODEL 4
REMARK VINA RESULT:      -7.7      3.495      5.482
REMARK  7 active torsions:
REMARK  status: ('A' for Active; 'I' for Inactive)
REMARK    1  A    between atoms: O_2  and  C_3 
REMARK    2  A    between atoms: C_3  and  C_4 
REMARK    3  A    between atoms: C_5  and  N_6 
REMARK       I    between atoms: N_6  and  C_7 
REMARK    4  A    between atoms: C_7  and  C_8 
REMARK    5  A    between atoms: C_8  and  N_9 
REMARK    6  A    between atoms: C_11  and  C_12 
REMARK    7  A    between atoms: C_20  and  O_21 
ROOT
HETATM    1  N   UNL     1      -5.080   3.799 -31.205  1.00  0.00    -0.054 N 
HETATM    2  H   UNL     1      -4.095   3.671 -30.907  1.00  0.00     0.281 HD
HETATM    3  C   UNL     1      -5.389   2.742 -32.269  1.00  0.00     0.228 C 
HETATM    4  C   UNL     1      -6.928   2.611 -32.467  1.00  0.00     0.055 C 
HETATM    5  C   UNL     1      -7.725   2.456 -31.158  1.00  0.00     0.065 C 
HETATM    6  C   UNL     1      -7.368   3.596 -30.200  1.00  0.00     0.066 C 
HETATM    7  C   UNL     1      -5.874   3.649 -29.931  1.00  0.00     0.239 C 
HETATM    8  C   UNL     1      -7.330   1.541 -33.498  1.00  0.00     0.010 C 
HETATM    9  C   UNL     1      -8.831   1.596 -33.783  1.00  0.00     0.001 C 
HETATM   10  C   UNL     1      -9.660   1.455 -32.512  1.00  0.00     0.003 C 
HETATM   11  C   UNL     1      -9.243   2.460 -31.435  1.00  0.00     0.038 C 
ENDROOT
BRANCH   1  12
HETATM   12  C   UNL     1      -5.052   5.218 -31.822  1.00  0.00     0.338 C 
BRANCH  12  13
HETATM   13  C   UNL     1      -4.151   5.472 -33.037  1.00  0.00     0.248 C 
HETATM   14  N   UNL     1      -2.808   5.629 -32.889  1.00  0.00    -0.319 N 
HETATM   15  H   UNL     1      -2.259   5.306 -33.682  1.00  0.00     0.169 HD
HETATM   16  O   UNL     1      -4.600   5.342 -34.180  1.00  0.00    -0.271 OA
BRANCH  14  17
HETATM   17  C   UNL     1      -2.096   6.037 -31.790  1.00  0.00     0.094 A 
HETATM   18  C   UNL     1      -1.974   7.228 -31.094  1.00  0.00     0.080 A 
HETATM   19  C   UNL     1      -0.973   7.083 -30.045  1.00  0.00    -0.026 A 
HETATM   20  C   UNL     1      -0.434   5.809 -30.020  1.00  0.00    -0.008 A 
HETATM   21  C   UNL     1      -0.524   8.128 -29.053  1.00  0.00     0.041 C 
HETATM   22  S   UNL     1      -0.992   4.843 -31.295  1.00  0.00    -0.075 SA
HETATM   23  C   UNL     1       0.605   5.311 -29.061  1.00  0.00     0.047 C 
HETATM   24  C   UNL     1       0.738   6.267 -27.869  1.00  0.00     0.005 C 
HETATM   25  C   UNL     1       0.773   7.727 -28.330  1.00  0.00     0.005 C 
BRANCH  18  26
HETATM   26  C   UNL     1      -2.662   8.466 -31.463  1.00  0.00     0.296 C 
HETATM   27  O   UNL     1      -2.093   9.420 -31.987  1.00  0.00    -0.259 OA
BRANCH  26  28
HETATM   28  O   UNL     1      -3.976   8.450 -31.116  1.00  0.00    -0.322 OA
HETATM   29  C   UNL     1      -4.329   9.267 -29.999  1.00  0.00     0.213 C 
ENDBRANCH  26  28
ENDBRANCH  18  26
ENDBRANCH  14  17
ENDBRANCH  12  13
ENDBRANCH   1  12
BRANCH   3  30
HETATM   30  C   UNL     1      -4.573   1.454 -32.195  1.00  0.00    -0.027 A 
HETATM   31  C   UNL     1      -3.553   1.215 -31.263  1.00  0.00     0.012 A 
HETATM   32  C   UNL     1      -2.898  -0.021 -31.206  1.00  0.00     0.043 A 
HETATM   33  C   UNL     1      -3.256  -1.036 -32.080  1.00  0.00     0.116 A 
HETATM   34  F   UNL     1      -2.640  -2.222 -32.009  1.00  0.00    -0.206 F 
HETATM   35  C   UNL     1      -4.256  -0.836 -33.018  1.00  0.00     0.043 A 
HETATM   36  C   UNL     1      -4.907   0.399 -33.077  1.00  0.00     0.012 A 
ENDBRANCH   3  30
BRANCH   5  37
HETATM   37  O   UNL     1      -7.368   1.242 -30.501  1.00  0.00    -0.389 OA
HETATM   38  H   UNL     1      -6.656   1.406 -29.856  1.00  0.00     0.210 HD
ENDBRANCH   5  37
TORSDOF 7
ENDMDL
MODEL 5
REMARK VINA RESULT:      -7.7      2.114      3.152
REMARK  7 active torsions:
REMARK  status: ('A' for Active; 'I' for Inactive)
REMARK    1  A    between atoms: O_2  and  C_3 
REMARK    2  A    between atoms: C_3  and  C_4 
REMARK    3  A    between atoms: C_5  and  N_6 
REMARK       I    between atoms: N_6  and  C_7 
REMARK    4  A    between atoms: C_7  and  C_8 
REMARK    5  A    between atoms: C_8  and  N_9 
REMARK    6  A    between atoms: C_11  and  C_12 
REMARK    7  A    between atoms: C_20  and  O_21 
ROOT
HETATM    1  N   UNL     1      -7.637   4.297 -31.390  1.00  0.00    -0.054 N 
HETATM    2  H   UNL     1      -7.050   3.443 -31.364  1.00  0.00     0.281 HD
HETATM    3  C   UNL     1      -8.828   4.019 -32.311  1.00  0.00     0.228 C 
HETATM    4  C   UNL     1      -9.942   5.086 -32.087  1.00  0.00     0.055 C 
HETATM    5  C   UNL     1     -10.312   5.314 -30.610  1.00  0.00     0.065 C 
HETATM    6  C   UNL     1      -9.048   5.633 -29.805  1.00  0.00     0.066 C 
HETATM    7  C   UNL     1      -8.008   4.535 -29.948  1.00  0.00     0.239 C 
HETATM    8  C   UNL     1     -11.196   4.861 -32.950  1.00  0.00     0.010 C 
HETATM    9  C   UNL     1     -12.163   6.038 -32.824  1.00  0.00     0.001 C 
HETATM   10  C   UNL     1     -12.550   6.308 -31.375  1.00  0.00     0.003 C 
HETATM   11  C   UNL     1     -11.326   6.469 -30.470  1.00  0.00     0.038 C 
ENDROOT
BRANCH   1  12
HETATM   12  C   UNL     1      -6.676   5.333 -32.021  1.00  0.00     0.338 C 
BRANCH  12  13
HETATM   13  C   UNL     1      -5.165   5.119 -31.872  1.00  0.00     0.248 C 
HETATM   14  N   UNL     1      -4.551   4.052 -32.451  1.00  0.00    -0.319 N 
HETATM   15  H   UNL     1      -3.589   4.224 -32.731  1.00  0.00     0.169 HD
HETATM   16  O   UNL     1      -4.457   6.010 -31.393  1.00  0.00    -0.271 OA
BRANCH  14  17
HETATM   17  C   UNL     1      -5.078   2.840 -32.820  1.00  0.00     0.094 A 
HETATM   18  C   UNL     1      -4.951   1.541 -32.358  1.00  0.00     0.080 A 
HETATM   19  C   UNL     1      -5.691   0.636 -33.228  1.00  0.00    -0.026 A 
HETATM   20  C   UNL     1      -6.322   1.314 -34.257  1.00  0.00    -0.008 A 
HETATM   21  C   UNL     1      -5.824  -0.861 -33.096  1.00  0.00     0.041 C 
HETATM   22  S   UNL     1      -5.938   2.962 -34.281  1.00  0.00    -0.075 SA
HETATM   23  C   UNL     1      -7.180   0.696 -35.320  1.00  0.00     0.047 C 
HETATM   24  C   UNL     1      -7.584  -0.730 -34.926  1.00  0.00     0.005 C 
HETATM   25  C   UNL     1      -6.389  -1.511 -34.371  1.00  0.00     0.005 C 
BRANCH  18  26
HETATM   26  C   UNL     1      -4.089   1.149 -31.241  1.00  0.00     0.296 C 
HETATM   27  O   UNL     1      -2.903   1.458 -31.167  1.00  0.00    -0.259 OA
BRANCH  26  28
HETATM   28  O   UNL     1      -4.740   0.373 -30.335  1.00  0.00    -0.322 OA
HETATM   29  C   UNL     1      -5.843   0.992 -29.671  1.00  0.00     0.213 C 
ENDBRANCH  26  28
ENDBRANCH  18  26
ENDBRANCH  14  17
ENDBRANCH  12  13
ENDBRANCH   1  12
BRANCH   3  30
HETATM   30  C   UNL     1      -9.261   2.561 -32.432  1.00  0.00    -0.027 A 
HETATM   31  C   UNL     1      -8.843   1.537 -31.568  1.00  0.00     0.012 A 
HETATM   32  C   UNL     1      -9.341   0.235 -31.695  1.00  0.00     0.043 A 
HETATM   33  C   UNL     1     -10.264  -0.062 -32.687  1.00  0.00     0.116 A 
HETATM   34  F   UNL     1     -10.751  -1.303 -32.791  1.00  0.00    -0.206 F 
HETATM   35  C   UNL     1     -10.696   0.922 -33.562  1.00  0.00     0.043 A 
HETATM   36  C   UNL     1     -10.196   2.221 -33.437  1.00  0.00     0.012 A 
ENDBRANCH   3  30
BRANCH   5  37
HETATM   37  O   UNL     1     -10.868   4.129 -30.048  1.00  0.00    -0.389 OA
HETATM   38  H   UNL     1     -10.507   3.979 -29.154  1.00  0.00     0.210 HD
ENDBRANCH   5  37
TORSDOF 7
ENDMDL
MODEL 6
REMARK VINA RESULT:      -7.6      3.070      5.368
REMARK  7 active torsions:
REMARK  status: ('A' for Active; 'I' for Inactive)
REMARK    1  A    between atoms: O_2  and  C_3 
REMARK    2  A    between atoms: C_3  and  C_4 
REMARK    3  A    between atoms: C_5  and  N_6 
REMARK       I    between atoms: N_6  and  C_7 
REMARK    4  A    between atoms: C_7  and  C_8 
REMARK    5  A    between atoms: C_8  and  N_9 
REMARK    6  A    between atoms: C_11  and  C_12 
REMARK    7  A    between atoms: C_20  and  O_21 
ROOT
HETATM    1  N   UNL     1      -5.062   2.898 -32.634  1.00  0.00    -0.054 N 
HETATM    2  H   UNL     1      -4.057   2.767 -32.418  1.00  0.00     0.281 HD
HETATM    3  C   UNL     1      -5.582   1.599 -33.255  1.00  0.00     0.228 C 
HETATM    4  C   UNL     1      -7.139   1.578 -33.233  1.00  0.00     0.055 C 
HETATM    5  C   UNL     1      -7.759   1.929 -31.868  1.00  0.00     0.065 C 
HETATM    6  C   UNL     1      -7.200   3.269 -31.379  1.00  0.00     0.066 C 
HETATM    7  C   UNL     1      -5.684   3.244 -31.304  1.00  0.00     0.239 C 
HETATM    8  C   UNL     1      -7.748   0.286 -33.808  1.00  0.00     0.010 C 
HETATM    9  C   UNL     1      -9.267   0.407 -33.933  1.00  0.00     0.001 C 
HETATM   10  C   UNL     1      -9.923   0.765 -32.604  1.00  0.00     0.003 C 
HETATM   11  C   UNL     1      -9.297   2.008 -31.966  1.00  0.00     0.038 C 
ENDROOT
BRANCH   1  12
HETATM   12  C   UNL     1      -5.024   4.038 -33.681  1.00  0.00     0.338 C 
BRANCH  12  13
HETATM   13  C   UNL     1      -5.865   5.295 -33.428  1.00  0.00     0.248 C 
HETATM   14  N   UNL     1      -5.304   6.414 -32.894  1.00  0.00    -0.319 N 
HETATM   15  H   UNL     1      -5.732   7.284 -33.201  1.00  0.00     0.169 HD
HETATM   16  O   UNL     1      -7.010   5.378 -33.883  1.00  0.00    -0.271 OA
BRANCH  14  17
HETATM   17  C   UNL     1      -4.183   6.537 -32.114  1.00  0.00     0.094 A 
HETATM   18  C   UNL     1      -3.951   6.714 -30.760  1.00  0.00     0.080 A 
HETATM   19  C   UNL     1      -2.523   6.878 -30.524  1.00  0.00    -0.026 A 
HETATM   20  C   UNL     1      -1.794   6.799 -31.698  1.00  0.00    -0.008 A 
HETATM   21  C   UNL     1      -1.829   7.095 -29.201  1.00  0.00     0.041 C 
HETATM   22  S   UNL     1      -2.782   6.675 -33.068  1.00  0.00    -0.075 SA
HETATM   23  C   UNL     1      -0.304   6.906 -31.818  1.00  0.00     0.047 C 
HETATM   24  C   UNL     1       0.360   6.744 -30.444  1.00  0.00     0.005 C 
HETATM   25  C   UNL     1      -0.374   7.559 -29.375  1.00  0.00     0.005 C 
BRANCH  18  26
HETATM   26  C   UNL     1      -5.011   6.845 -29.758  1.00  0.00     0.296 C 
HETATM   27  O   UNL     1      -5.678   7.867 -29.617  1.00  0.00    -0.259 OA
BRANCH  26  28
HETATM   28  O   UNL     1      -5.130   5.735 -28.985  1.00  0.00    -0.322 OA
HETATM   29  C   UNL     1      -5.316   5.972 -27.588  1.00  0.00     0.213 C 
ENDBRANCH  26  28
ENDBRANCH  18  26
ENDBRANCH  14  17
ENDBRANCH  12  13
ENDBRANCH   1  12
BRANCH   3  30
HETATM   30  C   UNL     1      -4.851   0.320 -32.852  1.00  0.00    -0.027 A 
HETATM   31  C   UNL     1      -4.922  -0.888 -33.560  1.00  0.00     0.012 A 
HETATM   32  C   UNL     1      -4.164  -2.000 -33.173  1.00  0.00     0.043 A 
HETATM   33  C   UNL     1      -3.324  -1.917 -32.073  1.00  0.00     0.116 A 
HETATM   34  F   UNL     1      -2.587  -2.976 -31.719  1.00  0.00    -0.206 F 
HETATM   35  C   UNL     1      -3.231  -0.742 -31.346  1.00  0.00     0.043 A 
HETATM   36  C   UNL     1      -3.991   0.367 -31.730  1.00  0.00     0.012 A 
ENDBRANCH   3  30
BRANCH   5  37
HETATM   37  O   UNL     1      -7.398   0.955 -30.893  1.00  0.00    -0.389 OA
HETATM   38  H   UNL     1      -7.702   1.235 -30.009  1.00  0.00     0.210 HD
ENDBRANCH   5  37
TORSDOF 7
ENDMDL
MODEL 7
REMARK VINA RESULT:      -7.6     16.827     18.559
REMARK  7 active torsions:
REMARK  status: ('A' for Active; 'I' for Inactive)
REMARK    1  A    between atoms: O_2  and  C_3 
REMARK    2  A    between atoms: C_3  and  C_4 
REMARK    3  A    between atoms: C_5  and  N_6 
REMARK       I    between atoms: N_6  and  C_7 
REMARK    4  A    between atoms: C_7  and  C_8 
REMARK    5  A    between atoms: C_8  and  N_9 
REMARK    6  A    between atoms: C_11  and  C_12 
REMARK    7  A    between atoms: C_20  and  O_21 
ROOT
HETATM    1  N   UNL     1      -5.029 -13.677 -39.790  1.00  0.00    -0.054 N 
HETATM    2  H   UNL     1      -4.128 -13.743 -39.281  1.00  0.00     0.281 HD
HETATM    3  C   UNL     1      -6.102 -14.357 -38.936  1.00  0.00     0.228 C 
HETATM    4  C   UNL     1      -7.521 -13.952 -39.433  1.00  0.00     0.055 C 
HETATM    5  C   UNL     1      -7.718 -12.436 -39.623  1.00  0.00     0.065 C 
HETATM    6  C   UNL     1      -6.617 -11.885 -40.534  1.00  0.00     0.066 C 
HETATM    7  C   UNL     1      -5.235 -12.196 -39.985  1.00  0.00     0.239 C 
HETATM    8  C   UNL     1      -8.664 -14.565 -38.604  1.00  0.00     0.010 C 
HETATM    9  C   UNL     1     -10.020 -14.286 -39.254  1.00  0.00     0.001 C 
HETATM   10  C   UNL     1     -10.254 -12.795 -39.471  1.00  0.00     0.003 C 
HETATM   11  C   UNL     1      -9.102 -12.134 -40.234  1.00  0.00     0.038 C 
ENDROOT
BRANCH   1  12
HETATM   12  C   UNL     1      -4.738 -14.494 -41.072  1.00  0.00     0.338 C 
BRANCH  12  13
HETATM   13  C   UNL     1      -3.286 -14.618 -41.550  1.00  0.00     0.248 C 
HETATM   14  N   UNL     1      -2.347 -15.232 -40.780  1.00  0.00    -0.319 N 
HETATM   15  H   UNL     1      -1.613 -15.698 -41.307  1.00  0.00     0.169 HD
HETATM   16  O   UNL     1      -2.991 -14.339 -42.716  1.00  0.00    -0.271 OA
BRANCH  14  17
HETATM   17  C   UNL     1      -2.323 -15.417 -39.421  1.00  0.00     0.094 A 
HETATM   18  C   UNL     1      -1.824 -14.697 -38.348  1.00  0.00     0.080 A 
HETATM   19  C   UNL     1      -2.013 -15.456 -37.118  1.00  0.00    -0.026 A 
HETATM   20  C   UNL     1      -2.644 -16.665 -37.351  1.00  0.00    -0.008 A 
HETATM   21  C   UNL     1      -1.618 -15.050 -35.719  1.00  0.00     0.041 C 
HETATM   22  S   UNL     1      -2.883 -16.966 -39.000  1.00  0.00    -0.075 SA
HETATM   23  C   UNL     1      -3.008 -17.682 -36.311  1.00  0.00     0.047 C 
HETATM   24  C   UNL     1      -2.935 -17.067 -34.908  1.00  0.00     0.005 C 
HETATM   25  C   UNL     1      -1.663 -16.231 -34.735  1.00  0.00     0.005 C 
BRANCH  18  26
HETATM   26  C   UNL     1      -1.102 -13.430 -38.477  1.00  0.00     0.296 C 
HETATM   27  O   UNL     1      -1.491 -12.381 -37.971  1.00  0.00    -0.259 OA
BRANCH  26  28
HETATM   28  O   UNL     1       0.008 -13.545 -39.252  1.00  0.00    -0.322 OA
HETATM   29  C   UNL     1       1.049 -14.367 -38.721  1.00  0.00     0.213 C 
ENDBRANCH  26  28
ENDBRANCH  18  26
ENDBRANCH  14  17
ENDBRANCH  12  13
ENDBRANCH   1  12
BRANCH   3  30
HETATM   30  C   UNL     1      -5.856 -14.368 -37.429  1.00  0.00    -0.027 A 
HETATM   31  C   UNL     1      -6.331 -15.359 -36.558  1.00  0.00     0.012 A 
HETATM   32  C   UNL     1      -6.002 -15.345 -35.197  1.00  0.00     0.043 A 
HETATM   33  C   UNL     1      -5.193 -14.340 -34.690  1.00  0.00     0.116 A 
HETATM   34  F   UNL     1      -4.866 -14.342 -33.392  1.00  0.00    -0.206 F 
HETATM   35  C   UNL     1      -4.709 -13.341 -35.519  1.00  0.00     0.043 A 
HETATM   36  C   UNL     1      -5.040 -13.354 -36.877  1.00  0.00     0.012 A 
ENDBRANCH   3  30
BRANCH   5  37
HETATM   37  O   UNL     1      -7.595 -11.759 -38.375  1.00  0.00    -0.389 OA
HETATM   38  H   UNL     1      -8.233 -11.023 -38.328  1.00  0.00     0.210 HD
ENDBRANCH   5  37
TORSDOF 7
ENDMDL
MODEL 8
REMARK VINA RESULT:      -7.3     16.795     19.006
REMARK  7 active torsions:
REMARK  status: ('A' for Active; 'I' for Inactive)
REMARK    1  A    between atoms: O_2  and  C_3 
REMARK    2  A    between atoms: C_3  and  C_4 
REMARK    3  A    between atoms: C_5  and  N_6 
REMARK       I    between atoms: N_6  and  C_7 
REMARK    4  A    between atoms: C_7  and  C_8 
REMARK    5  A    between atoms: C_8  and  N_9 
REMARK    6  A    between atoms: C_11  and  C_12 
REMARK    7  A    between atoms: C_20  and  O_21 
ROOT
HETATM    1  N   UNL     1      -6.844 -15.966 -38.446  1.00  0.00    -0.054 N 
HETATM    2  H   UNL     1      -6.000 -16.548 -38.599  1.00  0.00     0.281 HD
HETATM    3  C   UNL     1      -6.664 -14.663 -39.229  1.00  0.00     0.228 C 
HETATM    4  C   UNL     1      -8.031 -13.930 -39.373  1.00  0.00     0.055 C 
HETATM    5  C   UNL     1      -9.181 -14.824 -39.872  1.00  0.00     0.065 C 
HETATM    6  C   UNL     1      -9.291 -16.065 -38.980  1.00  0.00     0.066 C 
HETATM    7  C   UNL     1      -7.981 -16.831 -38.930  1.00  0.00     0.239 C 
HETATM    8  C   UNL     1      -7.948 -12.622 -40.181  1.00  0.00     0.010 C 
HETATM    9  C   UNL     1      -9.273 -11.861 -40.123  1.00  0.00     0.001 C 
HETATM   10  C   UNL     1     -10.443 -12.713 -40.600  1.00  0.00     0.003 C 
HETATM   11  C   UNL     1     -10.518 -14.054 -39.865  1.00  0.00     0.038 C 
ENDROOT
BRANCH   1  12
HETATM   12  C   UNL     1      -6.790 -15.710 -36.920  1.00  0.00     0.338 C 
BRANCH  12  13
HETATM   13  C   UNL     1      -5.922 -16.630 -36.052  1.00  0.00     0.248 C 
HETATM   14  N   UNL     1      -4.569 -16.485 -36.017  1.00  0.00    -0.319 N 
HETATM   15  H   UNL     1      -4.144 -16.741 -35.131  1.00  0.00     0.169 HD
HETATM   16  O   UNL     1      -6.449 -17.382 -35.227  1.00  0.00    -0.271 OA
BRANCH  14  17
HETATM   17  C   UNL     1      -3.731 -15.930 -36.950  1.00  0.00     0.094 A 
HETATM   18  C   UNL     1      -3.321 -14.641 -37.249  1.00  0.00     0.080 A 
HETATM   19  C   UNL     1      -2.478 -14.657 -38.437  1.00  0.00    -0.026 A 
HETATM   20  C   UNL     1      -2.306 -15.939 -38.929  1.00  0.00    -0.008 A 
HETATM   21  C   UNL     1      -1.818 -13.479 -39.111  1.00  0.00     0.041 C 
HETATM   22  S   UNL     1      -3.232 -17.085 -38.093  1.00  0.00    -0.075 SA
HETATM   23  C   UNL     1      -1.487 -16.321 -40.125  1.00  0.00     0.047 C 
HETATM   24  C   UNL     1      -0.556 -15.170 -40.528  1.00  0.00     0.005 C 
HETATM   25  C   UNL     1      -1.295 -13.829 -40.515  1.00  0.00     0.005 C 
BRANCH  18  26
HETATM   26  C   UNL     1      -3.788 -13.448 -36.540  1.00  0.00     0.296 C 
HETATM   27  O   UNL     1      -3.957 -12.363 -37.090  1.00  0.00    -0.259 OA
BRANCH  26  28
HETATM   28  O   UNL     1      -3.961 -13.672 -35.211  1.00  0.00    -0.322 OA
HETATM   29  C   UNL     1      -5.195 -13.205 -34.663  1.00  0.00     0.213 C 
ENDBRANCH  26  28
ENDBRANCH  18  26
ENDBRANCH  14  17
ENDBRANCH  12  13
ENDBRANCH   1  12
BRANCH   3  30
HETATM   30  C   UNL     1      -5.767 -14.736 -40.461  1.00  0.00    -0.027 A 
HETATM   31  C   UNL     1      -5.152 -13.626 -41.059  1.00  0.00     0.012 A 
HETATM   32  C   UNL     1      -4.280 -13.778 -42.144  1.00  0.00     0.043 A 
HETATM   33  C   UNL     1      -4.010 -15.043 -42.645  1.00  0.00     0.116 A 
HETATM   34  F   UNL     1      -3.161 -15.184 -43.669  1.00  0.00    -0.206 F 
HETATM   35  C   UNL     1      -4.602 -16.162 -42.083  1.00  0.00     0.043 A 
HETATM   36  C   UNL     1      -5.476 -16.010 -41.003  1.00  0.00     0.012 A 
ENDBRANCH   3  30
BRANCH   5  37
HETATM   37  O   UNL     1      -8.911 -15.290 -41.191  1.00  0.00    -0.389 OA
HETATM   38  H   UNL     1      -8.127 -15.870 -41.189  1.00  0.00     0.210 HD
ENDBRANCH   5  37
TORSDOF 7
ENDMDL
MODEL 9
REMARK VINA RESULT:      -7.3      1.879      3.239
REMARK  7 active torsions:
REMARK  status: ('A' for Active; 'I' for Inactive)
REMARK    1  A    between atoms: O_2  and  C_3 
REMARK    2  A    between atoms: C_3  and  C_4 
REMARK    3  A    between atoms: C_5  and  N_6 
REMARK       I    between atoms: N_6  and  C_7 
REMARK    4  A    between atoms: C_7  and  C_8 
REMARK    5  A    between atoms: C_8  and  N_9 
REMARK    6  A    between atoms: C_11  and  C_12 
REMARK    7  A    between atoms: C_20  and  O_21 
ROOT
HETATM    1  N   UNL     1      -8.417   3.497 -31.301  1.00  0.00    -0.054 N 
HETATM    2  H   UNL     1      -7.673   2.869 -30.942  1.00  0.00     0.281 HD
HETATM    3  C   UNL     1      -8.530   3.273 -32.811  1.00  0.00     0.228 C 
HETATM    4  C   UNL     1      -9.867   3.868 -33.345  1.00  0.00     0.055 C 
HETATM    5  C   UNL     1     -11.112   3.451 -32.539  1.00  0.00     0.065 C 
HETATM    6  C   UNL     1     -10.896   3.771 -31.057  1.00  0.00     0.066 C 
HETATM    7  C   UNL     1      -9.644   3.100 -30.520  1.00  0.00     0.239 C 
HETATM    8  C   UNL     1     -10.079   3.655 -34.854  1.00  0.00     0.010 C 
HETATM    9  C   UNL     1     -11.308   4.422 -35.345  1.00  0.00     0.001 C 
HETATM   10  C   UNL     1     -12.565   4.047 -34.568  1.00  0.00     0.003 C 
HETATM   11  C   UNL     1     -12.370   4.180 -33.055  1.00  0.00     0.038 C 
ENDROOT
BRANCH   1  12
HETATM   12  C   UNL     1      -7.839   4.898 -30.988  1.00  0.00     0.338 C 
BRANCH  12  13
HETATM   13  C   UNL     1      -7.031   5.087 -29.698  1.00  0.00     0.248 C 
HETATM   14  N   UNL     1      -5.762   5.579 -29.735  1.00  0.00    -0.319 N 
HETATM   15  H   UNL     1      -5.498   6.115 -28.913  1.00  0.00     0.169 HD
HETATM   16  O   UNL     1      -7.584   4.983 -28.599  1.00  0.00    -0.271 OA
BRANCH  14  17
HETATM   17  C   UNL     1      -4.852   5.560 -30.761  1.00  0.00     0.094 A 
HETATM   18  C   UNL     1      -4.323   4.574 -31.577  1.00  0.00     0.080 A 
HETATM   19  C   UNL     1      -3.300   5.149 -32.440  1.00  0.00    -0.026 A 
HETATM   20  C   UNL     1      -3.147   6.507 -32.224  1.00  0.00    -0.008 A 
HETATM   21  C   UNL     1      -2.470   4.437 -33.480  1.00  0.00     0.041 C 
HETATM   22  S   UNL     1      -4.088   7.069 -30.933  1.00  0.00    -0.075 SA
HETATM   23  C   UNL     1      -2.197   7.412 -32.949  1.00  0.00     0.047 C 
HETATM   24  C   UNL     1      -1.672   6.734 -34.220  1.00  0.00     0.005 C 
HETATM   25  C   UNL     1      -1.272   5.281 -33.948  1.00  0.00     0.005 C 
BRANCH  18  26
HETATM   26  C   UNL     1      -4.665   3.154 -31.473  1.00  0.00     0.296 C 
HETATM   27  O   UNL     1      -4.793   2.421 -32.450  1.00  0.00    -0.259 OA
BRANCH  26  28
HETATM   28  O   UNL     1      -4.867   2.765 -30.187  1.00  0.00    -0.322 OA
HETATM   29  C   UNL     1      -5.698   1.615 -30.014  1.00  0.00     0.213 C 
ENDBRANCH  26  28
ENDBRANCH  18  26
ENDBRANCH  14  17
ENDBRANCH  12  13
ENDBRANCH   1  12
BRANCH   3  30
HETATM   30  C   UNL     1      -8.115   1.896 -33.322  1.00  0.00    -0.027 A 
HETATM   31  C   UNL     1      -8.400   0.690 -32.666  1.00  0.00     0.012 A 
HETATM   32  C   UNL     1      -8.054  -0.543 -33.233  1.00  0.00     0.043 A 
HETATM   33  C   UNL     1      -7.418  -0.586 -34.464  1.00  0.00     0.116 A 
HETATM   34  F   UNL     1      -7.106  -1.766 -35.010  1.00  0.00    -0.206 F 
HETATM   35  C   UNL     1      -7.115   0.585 -35.140  1.00  0.00     0.043 A 
HETATM   36  C   UNL     1      -7.458   1.816 -34.572  1.00  0.00     0.012 A 
ENDBRANCH   3  30
BRANCH   5  37
HETATM   37  O   UNL     1     -11.313   2.043 -32.630  1.00  0.00    -0.389 OA
HETATM   38  H   UNL     1     -11.386   1.773 -33.564  1.00  0.00     0.210 HD
ENDBRANCH   5  37
TORSDOF 7
ENDMDL
MODEL 10
REMARK VINA RESULT:      -7.2      4.098      6.791
REMARK  7 active torsions:
REMARK  status: ('A' for Active; 'I' for Inactive)
REMARK    1  A    between atoms: O_2  and  C_3 
REMARK    2  A    between atoms: C_3  and  C_4 
REMARK    3  A    between atoms: C_5  and  N_6 
REMARK       I    between atoms: N_6  and  C_7 
REMARK    4  A    between atoms: C_7  and  C_8 
REMARK    5  A    between atoms: C_8  and  N_9 
REMARK    6  A    between atoms: C_11  and  C_12 
REMARK    7  A    between atoms: C_20  and  O_21 
ROOT
HETATM    1  N   UNL     1      -5.166   4.785 -32.566  1.00  0.00    -0.054 N 
HETATM    2  H   UNL     1      -5.305   5.801 -32.408  1.00  0.00     0.281 HD
HETATM    3  C   UNL     1      -5.390   4.069 -31.231  1.00  0.00     0.228 C 
HETATM    4  C   UNL     1      -5.593   2.543 -31.467  1.00  0.00     0.055 C 
HETATM    5  C   UNL     1      -6.624   2.202 -32.559  1.00  0.00     0.065 C 
HETATM    6  C   UNL     1      -6.262   2.936 -33.854  1.00  0.00     0.066 C 
HETATM    7  C   UNL     1      -6.169   4.435 -33.635  1.00  0.00     0.239 C 
HETATM    8  C   UNL     1      -5.861   1.749 -30.176  1.00  0.00     0.010 C 
HETATM    9  C   UNL     1      -5.861   0.245 -30.451  1.00  0.00     0.001 C 
HETATM   10  C   UNL     1      -6.862  -0.138 -31.535  1.00  0.00     0.003 C 
HETATM   11  C   UNL     1      -6.670   0.681 -32.814  1.00  0.00     0.038 C 
ENDROOT
BRANCH   1  12
HETATM   12  C   UNL     1      -3.677   4.722 -32.987  1.00  0.00     0.338 C 
BRANCH  12  13
HETATM   13  C   UNL     1      -3.099   5.878 -33.811  1.00  0.00     0.248 C 
HETATM   14  N   UNL     1      -2.040   6.601 -33.354  1.00  0.00    -0.319 N 
HETATM   15  H   UNL     1      -1.435   6.966 -34.085  1.00  0.00     0.169 HD
HETATM   16  O   UNL     1      -3.455   6.044 -34.982  1.00  0.00    -0.271 OA
BRANCH  14  17
HETATM   17  C   UNL     1      -1.611   6.793 -32.065  1.00  0.00     0.094 A 
HETATM   18  C   UNL     1      -1.825   7.765 -31.102  1.00  0.00     0.080 A 
HETATM   19  C   UNL     1      -1.008   7.481 -29.929  1.00  0.00    -0.026 A 
HETATM   20  C   UNL     1      -0.262   6.326 -30.089  1.00  0.00    -0.008 A 
HETATM   21  C   UNL     1      -0.929   8.277 -28.650  1.00  0.00     0.041 C 
HETATM   22  S   UNL     1      -0.412   5.665 -31.641  1.00  0.00    -0.075 SA
HETATM   23  C   UNL     1       0.670   5.733 -29.075  1.00  0.00     0.047 C 
HETATM   24  C   UNL     1       0.425   6.351 -27.693  1.00  0.00     0.005 C 
HETATM   25  C   UNL     1       0.276   7.872 -27.784  1.00  0.00     0.005 C 
BRANCH  18  26
HETATM   26  C   UNL     1      -2.650   8.957 -31.309  1.00  0.00     0.296 C 
HETATM   27  O   UNL     1      -2.229  10.100 -31.152  1.00  0.00    -0.259 OA
BRANCH  26  28
HETATM   28  O   UNL     1      -3.929   8.647 -31.644  1.00  0.00    -0.322 OA
HETATM   29  C   UNL     1      -4.712   8.055 -30.606  1.00  0.00     0.213 C 
ENDBRANCH  26  28
ENDBRANCH  18  26
ENDBRANCH  14  17
ENDBRANCH  12  13
ENDBRANCH   1  12
BRANCH   3  30
HETATM   30  C   UNL     1      -6.325   4.763 -30.243  1.00  0.00    -0.027 A 
HETATM   31  C   UNL     1      -6.026   4.980 -28.890  1.00  0.00     0.012 A 
HETATM   32  C   UNL     1      -6.901   5.692 -28.060  1.00  0.00     0.043 A 
HETATM   33  C   UNL     1      -8.086   6.197 -28.573  1.00  0.00     0.116 A 
HETATM   34  F   UNL     1      -8.910   6.892 -27.781  1.00  0.00    -0.206 F 
HETATM   35  C   UNL     1      -8.418   5.998 -29.903  1.00  0.00     0.043 A 
HETATM   36  C   UNL     1      -7.546   5.285 -30.731  1.00  0.00     0.012 A 
ENDBRANCH   3  30
BRANCH   5  37
HETATM   37  O   UNL     1      -7.919   2.656 -32.178  1.00  0.00    -0.389 OA
HETATM   38  H   UNL     1      -7.855   3.247 -31.404  1.00  0.00     0.210 HD
ENDBRANCH   5  37
TORSDOF 7
ENDMDL
