MODEL 1
REMARK VINA RESULT:      -7.7      0.000      0.000
REMARK  9 active torsions:
REMARK  status: ('A' for Active; 'I' for Inactive)
REMARK    1  A    between atoms: C_2  and  C_3 
REMARK    2  A    between atoms: C_6  and  N_7 
REMARK    3  A    between atoms: C_8  and  C_10 
REMARK    4  A    between atoms: C_8  and  O_9 
REMARK       I    between atoms: C_10  and  N_11 
REMARK    5  A    between atoms: N_11  and  C_12 
REMARK    6  A    between atoms: C_12  and  C_13 
REMARK    7  A    between atoms: C_13  and  N_14 
REMARK    8  A    between atoms: N_14  and  C_16 
REMARK    9  A    between atoms: N_14  and  C_18 
ROOT
HETATM    1  N   UNL     1      -5.687   3.736 -32.524  1.00  0.00    -0.254 N 
HETATM    2  C   UNL     1      -6.214   2.619 -31.712  1.00  0.00     0.256 C 
HETATM    3  C   UNL     1      -7.505   2.005 -32.211  1.00  0.00     0.034 A 
HETATM    4  C   UNL     1      -8.177   2.604 -33.262  1.00  0.00     0.048 A 
HETATM    5  N   UNL     1      -7.655   3.759 -33.817  1.00  0.00    -0.308 N 
HETATM    6  C   UNL     1      -6.482   4.355 -33.480  1.00  0.00     0.330 C 
HETATM    7  O   UNL     1      -6.205   5.398 -34.070  1.00  0.00    -0.246 OA
HETATM    8  C   UNL     1      -8.084   0.870 -31.611  1.00  0.00     0.015 A 
HETATM    9  C   UNL     1      -9.277   0.334 -32.099  1.00  0.00     0.001 A 
HETATM   10  C   UNL     1      -9.922   0.939 -33.173  1.00  0.00     0.002 A 
HETATM   11  C   UNL     1      -9.378   2.084 -33.751  1.00  0.00     0.030 A 
HETATM   12  H   UNL     1      -8.177   4.250 -34.535  1.00  0.00     0.170 HD
ENDROOT
BRANCH   2  13
HETATM   13  C   UNL     1      -5.128   1.425 -31.668  1.00  0.00     0.279 C 
HETATM   14  N   UNL     1      -4.925   0.740 -32.852  1.00  0.00    -0.355 N 
HETATM   15  H   UNL     1      -5.483   1.050 -33.645  1.00  0.00     0.162 HD
HETATM   16  O   UNL     1      -4.556   1.070 -30.634  1.00  0.00    -0.268 OA
BRANCH  14  17
HETATM   17  C   UNL     1      -3.982  -0.345 -33.102  1.00  0.00     0.150 C 
BRANCH  17  18
HETATM   18  C   UNL     1      -4.506  -1.798 -33.054  1.00  0.00     0.254 C 
BRANCH  18  19
HETATM   19  N   UNL     1      -5.345  -2.194 -34.261  1.00  0.00    -0.070 N 
HETATM   20  H   UNL     1      -4.978  -1.579 -35.019  1.00  0.00     0.279 HD
BRANCH  19  21
HETATM   21  C   UNL     1      -5.131  -3.591 -34.797  1.00  0.00     0.230 C 
HETATM   22  C   UNL     1      -6.439  -4.329 -35.010  1.00  0.00     0.034 C 
ENDBRANCH  19  21
BRANCH  19  23
HETATM   23  C   UNL     1      -6.809  -1.841 -34.124  1.00  0.00     0.230 C 
HETATM   24  C   UNL     1      -7.190  -0.699 -35.050  1.00  0.00     0.034 C 
ENDBRANCH  19  23
ENDBRANCH  18  19
ENDBRANCH  17  18
ENDBRANCH  14  17
ENDBRANCH   2  13
BRANCH   2  25
HETATM   25  O   UNL     1      -6.520   3.139 -30.429  1.00  0.00    -0.359 OA
HETATM   26  H   UNL     1      -7.462   2.938 -30.299  1.00  0.00     0.213 HD
ENDBRANCH   2  25
BRANCH   1  27
HETATM   27  C   UNL     1      -4.322   4.195 -32.304  1.00  0.00     0.043 A 
HETATM   28  C   UNL     1      -3.287   3.931 -33.218  1.00  0.00     0.030 A 
HETATM   29  C   UNL     1      -2.016   4.504 -33.069  1.00  0.00     0.009 A 
HETATM   30  C   UNL     1      -1.743   5.360 -32.001  1.00  0.00    -0.058 A 
HETATM   31  C   UNL     1      -2.752   5.613 -31.072  1.00  0.00     0.009 A 
HETATM   32  C   UNL     1      -4.018   5.034 -31.219  1.00  0.00     0.030 A 
BRANCH  30  33
HETATM   33  C   UNL     1      -0.396   6.025 -31.867  1.00  0.00     0.034 C 
HETATM   34  C   UNL     1      -0.013   6.211 -30.404  1.00  0.00     0.010 C 
ENDBRANCH  30  33
ENDBRANCH   1  27
TORSDOF 9
ENDMDL
MODEL 2
REMARK VINA RESULT:      -7.6      3.137      6.689
REMARK  9 active torsions:
REMARK  status: ('A' for Active; 'I' for Inactive)
REMARK    1  A    between atoms: C_2  and  C_3 
REMARK    2  A    between atoms: C_6  and  N_7 
REMARK    3  A    between atoms: C_8  and  C_10 
REMARK    4  A    between atoms: C_8  and  O_9 
REMARK       I    between atoms: C_10  and  N_11 
REMARK    5  A    between atoms: N_11  and  C_12 
REMARK    6  A    between atoms: C_12  and  C_13 
REMARK    7  A    between atoms: C_13  and  N_14 
REMARK    8  A    between atoms: N_14  and  C_16 
REMARK    9  A    between atoms: N_14  and  C_18 
ROOT
HETATM    1  N   UNL     1      -7.078   2.156 -32.901  1.00  0.00    -0.254 N 
HETATM    2  C   UNL     1      -8.050   2.160 -31.787  1.00  0.00     0.256 C 
HETATM    3  C   UNL     1      -8.748   3.480 -31.538  1.00  0.00     0.034 A 
HETATM    4  C   UNL     1      -8.336   4.605 -32.232  1.00  0.00     0.048 A 
HETATM    5  N   UNL     1      -7.285   4.492 -33.123  1.00  0.00    -0.308 N 
HETATM    6  C   UNL     1      -6.632   3.348 -33.458  1.00  0.00     0.330 C 
HETATM    7  O   UNL     1      -5.698   3.458 -34.251  1.00  0.00    -0.246 OA
HETATM    8  C   UNL     1      -9.773   3.625 -30.584  1.00  0.00     0.015 A 
HETATM    9  C   UNL     1     -10.392   4.861 -30.381  1.00  0.00     0.001 A 
HETATM   10  C   UNL     1      -9.978   5.972 -31.109  1.00  0.00     0.002 A 
HETATM   11  C   UNL     1      -8.940   5.849 -32.030  1.00  0.00     0.030 A 
HETATM   12  H   UNL     1      -6.923   5.322 -33.580  1.00  0.00     0.170 HD
ENDROOT
BRANCH   2  13
HETATM   13  C   UNL     1      -9.211   1.078 -32.081  1.00  0.00     0.279 C 
HETATM   14  N   UNL     1     -10.136   1.421 -33.051  1.00  0.00    -0.355 N 
HETATM   15  H   UNL     1     -10.001   2.331 -33.489  1.00  0.00     0.162 HD
HETATM   16  O   UNL     1      -9.339   0.032 -31.438  1.00  0.00    -0.268 OA
BRANCH  14  17
HETATM   17  C   UNL     1     -11.253   0.621 -33.539  1.00  0.00     0.150 C 
BRANCH  17  18
HETATM   18  C   UNL     1     -12.520   1.355 -34.034  1.00  0.00     0.254 C 
BRANCH  18  19
HETATM   19  N   UNL     1     -13.404   1.888 -32.916  1.00  0.00    -0.070 N 
HETATM   20  H   UNL     1     -13.088   1.346 -32.082  1.00  0.00     0.279 HD
BRANCH  19  21
HETATM   21  C   UNL     1     -13.181   3.328 -32.514  1.00  0.00     0.230 C 
HETATM   22  C   UNL     1     -13.823   3.656 -31.180  1.00  0.00     0.034 C 
ENDBRANCH  19  21
BRANCH  19  23
HETATM   23  C   UNL     1     -14.869   1.552 -33.088  1.00  0.00     0.230 C 
HETATM   24  C   UNL     1     -15.098   0.703 -34.326  1.00  0.00     0.034 C 
ENDBRANCH  19  23
ENDBRANCH  18  19
ENDBRANCH  17  18
ENDBRANCH  14  17
ENDBRANCH   2  13
BRANCH   2  25
HETATM   25  O   UNL     1      -7.327   1.891 -30.597  1.00  0.00    -0.359 OA
HETATM   26  H   UNL     1      -7.290   2.743 -30.132  1.00  0.00     0.213 HD
ENDBRANCH   2  25
BRANCH   1  27
HETATM   27  C   UNL     1      -6.578   0.884 -33.406  1.00  0.00     0.043 A 
HETATM   28  C   UNL     1      -5.610   0.133 -32.717  1.00  0.00     0.030 A 
HETATM   29  C   UNL     1      -5.250  -1.156 -33.135  1.00  0.00     0.009 A 
HETATM   30  C   UNL     1      -5.849  -1.732 -34.256  1.00  0.00    -0.058 A 
HETATM   31  C   UNL     1      -6.794  -0.991 -34.965  1.00  0.00     0.009 A 
HETATM   32  C   UNL     1      -7.147   0.298 -34.549  1.00  0.00     0.030 A 
BRANCH  30  33
HETATM   33  C   UNL     1      -5.509  -3.140 -34.678  1.00  0.00     0.034 C 
HETATM   34  C   UNL     1      -6.765  -3.962 -34.932  1.00  0.00     0.010 C 
ENDBRANCH  30  33
ENDBRANCH   1  27
TORSDOF 9
ENDMDL
MODEL 3
REMARK VINA RESULT:      -7.6      2.315      6.761
REMARK  9 active torsions:
REMARK  status: ('A' for Active; 'I' for Inactive)
REMARK    1  A    between atoms: C_2  and  C_3 
REMARK    2  A    between atoms: C_6  and  N_7 
REMARK    3  A    between atoms: C_8  and  C_10 
REMARK    4  A    between atoms: C_8  and  O_9 
REMARK       I    between atoms: C_10  and  N_11 
REMARK    5  A    between atoms: N_11  and  C_12 
REMARK    6  A    between atoms: C_12  and  C_13 
REMARK    7  A    between atoms: C_13  and  N_14 
REMARK    8  A    between atoms: N_14  and  C_16 
REMARK    9  A    between atoms: N_14  and  C_18 
ROOT
HETATM    1  N   UNL     1      -7.848   1.377 -32.610  1.00  0.00    -0.254 N 
HETATM    2  C   UNL     1      -7.254   2.729 -32.546  1.00  0.00     0.256 C 
HETATM    3  C   UNL     1      -7.993   3.723 -31.675  1.00  0.00     0.034 A 
HETATM    4  C   UNL     1      -9.221   3.372 -31.140  1.00  0.00     0.048 A 
HETATM    5  N   UNL     1      -9.745   2.126 -31.432  1.00  0.00    -0.308 N 
HETATM    6  C   UNL     1      -9.140   1.147 -32.153  1.00  0.00     0.330 C 
HETATM    7  O   UNL     1      -9.784   0.114 -32.329  1.00  0.00    -0.246 OA
HETATM    8  C   UNL     1      -7.505   5.020 -31.427  1.00  0.00     0.015 A 
HETATM    9  C   UNL     1      -8.216   5.910 -30.619  1.00  0.00     0.001 A 
HETATM   10  C   UNL     1      -9.437   5.526 -30.072  1.00  0.00     0.002 A 
HETATM   11  C   UNL     1      -9.948   4.258 -30.341  1.00  0.00     0.030 A 
HETATM   12  H   UNL     1     -10.676   1.887 -31.110  1.00  0.00     0.170 HD
ENDROOT
BRANCH   2  13
HETATM   13  C   UNL     1      -5.754   2.631 -31.955  1.00  0.00     0.279 C 
HETATM   14  N   UNL     1      -4.732   2.974 -32.822  1.00  0.00    -0.355 N 
HETATM   15  H   UNL     1      -5.021   3.254 -33.758  1.00  0.00     0.162 HD
HETATM   16  O   UNL     1      -5.500   2.202 -30.826  1.00  0.00    -0.268 OA
BRANCH  14  17
HETATM   17  C   UNL     1      -3.302   3.014 -32.540  1.00  0.00     0.150 C 
BRANCH  17  18
HETATM   18  C   UNL     1      -2.741   4.227 -31.764  1.00  0.00     0.254 C 
BRANCH  18  19
HETATM   19  N   UNL     1      -1.475   4.817 -32.368  1.00  0.00    -0.070 N 
HETATM   20  H   UNL     1      -1.050   4.007 -32.870  1.00  0.00     0.279 HD
BRANCH  19  21
HETATM   21  C   UNL     1      -1.668   5.851 -33.453  1.00  0.00     0.230 C 
HETATM   22  C   UNL     1      -1.436   5.277 -34.838  1.00  0.00     0.034 C 
ENDBRANCH  19  21
BRANCH  19  23
HETATM   23  C   UNL     1      -0.450   5.238 -31.337  1.00  0.00     0.230 C 
HETATM   24  C   UNL     1      -0.021   6.680 -31.545  1.00  0.00     0.034 C 
ENDBRANCH  19  23
ENDBRANCH  18  19
ENDBRANCH  17  18
ENDBRANCH  14  17
ENDBRANCH   2  13
BRANCH   2  25
HETATM   25  O   UNL     1      -7.302   3.272 -33.854  1.00  0.00    -0.359 OA
HETATM   26  H   UNL     1      -6.884   4.146 -33.775  1.00  0.00     0.213 HD
ENDBRANCH   2  25
BRANCH   1  27
HETATM   27  C   UNL     1      -7.068   0.282 -33.172  1.00  0.00     0.043 A 
HETATM   28  C   UNL     1      -6.265  -0.551 -32.374  1.00  0.00     0.030 A 
HETATM   29  C   UNL     1      -5.640  -1.689 -32.903  1.00  0.00     0.009 A 
HETATM   30  C   UNL     1      -5.801  -2.028 -34.247  1.00  0.00    -0.058 A 
HETATM   31  C   UNL     1      -6.576  -1.199 -35.058  1.00  0.00     0.009 A 
HETATM   32  C   UNL     1      -7.193  -0.059 -34.528  1.00  0.00     0.030 A 
BRANCH  30  33
HETATM   33  C   UNL     1      -5.180  -3.283 -34.809  1.00  0.00     0.034 C 
HETATM   34  C   UNL     1      -6.243  -4.297 -35.208  1.00  0.00     0.010 C 
ENDBRANCH  30  33
ENDBRANCH   1  27
TORSDOF 9
ENDMDL
MODEL 4
REMARK VINA RESULT:      -7.6      2.587      6.353
REMARK  9 active torsions:
REMARK  status: ('A' for Active; 'I' for Inactive)
REMARK    1  A    between atoms: C_2  and  C_3 
REMARK    2  A    between atoms: C_6  and  N_7 
REMARK    3  A    between atoms: C_8  and  C_10 
REMARK    4  A    between atoms: C_8  and  O_9 
REMARK       I    between atoms: C_10  and  N_11 
REMARK    5  A    between atoms: N_11  and  C_12 
REMARK    6  A    between atoms: C_12  and  C_13 
REMARK    7  A    between atoms: C_13  and  N_14 
REMARK    8  A    between atoms: N_14  and  C_16 
REMARK    9  A    between atoms: N_14  and  C_18 
ROOT
HETATM    1  N   UNL     1      -5.724   2.524 -31.344  1.00  0.00    -0.254 N 
HETATM    2  C   UNL     1      -6.697   2.986 -30.331  1.00  0.00     0.256 C 
HETATM    3  C   UNL     1      -6.392   4.329 -29.701  1.00  0.00     0.034 A 
HETATM    4  C   UNL     1      -5.185   4.948 -29.979  1.00  0.00     0.048 A 
HETATM    5  N   UNL     1      -4.285   4.312 -30.814  1.00  0.00    -0.308 N 
HETATM    6  C   UNL     1      -4.484   3.138 -31.469  1.00  0.00     0.330 C 
HETATM    7  O   UNL     1      -3.546   2.717 -32.144  1.00  0.00    -0.246 OA
HETATM    8  C   UNL     1      -7.269   4.956 -28.796  1.00  0.00     0.015 A 
HETATM    9  C   UNL     1      -6.952   6.195 -28.234  1.00  0.00     0.001 A 
HETATM   10  C   UNL     1      -5.744   6.810 -28.548  1.00  0.00     0.002 A 
HETATM   11  C   UNL     1      -4.852   6.182 -29.414  1.00  0.00     0.030 A 
HETATM   12  H   UNL     1      -3.367   4.717 -30.964  1.00  0.00     0.170 HD
ENDROOT
BRANCH   2  13
HETATM   13  C   UNL     1      -8.157   3.120 -31.006  1.00  0.00     0.279 C 
HETATM   14  N   UNL     1      -8.262   4.001 -32.067  1.00  0.00    -0.355 N 
HETATM   15  H   UNL     1      -7.405   4.489 -32.323  1.00  0.00     0.162 HD
HETATM   16  O   UNL     1      -9.158   2.542 -30.571  1.00  0.00    -0.268 OA
BRANCH  14  17
HETATM   17  C   UNL     1      -9.441   4.282 -32.877  1.00  0.00     0.150 C 
BRANCH  17  18
HETATM   18  C   UNL     1     -10.026   3.142 -33.742  1.00  0.00     0.254 C 
BRANCH  18  19
HETATM   19  N   UNL     1     -11.060   2.288 -33.023  1.00  0.00    -0.070 N 
HETATM   20  H   UNL     1     -10.706   2.261 -32.041  1.00  0.00     0.279 HD
BRANCH  19  21
HETATM   21  C   UNL     1     -12.444   2.879 -32.890  1.00  0.00     0.230 C 
HETATM   22  C   UNL     1     -13.504   2.004 -33.531  1.00  0.00     0.034 C 
ENDBRANCH  19  21
BRANCH  19  23
HETATM   23  C   UNL     1     -11.084   0.847 -33.485  1.00  0.00     0.230 C 
HETATM   24  C   UNL     1      -9.950   0.050 -32.864  1.00  0.00     0.034 C 
ENDBRANCH  19  23
ENDBRANCH  18  19
ENDBRANCH  17  18
ENDBRANCH  14  17
ENDBRANCH   2  13
BRANCH   2  25
HETATM   25  O   UNL     1      -6.662   2.057 -29.260  1.00  0.00    -0.359 OA
HETATM   26  H   UNL     1      -6.219   2.530 -28.535  1.00  0.00     0.213 HD
ENDBRANCH   2  25
BRANCH   1  27
HETATM   27  C   UNL     1      -6.074   1.405 -32.208  1.00  0.00     0.043 A 
HETATM   28  C   UNL     1      -6.365   1.576 -33.573  1.00  0.00     0.030 A 
HETATM   29  C   UNL     1      -6.552   0.477 -34.423  1.00  0.00     0.009 A 
HETATM   30  C   UNL     1      -6.452  -0.826 -33.934  1.00  0.00    -0.058 A 
HETATM   31  C   UNL     1      -6.186  -1.012 -32.578  1.00  0.00     0.009 A 
HETATM   32  C   UNL     1      -6.007   0.086 -31.729  1.00  0.00     0.030 A 
BRANCH  30  33
HETATM   33  C   UNL     1      -6.594  -2.012 -34.855  1.00  0.00     0.034 C 
HETATM   34  C   UNL     1      -5.357  -2.899 -34.812  1.00  0.00     0.010 C 
ENDBRANCH  30  33
ENDBRANCH   1  27
TORSDOF 9
ENDMDL
MODEL 5
REMARK VINA RESULT:      -7.4      2.130      7.469
REMARK  9 active torsions:
REMARK  status: ('A' for Active; 'I' for Inactive)
REMARK    1  A    between atoms: C_2  and  C_3 
REMARK    2  A    between atoms: C_6  and  N_7 
REMARK    3  A    between atoms: C_8  and  C_10 
REMARK    4  A    between atoms: C_8  and  O_9 
REMARK       I    between atoms: C_10  and  N_11 
REMARK    5  A    between atoms: N_11  and  C_12 
REMARK    6  A    between atoms: C_12  and  C_13 
REMARK    7  A    between atoms: C_13  and  N_14 
REMARK    8  A    between atoms: N_14  and  C_16 
REMARK    9  A    between atoms: N_14  and  C_18 
ROOT
HETATM    1  N   UNL     1      -7.551  -0.038 -33.100  1.00  0.00    -0.254 N 
HETATM    2  C   UNL     1      -6.795   0.469 -31.934  1.00  0.00     0.256 C 
HETATM    3  C   UNL     1      -5.330   0.088 -31.894  1.00  0.00     0.034 A 
HETATM    4  C   UNL     1      -4.838  -0.810 -32.826  1.00  0.00     0.048 A 
HETATM    5  N   UNL     1      -5.706  -1.347 -33.758  1.00  0.00    -0.308 N 
HETATM    6  C   UNL     1      -7.018  -1.031 -33.913  1.00  0.00     0.330 C 
HETATM    7  O   UNL     1      -7.634  -1.643 -34.784  1.00  0.00    -0.246 OA
HETATM    8  C   UNL     1      -4.449   0.573 -30.908  1.00  0.00     0.015 A 
HETATM    9  C   UNL     1      -3.104   0.198 -30.903  1.00  0.00     0.001 A 
HETATM   10  C   UNL     1      -2.627  -0.687 -31.865  1.00  0.00     0.002 A 
HETATM   11  C   UNL     1      -3.497  -1.202 -32.823  1.00  0.00     0.030 A 
HETATM   12  H   UNL     1      -5.376  -2.063 -34.396  1.00  0.00     0.170 HD
ENDROOT
BRANCH   2  13
HETATM   13  C   UNL     1      -6.848   2.082 -31.917  1.00  0.00     0.279 C 
HETATM   14  N   UNL     1      -6.142   2.728 -32.916  1.00  0.00    -0.355 N 
HETATM   15  H   UNL     1      -5.649   2.124 -33.572  1.00  0.00     0.162 HD
HETATM   16  O   UNL     1      -7.410   2.730 -31.030  1.00  0.00    -0.268 OA
BRANCH  14  17
HETATM   17  C   UNL     1      -6.054   4.163 -33.159  1.00  0.00     0.150 C 
BRANCH  17  18
HETATM   18  C   UNL     1      -5.119   4.662 -34.284  1.00  0.00     0.254 C 
BRANCH  18  19
HETATM   19  N   UNL     1      -3.647   4.692 -33.899  1.00  0.00    -0.070 N 
HETATM   20  H   UNL     1      -3.356   3.694 -33.990  1.00  0.00     0.279 HD
BRANCH  19  21
HETATM   21  C   UNL     1      -2.722   5.425 -34.842  1.00  0.00     0.230 C 
HETATM   22  C   UNL     1      -1.986   6.559 -34.156  1.00  0.00     0.034 C 
ENDBRANCH  19  21
BRANCH  19  23
HETATM   23  C   UNL     1      -3.407   5.054 -32.449  1.00  0.00     0.230 C 
HETATM   24  C   UNL     1      -2.718   3.923 -31.706  1.00  0.00     0.034 C 
ENDBRANCH  19  23
ENDBRANCH  18  19
ENDBRANCH  17  18
ENDBRANCH  14  17
ENDBRANCH   2  13
BRANCH   2  25
HETATM   25  O   UNL     1      -7.364  -0.119 -30.776  1.00  0.00    -0.359 OA
HETATM   26  H   UNL     1      -8.185  -0.536 -31.088  1.00  0.00     0.213 HD
ENDBRANCH   2  25
BRANCH   1  27
HETATM   27  C   UNL     1      -8.871   0.507 -33.384  1.00  0.00     0.043 A 
HETATM   28  C   UNL     1      -9.063   1.578 -34.275  1.00  0.00     0.030 A 
HETATM   29  C   UNL     1     -10.348   1.992 -34.653  1.00  0.00     0.009 A 
HETATM   30  C   UNL     1     -11.480   1.347 -34.151  1.00  0.00    -0.058 A 
HETATM   31  C   UNL     1     -11.306   0.299 -33.248  1.00  0.00     0.009 A 
HETATM   32  C   UNL     1     -10.022  -0.109 -32.867  1.00  0.00     0.030 A 
BRANCH  30  33
HETATM   33  C   UNL     1     -12.863   1.751 -34.598  1.00  0.00     0.034 C 
HETATM   34  C   UNL     1     -13.895   0.696 -34.225  1.00  0.00     0.010 C 
ENDBRANCH  30  33
ENDBRANCH   1  27
TORSDOF 9
ENDMDL
MODEL 6
REMARK VINA RESULT:      -7.3      2.571      5.706
REMARK  9 active torsions:
REMARK  status: ('A' for Active; 'I' for Inactive)
REMARK    1  A    between atoms: C_2  and  C_3 
REMARK    2  A    between atoms: C_6  and  N_7 
REMARK    3  A    between atoms: C_8  and  C_10 
REMARK    4  A    between atoms: C_8  and  O_9 
REMARK       I    between atoms: C_10  and  N_11 
REMARK    5  A    between atoms: N_11  and  C_12 
REMARK    6  A    between atoms: C_12  and  C_13 
REMARK    7  A    between atoms: C_13  and  N_14 
REMARK    8  A    between atoms: N_14  and  C_16 
REMARK    9  A    between atoms: N_14  and  C_18 
ROOT
HETATM    1  N   UNL     1      -5.264   1.534 -32.488  1.00  0.00    -0.254 N 
HETATM    2  C   UNL     1      -6.288   0.880 -33.330  1.00  0.00     0.256 C 
HETATM    3  C   UNL     1      -5.968  -0.535 -33.761  1.00  0.00     0.034 A 
HETATM    4  C   UNL     1      -4.715  -1.059 -33.490  1.00  0.00     0.048 A 
HETATM    5  N   UNL     1      -3.785  -0.264 -32.846  1.00  0.00    -0.308 N 
HETATM    6  C   UNL     1      -3.990   0.992 -32.371  1.00  0.00     0.330 C 
HETATM    7  O   UNL     1      -3.024   1.550 -31.852  1.00  0.00    -0.246 OA
HETATM    8  C   UNL     1      -6.881  -1.331 -34.480  1.00  0.00     0.015 A 
HETATM    9  C   UNL     1      -6.548  -2.633 -34.862  1.00  0.00     0.001 A 
HETATM   10  C   UNL     1      -5.292  -3.146 -34.556  1.00  0.00     0.002 A 
HETATM   11  C   UNL     1      -4.367  -2.355 -33.878  1.00  0.00     0.030 A 
HETATM   12  H   UNL     1      -2.841  -0.608 -32.710  1.00  0.00     0.170 HD
ENDROOT
BRANCH   2  13
HETATM   13  C   UNL     1      -7.684   0.807 -32.523  1.00  0.00     0.279 C 
HETATM   14  N   UNL     1      -8.761   1.451 -33.104  1.00  0.00    -0.355 N 
HETATM   15  H   UNL     1      -8.573   1.917 -33.990  1.00  0.00     0.162 HD
HETATM   16  O   UNL     1      -7.794   0.283 -31.411  1.00  0.00    -0.268 OA
BRANCH  14  17
HETATM   17  C   UNL     1     -10.134   1.508 -32.615  1.00  0.00     0.150 C 
BRANCH  17  18
HETATM   18  C   UNL     1     -11.214   2.129 -33.530  1.00  0.00     0.254 C 
BRANCH  18  19
HETATM   19  N   UNL     1     -12.637   1.933 -33.029  1.00  0.00    -0.070 N 
HETATM   20  H   UNL     1     -12.507   1.386 -32.150  1.00  0.00     0.279 HD
BRANCH  19  21
HETATM   21  C   UNL     1     -13.365   3.176 -32.574  1.00  0.00     0.230 C 
HETATM   22  C   UNL     1     -14.651   2.850 -31.838  1.00  0.00     0.034 C 
ENDBRANCH  19  21
BRANCH  19  23
HETATM   23  C   UNL     1     -13.482   1.060 -33.930  1.00  0.00     0.230 C 
HETATM   24  C   UNL     1     -13.278  -0.412 -33.621  1.00  0.00     0.034 C 
ENDBRANCH  19  23
ENDBRANCH  18  19
ENDBRANCH  17  18
ENDBRANCH  14  17
ENDBRANCH   2  13
BRANCH   2  25
HETATM   25  O   UNL     1      -6.380   1.624 -34.534  1.00  0.00    -0.359 OA
HETATM   26  H   UNL     1      -6.914   2.403 -34.304  1.00  0.00     0.213 HD
ENDBRANCH   2  25
BRANCH   1  27
HETATM   27  C   UNL     1      -5.599   2.765 -31.786  1.00  0.00     0.043 A 
HETATM   28  C   UNL     1      -5.772   2.810 -30.392  1.00  0.00     0.030 A 
HETATM   29  C   UNL     1      -5.946   4.025 -29.715  1.00  0.00     0.009 A 
HETATM   30  C   UNL     1      -5.950   5.233 -30.412  1.00  0.00    -0.058 A 
HETATM   31  C   UNL     1      -5.804   5.205 -31.799  1.00  0.00     0.009 A 
HETATM   32  C   UNL     1      -5.637   3.990 -32.474  1.00  0.00     0.030 A 
BRANCH  30  33
HETATM   33  C   UNL     1      -6.079   6.548 -29.683  1.00  0.00     0.034 C 
HETATM   34  C   UNL     1      -5.823   6.381 -28.192  1.00  0.00     0.010 C 
ENDBRANCH  30  33
ENDBRANCH   1  27
TORSDOF 9
ENDMDL
MODEL 7
REMARK VINA RESULT:      -7.2      2.079      6.905
REMARK  9 active torsions:
REMARK  status: ('A' for Active; 'I' for Inactive)
REMARK    1  A    between atoms: C_2  and  C_3 
REMARK    2  A    between atoms: C_6  and  N_7 
REMARK    3  A    between atoms: C_8  and  C_10 
REMARK    4  A    between atoms: C_8  and  O_9 
REMARK       I    between atoms: C_10  and  N_11 
REMARK    5  A    between atoms: N_11  and  C_12 
REMARK    6  A    between atoms: C_12  and  C_13 
REMARK    7  A    between atoms: C_13  and  N_14 
REMARK    8  A    between atoms: N_14  and  C_16 
REMARK    9  A    between atoms: N_14  and  C_18 
ROOT
HETATM    1  N   UNL     1      -6.239   1.679 -31.569  1.00  0.00    -0.254 N 
HETATM    2  C   UNL     1      -6.482   3.022 -32.136  1.00  0.00     0.256 C 
HETATM    3  C   UNL     1      -6.667   4.132 -31.123  1.00  0.00     0.034 A 
HETATM    4  C   UNL     1      -6.757   3.814 -29.779  1.00  0.00     0.048 A 
HETATM    5  N   UNL     1      -6.691   2.485 -29.402  1.00  0.00    -0.308 N 
HETATM    6  C   UNL     1      -6.472   1.425 -30.222  1.00  0.00     0.330 C 
HETATM    7  O   UNL     1      -6.478   0.312 -29.699  1.00  0.00    -0.246 OA
HETATM    8  C   UNL     1      -6.806   5.482 -31.498  1.00  0.00     0.015 A 
HETATM    9  C   UNL     1      -6.977   6.479 -30.534  1.00  0.00     0.001 A 
HETATM   10  C   UNL     1      -7.039   6.137 -29.187  1.00  0.00     0.002 A 
HETATM   11  C   UNL     1      -6.940   4.800 -28.806  1.00  0.00     0.030 A 
HETATM   12  H   UNL     1      -6.832   2.232 -28.430  1.00  0.00     0.170 HD
ENDROOT
BRANCH   2  13
HETATM   13  C   UNL     1      -5.230   3.452 -33.060  1.00  0.00     0.279 C 
HETATM   14  N   UNL     1      -4.012   3.580 -32.418  1.00  0.00    -0.355 N 
HETATM   15  H   UNL     1      -4.017   3.394 -31.417  1.00  0.00     0.162 HD
HETATM   16  O   UNL     1      -5.340   3.734 -34.257  1.00  0.00    -0.268 OA
BRANCH  14  17
HETATM   17  C   UNL     1      -2.723   3.913 -33.013  1.00  0.00     0.150 C 
BRANCH  17  18
HETATM   18  C   UNL     1      -1.965   5.150 -32.479  1.00  0.00     0.254 C 
BRANCH  18  19
HETATM   19  N   UNL     1      -2.067   5.335 -30.972  1.00  0.00    -0.070 N 
HETATM   20  H   UNL     1      -2.357   4.390 -30.634  1.00  0.00     0.279 HD
BRANCH  19  21
HETATM   21  C   UNL     1      -0.772   5.596 -30.239  1.00  0.00     0.230 C 
HETATM   22  C   UNL     1       0.382   5.852 -31.189  1.00  0.00     0.034 C 
ENDBRANCH  19  21
BRANCH  19  23
HETATM   23  C   UNL     1      -3.175   6.274 -30.550  1.00  0.00     0.230 C 
HETATM   24  C   UNL     1      -3.489   7.281 -31.642  1.00  0.00     0.034 C 
ENDBRANCH  19  23
ENDBRANCH  18  19
ENDBRANCH  17  18
ENDBRANCH  14  17
ENDBRANCH   2  13
BRANCH   2  25
HETATM   25  O   UNL     1      -7.706   2.962 -32.850  1.00  0.00    -0.359 OA
HETATM   26  H   UNL     1      -8.368   3.327 -32.238  1.00  0.00     0.213 HD
ENDBRANCH   2  25
BRANCH   1  27
HETATM   27  C   UNL     1      -5.762   0.614 -32.440  1.00  0.00     0.043 A 
HETATM   28  C   UNL     1      -4.451   0.113 -32.361  1.00  0.00     0.030 A 
HETATM   29  C   UNL     1      -4.052  -1.010 -33.099  1.00  0.00     0.009 A 
HETATM   30  C   UNL     1      -4.954  -1.667 -33.938  1.00  0.00    -0.058 A 
HETATM   31  C   UNL     1      -6.252  -1.169 -34.045  1.00  0.00     0.009 A 
HETATM   32  C   UNL     1      -6.646  -0.043 -33.312  1.00  0.00     0.030 A 
BRANCH  30  33
HETATM   33  C   UNL     1      -4.547  -2.910 -34.690  1.00  0.00     0.034 C 
HETATM   34  C   UNL     1      -5.760  -3.748 -35.072  1.00  0.00     0.010 C 
ENDBRANCH  30  33
ENDBRANCH   1  27
TORSDOF 9
ENDMDL
MODEL 8
REMARK VINA RESULT:      -7.2      2.824      6.722
REMARK  9 active torsions:
REMARK  status: ('A' for Active; 'I' for Inactive)
REMARK    1  A    between atoms: C_2  and  C_3 
REMARK    2  A    between atoms: C_6  and  N_7 
REMARK    3  A    between atoms: C_8  and  C_10 
REMARK    4  A    between atoms: C_8  and  O_9 
REMARK       I    between atoms: C_10  and  N_11 
REMARK    5  A    between atoms: N_11  and  C_12 
REMARK    6  A    between atoms: C_12  and  C_13 
REMARK    7  A    between atoms: C_13  and  N_14 
REMARK    8  A    between atoms: N_14  and  C_16 
REMARK    9  A    between atoms: N_14  and  C_18 
ROOT
HETATM    1  N   UNL     1      -9.910   1.591 -33.603  1.00  0.00    -0.254 N 
HETATM    2  C   UNL     1      -9.888   3.040 -33.895  1.00  0.00     0.256 C 
HETATM    3  C   UNL     1     -11.108   3.814 -33.440  1.00  0.00     0.034 A 
HETATM    4  C   UNL     1     -12.200   3.125 -32.942  1.00  0.00     0.048 A 
HETATM    5  N   UNL     1     -12.151   1.744 -32.891  1.00  0.00    -0.308 N 
HETATM    6  C   UNL     1     -11.089   0.962 -33.221  1.00  0.00     0.330 C 
HETATM    7  O   UNL     1     -11.252  -0.254 -33.137  1.00  0.00    -0.246 OA
HETATM    8  C   UNL     1     -11.199   5.215 -33.550  1.00  0.00     0.015 A 
HETATM    9  C   UNL     1     -12.341   5.894 -33.121  1.00  0.00     0.001 A 
HETATM   10  C   UNL     1     -13.417   5.181 -32.600  1.00  0.00     0.002 A 
HETATM   11  C   UNL     1     -13.353   3.791 -32.520  1.00  0.00     0.030 A 
HETATM   12  H   UNL     1     -12.972   1.223 -32.601  1.00  0.00     0.170 HD
ENDROOT
BRANCH   2  13
HETATM   13  C   UNL     1      -8.618   3.718 -33.165  1.00  0.00     0.279 C 
HETATM   14  N   UNL     1      -7.585   4.127 -33.988  1.00  0.00    -0.355 N 
HETATM   15  H   UNL     1      -7.720   3.959 -34.984  1.00  0.00     0.162 HD
HETATM   16  O   UNL     1      -8.513   3.806 -31.938  1.00  0.00    -0.268 OA
BRANCH  14  17
HETATM   17  C   UNL     1      -6.350   4.798 -33.601  1.00  0.00     0.150 C 
BRANCH  17  18
HETATM   18  C   UNL     1      -5.024   4.318 -34.233  1.00  0.00     0.254 C 
BRANCH  18  19
HETATM   19  N   UNL     1      -3.780   4.894 -33.574  1.00  0.00    -0.070 N 
HETATM   20  H   UNL     1      -4.167   5.473 -32.796  1.00  0.00     0.279 HD
BRANCH  19  21
HETATM   21  C   UNL     1      -2.876   3.909 -32.870  1.00  0.00     0.230 C 
HETATM   22  C   UNL     1      -3.628   2.680 -32.395  1.00  0.00     0.034 C 
ENDBRANCH  19  21
BRANCH  19  23
HETATM   23  C   UNL     1      -3.016   5.858 -34.456  1.00  0.00     0.230 C 
HETATM   24  C   UNL     1      -1.549   5.476 -34.547  1.00  0.00     0.034 C 
ENDBRANCH  19  23
ENDBRANCH  18  19
ENDBRANCH  17  18
ENDBRANCH  14  17
ENDBRANCH   2  13
BRANCH   2  25
HETATM   25  O   UNL     1      -9.861   3.185 -35.305  1.00  0.00    -0.359 OA
HETATM   26  H   UNL     1     -10.471   2.503 -35.636  1.00  0.00     0.213 HD
ENDBRANCH   2  25
BRANCH   1  27
HETATM   27  C   UNL     1      -8.682   0.820 -33.731  1.00  0.00     0.043 A 
HETATM   28  C   UNL     1      -7.958   0.374 -32.612  1.00  0.00     0.030 A 
HETATM   29  C   UNL     1      -6.863  -0.492 -32.747  1.00  0.00     0.009 A 
HETATM   30  C   UNL     1      -6.460  -0.938 -34.006  1.00  0.00    -0.058 A 
HETATM   31  C   UNL     1      -7.153  -0.486 -35.129  1.00  0.00     0.009 A 
HETATM   32  C   UNL     1      -8.242   0.384 -34.992  1.00  0.00     0.030 A 
BRANCH  30  33
HETATM   33  C   UNL     1      -5.321  -1.915 -34.153  1.00  0.00     0.034 C 
HETATM   34  C   UNL     1      -5.729  -3.122 -34.987  1.00  0.00     0.010 C 
ENDBRANCH  30  33
ENDBRANCH   1  27
TORSDOF 9
ENDMDL
MODEL 9
REMARK VINA RESULT:      -7.0     16.110     18.952
REMARK  9 active torsions:
REMARK  status: ('A' for Active; 'I' for Inactive)
REMARK    1  A    between atoms: C_2  and  C_3 
REMARK    2  A    between atoms: C_6  and  N_7 
REMARK    3  A    between atoms: C_8  and  C_10 
REMARK    4  A    between atoms: C_8  and  O_9 
REMARK       I    between atoms: C_10  and  N_11 
REMARK    5  A    between atoms: N_11  and  C_12 
REMARK    6  A    between atoms: C_12  and  C_13 
REMARK    7  A    between atoms: C_13  and  N_14 
REMARK    8  A    between atoms: N_14  and  C_16 
REMARK    9  A    between atoms: N_14  and  C_18 
ROOT
HETATM    1  N   UNL     1      -4.407 -13.334 -39.346  1.00  0.00    -0.254 N 
HETATM    2  C   UNL     1      -3.637 -14.085 -40.361  1.00  0.00     0.256 C 
HETATM    3  C   UNL     1      -2.177 -14.313 -40.031  1.00  0.00     0.034 A 
HETATM    4  C   UNL     1      -1.628 -13.693 -38.922  1.00  0.00     0.048 A 
HETATM    5  N   UNL     1      -2.429 -12.867 -38.155  1.00  0.00    -0.308 N 
HETATM    6  C   UNL     1      -3.757 -12.641 -38.332  1.00  0.00     0.330 C 
HETATM    7  O   UNL     1      -4.289 -11.845 -37.560  1.00  0.00    -0.246 OA
HETATM    8  C   UNL     1      -1.332 -15.095 -40.842  1.00  0.00     0.015 A 
HETATM    9  C   UNL     1       0.010 -15.282 -40.506  1.00  0.00     0.001 A 
HETATM   10  C   UNL     1       0.533 -14.668 -39.372  1.00  0.00     0.002 A 
HETATM   11  C   UNL     1      -0.283 -13.862 -38.583  1.00  0.00     0.030 A 
HETATM   12  H   UNL     1      -2.021 -12.346 -37.386  1.00  0.00     0.170 HD
ENDROOT
BRANCH   2  13
HETATM   13  C   UNL     1      -4.293 -15.546 -40.563  1.00  0.00     0.279 C 
HETATM   14  N   UNL     1      -4.930 -15.768 -41.770  1.00  0.00    -0.355 N 
HETATM   15  H   UNL     1      -4.929 -14.986 -42.422  1.00  0.00     0.162 HD
HETATM   16  O   UNL     1      -4.312 -16.406 -39.678  1.00  0.00    -0.268 OA
BRANCH  14  17
HETATM   17  C   UNL     1      -5.566 -16.998 -42.228  1.00  0.00     0.150 C 
BRANCH  17  18
HETATM   18  C   UNL     1      -7.103 -17.012 -42.396  1.00  0.00     0.254 C 
BRANCH  18  19
HETATM   19  N   UNL     1      -7.857 -16.368 -41.242  1.00  0.00    -0.070 N 
HETATM   20  H   UNL     1      -7.319 -15.492 -41.063  1.00  0.00     0.279 HD
BRANCH  19  21
HETATM   21  C   UNL     1      -9.253 -15.875 -41.545  1.00  0.00     0.230 C 
HETATM   22  C   UNL     1      -9.824 -16.509 -42.799  1.00  0.00     0.034 C 
ENDBRANCH  19  21
BRANCH  19  23
HETATM   23  C   UNL     1      -7.786 -17.159 -39.954  1.00  0.00     0.230 C 
HETATM   24  C   UNL     1      -9.125 -17.168 -39.238  1.00  0.00     0.034 C 
ENDBRANCH  19  23
ENDBRANCH  18  19
ENDBRANCH  17  18
ENDBRANCH  14  17
ENDBRANCH   2  13
BRANCH   2  25
HETATM   25  O   UNL     1      -3.634 -13.307 -41.546  1.00  0.00    -0.359 OA
HETATM   26  H   UNL     1      -4.254 -12.581 -41.368  1.00  0.00     0.213 HD
ENDBRANCH   2  25
BRANCH   1  27
HETATM   27  C   UNL     1      -5.861 -13.316 -39.425  1.00  0.00     0.043 A 
HETATM   28  C   UNL     1      -6.672 -13.884 -38.427  1.00  0.00     0.030 A 
HETATM   29  C   UNL     1      -8.065 -13.728 -38.440  1.00  0.00     0.009 A 
HETATM   30  C   UNL     1      -8.689 -12.998 -39.453  1.00  0.00    -0.058 A 
HETATM   31  C   UNL     1      -7.901 -12.448 -40.463  1.00  0.00     0.009 A 
HETATM   32  C   UNL     1      -6.511 -12.611 -40.451  1.00  0.00     0.030 A 
BRANCH  30  33
HETATM   33  C   UNL     1     -10.181 -12.778 -39.441  1.00  0.00     0.034 C 
HETATM   34  C   UNL     1     -10.583 -11.658 -40.391  1.00  0.00     0.010 C 
ENDBRANCH  30  33
ENDBRANCH   1  27
TORSDOF 9
ENDMDL
MODEL 10
REMARK VINA RESULT:      -7.0     15.761     17.532
REMARK  9 active torsions:
REMARK  status: ('A' for Active; 'I' for Inactive)
REMARK    1  A    between atoms: C_2  and  C_3 
REMARK    2  A    between atoms: C_6  and  N_7 
REMARK    3  A    between atoms: C_8  and  C_10 
REMARK    4  A    between atoms: C_8  and  O_9 
REMARK       I    between atoms: C_10  and  N_11 
REMARK    5  A    between atoms: N_11  and  C_12 
REMARK    6  A    between atoms: C_12  and  C_13 
REMARK    7  A    between atoms: C_13  and  N_14 
REMARK    8  A    between atoms: N_14  and  C_16 
REMARK    9  A    between atoms: N_14  and  C_18 
ROOT
HETATM    1  N   UNL     1      -4.139 -13.595 -39.597  1.00  0.00    -0.254 N 
HETATM    2  C   UNL     1      -5.055 -13.389 -38.455  1.00  0.00     0.256 C 
HETATM    3  C   UNL     1      -6.528 -13.347 -38.801  1.00  0.00     0.034 A 
HETATM    4  C   UNL     1      -6.910 -13.342 -40.132  1.00  0.00     0.048 A 
HETATM    5  N   UNL     1      -5.931 -13.359 -41.108  1.00  0.00    -0.308 N 
HETATM    6  C   UNL     1      -4.591 -13.452 -40.903  1.00  0.00     0.330 C 
HETATM    7  O   UNL     1      -3.877 -13.420 -41.904  1.00  0.00    -0.246 OA
HETATM    8  C   UNL     1      -7.533 -13.259 -37.820  1.00  0.00     0.015 A 
HETATM    9  C   UNL     1      -8.882 -13.221 -38.178  1.00  0.00     0.001 A 
HETATM   10  C   UNL     1      -9.244 -13.242 -39.522  1.00  0.00     0.002 A 
HETATM   11  C   UNL     1      -8.256 -13.291 -40.504  1.00  0.00     0.030 A 
HETATM   12  H   UNL     1      -6.195 -13.277 -42.084  1.00  0.00     0.170 HD
ENDROOT
BRANCH   2  13
HETATM   13  C   UNL     1      -4.870 -14.590 -37.392  1.00  0.00     0.279 C 
HETATM   14  N   UNL     1      -4.187 -14.279 -36.230  1.00  0.00    -0.355 N 
HETATM   15  H   UNL     1      -3.860 -13.317 -36.153  1.00  0.00     0.162 HD
HETATM   16  O   UNL     1      -5.235 -15.748 -37.612  1.00  0.00    -0.268 OA
BRANCH  14  17
HETATM   17  C   UNL     1      -3.916 -15.153 -35.095  1.00  0.00     0.150 C 
BRANCH  17  18
HETATM   18  C   UNL     1      -5.019 -15.332 -34.026  1.00  0.00     0.254 C 
BRANCH  18  19
HETATM   19  N   UNL     1      -5.007 -14.265 -32.941  1.00  0.00    -0.070 N 
HETATM   20  H   UNL     1      -4.009 -13.964 -32.913  1.00  0.00     0.279 HD
BRANCH  19  21
HETATM   21  C   UNL     1      -5.759 -12.990 -33.246  1.00  0.00     0.230 C 
HETATM   22  C   UNL     1      -6.949 -13.230 -34.155  1.00  0.00     0.034 C 
ENDBRANCH  19  21
BRANCH  19  23
HETATM   23  C   UNL     1      -5.309 -14.803 -31.559  1.00  0.00     0.230 C 
HETATM   24  C   UNL     1      -4.591 -16.117 -31.310  1.00  0.00     0.034 C 
ENDBRANCH  19  23
ENDBRANCH  18  19
ENDBRANCH  17  18
ENDBRANCH  14  17
ENDBRANCH   2  13
BRANCH   2  25
HETATM   25  O   UNL     1      -4.764 -12.113 -37.909  1.00  0.00    -0.359 OA
HETATM   26  H   UNL     1      -5.434 -11.981 -37.216  1.00  0.00     0.213 HD
ENDBRANCH   2  25
BRANCH   1  27
HETATM   27  C   UNL     1      -2.748 -13.941 -39.341  1.00  0.00     0.043 A 
HETATM   28  C   UNL     1      -2.190 -15.161 -39.763  1.00  0.00     0.030 A 
HETATM   29  C   UNL     1      -0.816 -15.416 -39.644  1.00  0.00     0.009 A 
HETATM   30  C   UNL     1       0.040 -14.459 -39.099  1.00  0.00    -0.058 A 
HETATM   31  C   UNL     1      -0.501 -13.253 -38.654  1.00  0.00     0.009 A 
HETATM   32  C   UNL     1      -1.874 -13.003 -38.768  1.00  0.00     0.030 A 
BRANCH  30  33
HETATM   33  C   UNL     1       1.527 -14.705 -39.021  1.00  0.00     0.034 C 
HETATM   34  C   UNL     1       1.830 -16.154 -38.664  1.00  0.00     0.010 C 
ENDBRANCH  30  33
ENDBRANCH   1  27
TORSDOF 9
ENDMDL
