MODEL 1
REMARK VINA RESULT:      -8.1      0.000      0.000
REMARK  6 active torsions:
REMARK  status: ('A' for Active; 'I' for Inactive)
REMARK    1  A    between atoms: C_8  and  C_9 
REMARK    2  A    between atoms: C_9  and  C_10 
REMARK       I    between atoms: C_10  and  N_11 
REMARK    3  A    between atoms: N_11  and  C_12 
REMARK    4  A    between atoms: C_12  and  C_13 
REMARK    5  A    between atoms: C_13  and  N_14 
REMARK    6  A    between atoms: C_13  and  C_20 
ROOT
HETATM    1  C   UNL     1      -5.933   1.307 -33.692  1.00  0.00     0.160 C 
ENDROOT
BRANCH   1   2
HETATM    2  N   UNL     1      -5.562   2.355 -32.744  1.00  0.00    -0.358 N 
HETATM    3  C   UNL     1      -4.236   2.501 -32.372  1.00  0.00     0.226 C 
HETATM    4  O   UNL     1      -3.427   1.600 -32.599  1.00  0.00    -0.273 OA
HETATM    5  H   UNL     1      -6.103   3.211 -32.786  1.00  0.00     0.162 HD
BRANCH   3   6
HETATM    6  C   UNL     1      -3.842   3.795 -31.650  1.00  0.00     0.111 C 
HETATM    7  C   UNL     1      -5.014   4.548 -31.023  1.00  0.00     0.025 C 
BRANCH   6   8
HETATM    8  C   UNL     1      -2.967   4.671 -32.502  1.00  0.00     0.004 A 
HETATM    9  C   UNL     1      -1.714   5.157 -32.157  1.00  0.00     0.033 A 
HETATM   10  C   UNL     1      -0.882   4.987 -30.940  1.00  0.00     0.070 C 
HETATM   11  N   UNL     1      -1.284   5.899 -33.219  1.00  0.00    -0.282 N 
HETATM   12  H   UNL     1      -0.408   6.403 -33.323  1.00  0.00     0.189 HD
HETATM   13  N   UNL     1      -2.162   5.945 -34.225  1.00  0.00    -0.179 NA
HETATM   14  C   UNL     1      -3.194   5.209 -33.804  1.00  0.00     0.060 A 
HETATM   15  C   UNL     1      -4.363   5.062 -34.708  1.00  0.00     0.073 C 
ENDBRANCH   6   8
ENDBRANCH   3   6
ENDBRANCH   1   2
BRANCH   1  16
HETATM   16  C   UNL     1      -6.620   0.023 -33.115  1.00  0.00     0.238 C 
BRANCH  16  17
HETATM   17  N   UNL     1      -8.125  -0.069 -33.404  1.00  0.00    -0.061 N 
HETATM   18  H   UNL     1      -8.283  -1.076 -33.542  1.00  0.00     0.280 HD
HETATM   19  C   UNL     1      -8.656   0.601 -34.647  1.00  0.00     0.236 C 
HETATM   20  C   UNL     1      -9.553   1.701 -34.121  1.00  0.00     0.029 C 
HETATM   21  C   UNL     1     -10.172   1.077 -32.888  1.00  0.00     0.029 C 
HETATM   22  C   UNL     1      -9.024   0.319 -32.248  1.00  0.00     0.236 C 
ENDBRANCH  16  17
BRANCH  16  23
HETATM   23  C   UNL     1      -5.933  -1.269 -33.549  1.00  0.00    -0.024 A 
HETATM   24  C   UNL     1      -6.574  -2.246 -34.330  1.00  0.00     0.033 A 
HETATM   25  C   UNL     1      -5.910  -3.427 -34.677  1.00  0.00     0.034 A 
HETATM   26 CL   UNL     1      -6.726  -4.603 -35.630  1.00  0.00    -0.084 Cl
HETATM   27  C   UNL     1      -4.607  -3.658 -34.254  1.00  0.00     0.024 A 
HETATM   28  C   UNL     1      -3.957  -2.703 -33.475  1.00  0.00     0.002 A 
HETATM   29  C   UNL     1      -4.615  -1.521 -33.122  1.00  0.00     0.009 A 
ENDBRANCH  16  23
ENDBRANCH   1  16
TORSDOF 6
ENDMDL
MODEL 2
REMARK VINA RESULT:      -8.1      3.358      7.203
REMARK  6 active torsions:
REMARK  status: ('A' for Active; 'I' for Inactive)
REMARK    1  A    between atoms: C_8  and  C_9 
REMARK    2  A    between atoms: C_9  and  C_10 
REMARK       I    between atoms: C_10  and  N_11 
REMARK    3  A    between atoms: N_11  and  C_12 
REMARK    4  A    between atoms: C_12  and  C_13 
REMARK    5  A    between atoms: C_13  and  N_14 
REMARK    6  A    between atoms: C_13  and  C_20 
ROOT
HETATM    1  C   UNL     1      -8.582   0.273 -33.712  1.00  0.00     0.160 C 
ENDROOT
BRANCH   1   2
HETATM    2  N   UNL     1      -9.640   1.020 -34.388  1.00  0.00    -0.358 N 
HETATM    3  C   UNL     1     -10.944   0.919 -33.935  1.00  0.00     0.226 C 
HETATM    4  O   UNL     1     -11.265   0.009 -33.171  1.00  0.00    -0.273 OA
HETATM    5  H   UNL     1      -9.378   1.919 -34.777  1.00  0.00     0.162 HD
BRANCH   3   6
HETATM    6  C   UNL     1     -11.954   1.954 -34.448  1.00  0.00     0.111 C 
HETATM    7  C   UNL     1     -11.323   3.237 -34.986  1.00  0.00     0.025 C 
BRANCH   6   8
HETATM    8  C   UNL     1     -13.052   2.210 -33.454  1.00  0.00     0.004 A 
HETATM    9  C   UNL     1     -12.973   3.043 -32.348  1.00  0.00     0.033 A 
HETATM   10  C   UNL     1     -11.879   3.895 -31.820  1.00  0.00     0.070 C 
HETATM   11  N   UNL     1     -14.190   2.979 -31.732  1.00  0.00    -0.282 N 
HETATM   12  H   UNL     1     -14.498   3.463 -30.893  1.00  0.00     0.189 HD
HETATM   13  N   UNL     1     -15.052   2.162 -32.343  1.00  0.00    -0.179 NA
HETATM   14  C   UNL     1     -14.375   1.680 -33.389  1.00  0.00     0.060 A 
HETATM   15  C   UNL     1     -15.065   0.718 -34.285  1.00  0.00     0.073 C 
ENDBRANCH   6   8
ENDBRANCH   3   6
ENDBRANCH   1   2
BRANCH   1  16
HETATM   16  C   UNL     1      -7.105   0.559 -34.148  1.00  0.00     0.238 C 
BRANCH  16  17
HETATM   17  N   UNL     1      -6.398   1.633 -33.310  1.00  0.00    -0.061 N 
HETATM   18  H   UNL     1      -5.454   1.248 -33.170  1.00  0.00     0.280 HD
HETATM   19  C   UNL     1      -6.928   1.924 -31.928  1.00  0.00     0.236 C 
HETATM   20  C   UNL     1      -7.434   3.348 -32.016  1.00  0.00     0.029 C 
HETATM   21  C   UNL     1      -6.438   4.007 -32.947  1.00  0.00     0.029 C 
HETATM   22  C   UNL     1      -6.186   2.958 -34.014  1.00  0.00     0.236 C 
ENDBRANCH  16  17
BRANCH  16  23
HETATM   23  C   UNL     1      -6.244  -0.700 -34.204  1.00  0.00    -0.024 A 
HETATM   24  C   UNL     1      -6.716  -1.921 -34.716  1.00  0.00     0.033 A 
HETATM   25  C   UNL     1      -5.897  -3.054 -34.718  1.00  0.00     0.034 A 
HETATM   26 CL   UNL     1      -6.507  -4.534 -35.348  1.00  0.00    -0.084 Cl
HETATM   27  C   UNL     1      -4.604  -2.996 -34.212  1.00  0.00     0.024 A 
HETATM   28  C   UNL     1      -4.121  -1.795 -33.697  1.00  0.00     0.002 A 
HETATM   29  C   UNL     1      -4.934  -0.659 -33.688  1.00  0.00     0.009 A 
ENDBRANCH  16  23
ENDBRANCH   1  16
TORSDOF 6
ENDMDL
MODEL 3
REMARK VINA RESULT:      -8.1      3.062      7.167
REMARK  6 active torsions:
REMARK  status: ('A' for Active; 'I' for Inactive)
REMARK    1  A    between atoms: C_8  and  C_9 
REMARK    2  A    between atoms: C_9  and  C_10 
REMARK       I    between atoms: C_10  and  N_11 
REMARK    3  A    between atoms: N_11  and  C_12 
REMARK    4  A    between atoms: C_12  and  C_13 
REMARK    5  A    between atoms: C_13  and  N_14 
REMARK    6  A    between atoms: C_13  and  C_20 
ROOT
HETATM    1  C   UNL     1      -8.340   0.323 -32.779  1.00  0.00     0.160 C 
ENDROOT
BRANCH   1   2
HETATM    2  N   UNL     1      -9.664   0.537 -33.360  1.00  0.00    -0.358 N 
HETATM    3  C   UNL     1     -10.246   1.791 -33.288  1.00  0.00     0.226 C 
HETATM    4  O   UNL     1      -9.803   2.635 -32.509  1.00  0.00    -0.273 OA
HETATM    5  H   UNL     1      -9.883  -0.003 -34.189  1.00  0.00     0.162 HD
BRANCH   3   6
HETATM    6  C   UNL     1     -11.464   2.058 -34.182  1.00  0.00     0.111 C 
HETATM    7  C   UNL     1     -11.306   3.254 -35.120  1.00  0.00     0.025 C 
BRANCH   6   8
HETATM    8  C   UNL     1     -12.743   2.093 -33.394  1.00  0.00     0.004 A 
HETATM    9  C   UNL     1     -13.660   1.058 -33.280  1.00  0.00     0.033 A 
HETATM   10  C   UNL     1     -13.685  -0.315 -33.841  1.00  0.00     0.070 C 
HETATM   11  N   UNL     1     -14.661   1.519 -32.475  1.00  0.00    -0.282 N 
HETATM   12  H   UNL     1     -15.500   1.033 -32.169  1.00  0.00     0.189 HD
HETATM   13  N   UNL     1     -14.475   2.777 -32.063  1.00  0.00    -0.179 NA
HETATM   14  C   UNL     1     -13.317   3.144 -32.617  1.00  0.00     0.060 A 
HETATM   15  C   UNL     1     -12.820   4.518 -32.354  1.00  0.00     0.073 C 
ENDBRANCH   6   8
ENDBRANCH   3   6
ENDBRANCH   1   2
BRANCH   1  16
HETATM   16  C   UNL     1      -7.099   0.567 -33.704  1.00  0.00     0.238 C 
BRANCH  16  17
HETATM   17  N   UNL     1      -6.168   1.689 -33.223  1.00  0.00    -0.061 N 
HETATM   18  H   UNL     1      -5.227   1.319 -33.410  1.00  0.00     0.280 HD
HETATM   19  C   UNL     1      -6.181   2.050 -31.758  1.00  0.00     0.236 C 
HETATM   20  C   UNL     1      -6.722   3.463 -31.728  1.00  0.00     0.029 C 
HETATM   21  C   UNL     1      -6.138   4.079 -32.982  1.00  0.00     0.029 C 
HETATM   22  C   UNL     1      -6.254   2.976 -34.018  1.00  0.00     0.236 C 
ENDBRANCH  16  17
BRANCH  16  23
HETATM   23  C   UNL     1      -6.287  -0.700 -33.961  1.00  0.00    -0.024 A 
HETATM   24  C   UNL     1      -6.848  -1.861 -34.520  1.00  0.00     0.033 A 
HETATM   25  C   UNL     1      -6.069  -3.006 -34.710  1.00  0.00     0.034 A 
HETATM   26 CL   UNL     1      -6.788  -4.412 -35.392  1.00  0.00    -0.084 Cl
HETATM   27  C   UNL     1      -4.728  -3.020 -34.346  1.00  0.00     0.024 A 
HETATM   28  C   UNL     1      -4.156  -1.879 -33.787  1.00  0.00     0.002 A 
HETATM   29  C   UNL     1      -4.929  -0.731 -33.592  1.00  0.00     0.009 A 
ENDBRANCH  16  23
ENDBRANCH   1  16
TORSDOF 6
ENDMDL
MODEL 4
REMARK VINA RESULT:      -7.9      2.912      6.308
REMARK  6 active torsions:
REMARK  status: ('A' for Active; 'I' for Inactive)
REMARK    1  A    between atoms: C_8  and  C_9 
REMARK    2  A    between atoms: C_9  and  C_10 
REMARK       I    between atoms: C_10  and  N_11 
REMARK    3  A    between atoms: N_11  and  C_12 
REMARK    4  A    between atoms: C_12  and  C_13 
REMARK    5  A    between atoms: C_13  and  N_14 
REMARK    6  A    between atoms: C_13  and  C_20 
ROOT
HETATM    1  C   UNL     1      -8.245   0.557 -32.943  1.00  0.00     0.160 C 
ENDROOT
BRANCH   1   2
HETATM    2  N   UNL     1      -9.398   1.393 -33.272  1.00  0.00    -0.358 N 
HETATM    3  C   UNL     1      -9.902   2.265 -32.322  1.00  0.00     0.226 C 
HETATM    4  O   UNL     1      -9.583   2.142 -31.139  1.00  0.00    -0.273 OA
HETATM    5  H   UNL     1      -9.468   1.703 -34.234  1.00  0.00     0.162 HD
BRANCH   3   6
HETATM    6  C   UNL     1     -10.881   3.344 -32.801  1.00  0.00     0.111 C 
HETATM    7  C   UNL     1     -11.928   3.748 -31.765  1.00  0.00     0.025 C 
BRANCH   6   8
HETATM    8  C   UNL     1     -11.475   3.010 -34.140  1.00  0.00     0.004 A 
HETATM    9  C   UNL     1     -11.284   3.718 -35.317  1.00  0.00     0.033 A 
HETATM   10  C   UNL     1     -10.493   4.934 -35.630  1.00  0.00     0.070 C 
HETATM   11  N   UNL     1     -12.002   3.066 -36.278  1.00  0.00    -0.282 N 
HETATM   12  H   UNL     1     -12.093   3.297 -37.264  1.00  0.00     0.189 HD
HETATM   13  N   UNL     1     -12.654   1.994 -35.818  1.00  0.00    -0.179 NA
HETATM   14  C   UNL     1     -12.351   1.949 -34.518  1.00  0.00     0.060 A 
HETATM   15  C   UNL     1     -12.935   0.854 -33.702  1.00  0.00     0.073 C 
ENDBRANCH   6   8
ENDBRANCH   3   6
ENDBRANCH   1   2
BRANCH   1  16
HETATM   16  C   UNL     1      -6.960   0.721 -33.824  1.00  0.00     0.238 C 
BRANCH  16  17
HETATM   17  N   UNL     1      -6.005   1.823 -33.344  1.00  0.00    -0.061 N 
HETATM   18  H   UNL     1      -5.073   1.439 -33.547  1.00  0.00     0.280 HD
HETATM   19  C   UNL     1      -5.994   2.168 -31.875  1.00  0.00     0.236 C 
HETATM   20  C   UNL     1      -6.511   3.590 -31.823  1.00  0.00     0.029 C 
HETATM   21  C   UNL     1      -5.932   4.209 -33.078  1.00  0.00     0.029 C 
HETATM   22  C   UNL     1      -6.080   3.120 -34.124  1.00  0.00     0.236 C 
ENDBRANCH  16  17
BRANCH  16  23
HETATM   23  C   UNL     1      -6.190  -0.584 -34.008  1.00  0.00    -0.024 A 
HETATM   24  C   UNL     1      -6.777  -1.744 -34.542  1.00  0.00     0.033 A 
HETATM   25  C   UNL     1      -6.037  -2.923 -34.663  1.00  0.00     0.034 A 
HETATM   26 CL   UNL     1      -6.787  -4.326 -35.317  1.00  0.00    -0.084 Cl
HETATM   27  C   UNL     1      -4.710  -2.973 -34.254  1.00  0.00     0.024 A 
HETATM   28  C   UNL     1      -4.113  -1.834 -33.718  1.00  0.00     0.002 A 
HETATM   29  C   UNL     1      -4.846  -0.651 -33.592  1.00  0.00     0.009 A 
ENDBRANCH  16  23
ENDBRANCH   1  16
TORSDOF 6
ENDMDL
MODEL 5
REMARK VINA RESULT:      -7.8      2.046      3.881
REMARK  6 active torsions:
REMARK  status: ('A' for Active; 'I' for Inactive)
REMARK    1  A    between atoms: C_8  and  C_9 
REMARK    2  A    between atoms: C_9  and  C_10 
REMARK       I    between atoms: C_10  and  N_11 
REMARK    3  A    between atoms: N_11  and  C_12 
REMARK    4  A    between atoms: C_12  and  C_13 
REMARK    5  A    between atoms: C_13  and  N_14 
REMARK    6  A    between atoms: C_13  and  C_20 
ROOT
HETATM    1  C   UNL     1      -6.067   1.211 -31.871  1.00  0.00     0.160 C 
ENDROOT
BRANCH   1   2
HETATM    2  N   UNL     1      -5.443   2.451 -31.419  1.00  0.00    -0.358 N 
HETATM    3  C   UNL     1      -4.132   2.724 -31.772  1.00  0.00     0.226 C 
HETATM    4  O   UNL     1      -3.409   1.828 -32.207  1.00  0.00    -0.273 OA
HETATM    5  H   UNL     1      -6.052   3.257 -31.336  1.00  0.00     0.162 HD
BRANCH   3   6
HETATM    6  C   UNL     1      -3.627   4.158 -31.566  1.00  0.00     0.111 C 
HETATM    7  C   UNL     1      -4.497   5.005 -30.639  1.00  0.00     0.025 C 
BRANCH   6   8
HETATM    8  C   UNL     1      -3.321   4.839 -32.870  1.00  0.00     0.004 A 
HETATM    9  C   UNL     1      -2.100   5.386 -33.239  1.00  0.00     0.033 A 
HETATM   10  C   UNL     1      -0.796   5.471 -32.538  1.00  0.00     0.070 C 
HETATM   11  N   UNL     1      -2.271   5.893 -34.495  1.00  0.00    -0.282 N 
HETATM   12  H   UNL     1      -1.589   6.365 -35.083  1.00  0.00     0.189 HD
HETATM   13  N   UNL     1      -3.509   5.731 -34.970  1.00  0.00    -0.179 NA
HETATM   14  C   UNL     1      -4.163   5.097 -33.993  1.00  0.00     0.060 A 
HETATM   15  C   UNL     1      -5.595   4.767 -34.210  1.00  0.00     0.073 C 
ENDBRANCH   6   8
ENDBRANCH   3   6
ENDBRANCH   1   2
BRANCH   1  16
HETATM   16  C   UNL     1      -6.612   1.170 -33.339  1.00  0.00     0.238 C 
BRANCH  16  17
HETATM   17  N   UNL     1      -5.963   0.093 -34.220  1.00  0.00    -0.061 N 
HETATM   18  H   UNL     1      -5.336   0.629 -34.835  1.00  0.00     0.280 HD
HETATM   19  C   UNL     1      -6.851  -0.707 -35.142  1.00  0.00     0.236 C 
HETATM   20  C   UNL     1      -6.771  -2.119 -34.602  1.00  0.00     0.029 C 
HETATM   21  C   UNL     1      -5.335  -2.224 -34.134  1.00  0.00     0.029 C 
HETATM   22  C   UNL     1      -5.063  -0.880 -33.485  1.00  0.00     0.236 C 
ENDBRANCH  16  17
BRANCH  16  23
HETATM   23  C   UNL     1      -8.131   1.047 -33.410  1.00  0.00    -0.024 A 
HETATM   24  C   UNL     1      -8.931   1.931 -34.155  1.00  0.00     0.033 A 
HETATM   25  C   UNL     1     -10.323   1.793 -34.165  1.00  0.00     0.034 A 
HETATM   26 CL   UNL     1     -11.271   2.895 -35.083  1.00  0.00    -0.084 Cl
HETATM   27  C   UNL     1     -10.941   0.784 -33.436  1.00  0.00     0.024 A 
HETATM   28  C   UNL     1     -10.163  -0.098 -32.689  1.00  0.00     0.002 A 
HETATM   29  C   UNL     1      -8.772   0.034 -32.672  1.00  0.00     0.009 A 
ENDBRANCH  16  23
ENDBRANCH   1  16
TORSDOF 6
ENDMDL
MODEL 6
REMARK VINA RESULT:      -7.6      1.359      1.800
REMARK  6 active torsions:
REMARK  status: ('A' for Active; 'I' for Inactive)
REMARK    1  A    between atoms: C_8  and  C_9 
REMARK    2  A    between atoms: C_9  and  C_10 
REMARK       I    between atoms: C_10  and  N_11 
REMARK    3  A    between atoms: N_11  and  C_12 
REMARK    4  A    between atoms: C_12  and  C_13 
REMARK    5  A    between atoms: C_13  and  N_14 
REMARK    6  A    between atoms: C_13  and  C_20 
ROOT
HETATM    1  C   UNL     1      -5.234   0.927 -30.710  1.00  0.00     0.160 C 
ENDROOT
BRANCH   1   2
HETATM    2  N   UNL     1      -5.142   2.385 -30.707  1.00  0.00    -0.358 N 
HETATM    3  C   UNL     1      -4.001   2.998 -31.195  1.00  0.00     0.226 C 
HETATM    4  O   UNL     1      -2.970   2.345 -31.360  1.00  0.00    -0.273 OA
HETATM    5  H   UNL     1      -6.009   2.890 -30.852  1.00  0.00     0.162 HD
BRANCH   3   6
HETATM    6  C   UNL     1      -4.073   4.504 -31.480  1.00  0.00     0.111 C 
HETATM    7  C   UNL     1      -5.272   5.207 -30.847  1.00  0.00     0.025 C 
BRANCH   6   8
HETATM    8  C   UNL     1      -3.917   4.807 -32.943  1.00  0.00     0.004 A 
HETATM    9  C   UNL     1      -2.723   5.073 -33.599  1.00  0.00     0.033 A 
HETATM   10  C   UNL     1      -1.319   5.137 -33.123  1.00  0.00     0.070 C 
HETATM   11  N   UNL     1      -3.045   5.289 -34.908  1.00  0.00    -0.282 N 
HETATM   12  H   UNL     1      -2.424   5.507 -35.683  1.00  0.00     0.189 HD
HETATM   13  N   UNL     1      -4.354   5.195 -35.156  1.00  0.00    -0.179 NA
HETATM   14  C   UNL     1      -4.901   4.909 -33.972  1.00  0.00     0.060 A 
HETATM   15  C   UNL     1      -6.375   4.742 -33.904  1.00  0.00     0.073 C 
ENDBRANCH   6   8
ENDBRANCH   3   6
ENDBRANCH   1   2
BRANCH   1  16
HETATM   16  C   UNL     1      -6.320   0.274 -31.632  1.00  0.00     0.238 C 
BRANCH  16  17
HETATM   17  N   UNL     1      -7.223   1.284 -32.353  1.00  0.00    -0.061 N 
HETATM   18  H   UNL     1      -6.871   2.196 -32.030  1.00  0.00     0.280 HD
HETATM   19  C   UNL     1      -8.697   1.280 -32.033  1.00  0.00     0.236 C 
HETATM   20  C   UNL     1      -9.357   0.854 -33.327  1.00  0.00     0.029 C 
HETATM   21  C   UNL     1      -8.488   1.503 -34.383  1.00  0.00     0.029 C 
HETATM   22  C   UNL     1      -7.076   1.314 -33.860  1.00  0.00     0.236 C 
ENDBRANCH  16  17
BRANCH  16  23
HETATM   23  C   UNL     1      -5.733  -0.705 -32.645  1.00  0.00    -0.024 A 
HETATM   24  C   UNL     1      -6.515  -1.654 -33.326  1.00  0.00     0.033 A 
HETATM   25  C   UNL     1      -5.924  -2.549 -34.224  1.00  0.00     0.034 A 
HETATM   26 CL   UNL     1      -6.910  -3.700 -35.037  1.00  0.00    -0.084 Cl
HETATM   27  C   UNL     1      -4.555  -2.520 -34.456  1.00  0.00     0.024 A 
HETATM   28  C   UNL     1      -3.763  -1.589 -33.787  1.00  0.00     0.002 A 
HETATM   29  C   UNL     1      -4.345  -0.693 -32.886  1.00  0.00     0.009 A 
ENDBRANCH  16  23
ENDBRANCH   1  16
TORSDOF 6
ENDMDL
MODEL 7
REMARK VINA RESULT:      -7.5      1.711      2.464
REMARK  6 active torsions:
REMARK  status: ('A' for Active; 'I' for Inactive)
REMARK    1  A    between atoms: C_8  and  C_9 
REMARK    2  A    between atoms: C_9  and  C_10 
REMARK       I    between atoms: C_10  and  N_11 
REMARK    3  A    between atoms: N_11  and  C_12 
REMARK    4  A    between atoms: C_12  and  C_13 
REMARK    5  A    between atoms: C_13  and  N_14 
REMARK    6  A    between atoms: C_13  and  C_20 
ROOT
HETATM    1  C   UNL     1      -5.021   1.851 -33.239  1.00  0.00     0.160 C 
ENDROOT
BRANCH   1   2
HETATM    2  N   UNL     1      -4.934   3.098 -32.483  1.00  0.00    -0.358 N 
HETATM    3  C   UNL     1      -3.699   3.687 -32.277  1.00  0.00     0.226 C 
HETATM    4  O   UNL     1      -2.667   3.043 -32.468  1.00  0.00    -0.273 OA
HETATM    5  H   UNL     1      -5.715   3.737 -32.579  1.00  0.00     0.162 HD
BRANCH   3   6
HETATM    6  C   UNL     1      -3.680   5.137 -31.778  1.00  0.00     0.111 C 
HETATM    7  C   UNL     1      -5.057   5.702 -31.433  1.00  0.00     0.025 C 
BRANCH   6   8
HETATM    8  C   UNL     1      -2.886   6.034 -32.685  1.00  0.00     0.004 A 
HETATM    9  C   UNL     1      -2.966   6.073 -34.069  1.00  0.00     0.033 A 
HETATM   10  C   UNL     1      -3.793   5.314 -35.039  1.00  0.00     0.070 C 
HETATM   11  N   UNL     1      -2.079   7.027 -34.479  1.00  0.00    -0.282 N 
HETATM   12  H   UNL     1      -1.871   7.330 -35.426  1.00  0.00     0.189 HD
HETATM   13  N   UNL     1      -1.420   7.606 -33.471  1.00  0.00    -0.179 NA
HETATM   14  C   UNL     1      -1.893   7.011 -32.373  1.00  0.00     0.060 A 
HETATM   15  C   UNL     1      -1.348   7.434 -31.059  1.00  0.00     0.073 C 
ENDBRANCH   6   8
ENDBRANCH   3   6
ENDBRANCH   1   2
BRANCH   1  16
HETATM   16  C   UNL     1      -5.808   0.664 -32.586  1.00  0.00     0.238 C 
BRANCH  16  17
HETATM   17  N   UNL     1      -7.323   0.703 -32.830  1.00  0.00    -0.061 N 
HETATM   18  H   UNL     1      -7.527  -0.223 -33.227  1.00  0.00     0.280 HD
HETATM   19  C   UNL     1      -7.860   1.701 -33.826  1.00  0.00     0.236 C 
HETATM   20  C   UNL     1      -8.695   2.648 -32.991  1.00  0.00     0.029 C 
HETATM   21  C   UNL     1      -9.304   1.735 -31.947  1.00  0.00     0.029 C 
HETATM   22  C   UNL     1      -8.171   0.795 -31.578  1.00  0.00     0.236 C 
ENDBRANCH  16  17
BRANCH  16  23
HETATM   23  C   UNL     1      -5.259  -0.705 -32.978  1.00  0.00    -0.024 A 
HETATM   24  C   UNL     1      -4.307  -1.392 -32.205  1.00  0.00     0.033 A 
HETATM   25  C   UNL     1      -3.813  -2.632 -32.622  1.00  0.00     0.034 A 
HETATM   26 CL   UNL     1      -2.646  -3.443 -31.654  1.00  0.00    -0.084 Cl
HETATM   27  C   UNL     1      -4.250  -3.206 -33.810  1.00  0.00     0.024 A 
HETATM   28  C   UNL     1      -5.190  -2.537 -34.591  1.00  0.00     0.002 A 
HETATM   29  C   UNL     1      -5.687  -1.297 -34.182  1.00  0.00     0.009 A 
ENDBRANCH  16  23
ENDBRANCH   1  16
TORSDOF 6
ENDMDL
MODEL 8
REMARK VINA RESULT:      -7.5      1.934      2.560
REMARK  6 active torsions:
REMARK  status: ('A' for Active; 'I' for Inactive)
REMARK    1  A    between atoms: C_8  and  C_9 
REMARK    2  A    between atoms: C_9  and  C_10 
REMARK       I    between atoms: C_10  and  N_11 
REMARK    3  A    between atoms: N_11  and  C_12 
REMARK    4  A    between atoms: C_12  and  C_13 
REMARK    5  A    between atoms: C_13  and  N_14 
REMARK    6  A    between atoms: C_13  and  C_20 
ROOT
HETATM    1  C   UNL     1      -6.408   1.247 -32.749  1.00  0.00     0.160 C 
ENDROOT
BRANCH   1   2
HETATM    2  N   UNL     1      -6.936   2.255 -31.833  1.00  0.00    -0.358 N 
HETATM    3  C   UNL     1      -6.209   2.602 -30.706  1.00  0.00     0.226 C 
HETATM    4  O   UNL     1      -5.286   1.884 -30.321  1.00  0.00    -0.273 OA
HETATM    5  H   UNL     1      -7.481   3.001 -32.251  1.00  0.00     0.162 HD
BRANCH   3   6
HETATM    6  C   UNL     1      -6.625   3.876 -29.960  1.00  0.00     0.111 C 
HETATM    7  C   UNL     1      -7.956   4.469 -30.420  1.00  0.00     0.025 C 
BRANCH   6   8
HETATM    8  C   UNL     1      -5.515   4.887 -29.911  1.00  0.00     0.004 A 
HETATM    9  C   UNL     1      -5.133   5.628 -28.802  1.00  0.00     0.033 A 
HETATM   10  C   UNL     1      -5.641   5.666 -27.409  1.00  0.00     0.070 C 
HETATM   11  N   UNL     1      -4.091   6.412 -29.205  1.00  0.00    -0.282 N 
HETATM   12  H   UNL     1      -3.556   7.081 -28.657  1.00  0.00     0.189 HD
HETATM   13  N   UNL     1      -3.769   6.249 -30.491  1.00  0.00    -0.179 NA
HETATM   14  C   UNL     1      -4.629   5.330 -30.939  1.00  0.00     0.060 A 
HETATM   15  C   UNL     1      -4.538   4.923 -32.364  1.00  0.00     0.073 C 
ENDBRANCH   6   8
ENDBRANCH   3   6
ENDBRANCH   1   2
BRANCH   1  16
HETATM   16  C   UNL     1      -7.159  -0.126 -32.822  1.00  0.00     0.238 C 
BRANCH  16  17
HETATM   17  N   UNL     1      -8.505  -0.069 -33.557  1.00  0.00    -0.061 N 
HETATM   18  H   UNL     1      -8.562  -0.982 -34.027  1.00  0.00     0.280 HD
HETATM   19  C   UNL     1      -8.682   0.962 -34.644  1.00  0.00     0.236 C 
HETATM   20  C   UNL     1      -9.751   1.890 -34.107  1.00  0.00     0.029 C 
HETATM   21  C   UNL     1     -10.671   0.950 -33.355  1.00  0.00     0.029 C 
HETATM   22  C   UNL     1      -9.723  -0.008 -32.658  1.00  0.00     0.236 C 
ENDBRANCH  16  17
BRANCH  16  23
HETATM   23  C   UNL     1      -6.301  -1.246 -33.404  1.00  0.00    -0.024 A 
HETATM   24  C   UNL     1      -6.838  -2.291 -34.176  1.00  0.00     0.033 A 
HETATM   25  C   UNL     1      -6.014  -3.310 -34.663  1.00  0.00     0.034 A 
HETATM   26 CL   UNL     1      -6.704  -4.576 -35.600  1.00  0.00    -0.084 Cl
HETATM   27  C   UNL     1      -4.651  -3.312 -34.390  1.00  0.00     0.024 A 
HETATM   28  C   UNL     1      -4.103  -2.285 -33.624  1.00  0.00     0.002 A 
HETATM   29  C   UNL     1      -4.920  -1.264 -33.131  1.00  0.00     0.009 A 
ENDBRANCH  16  23
ENDBRANCH   1  16
TORSDOF 6
ENDMDL
MODEL 9
REMARK VINA RESULT:      -7.4      3.183      6.068
REMARK  6 active torsions:
REMARK  status: ('A' for Active; 'I' for Inactive)
REMARK    1  A    between atoms: C_8  and  C_9 
REMARK    2  A    between atoms: C_9  and  C_10 
REMARK       I    between atoms: C_10  and  N_11 
REMARK    3  A    between atoms: N_11  and  C_12 
REMARK    4  A    between atoms: C_12  and  C_13 
REMARK    5  A    between atoms: C_13  and  N_14 
REMARK    6  A    between atoms: C_13  and  C_20 
ROOT
HETATM    1  C   UNL     1      -7.730   0.160 -33.961  1.00  0.00     0.160 C 
ENDROOT
BRANCH   1   2
HETATM    2  N   UNL     1      -8.287   1.465 -34.309  1.00  0.00    -0.358 N 
HETATM    3  C   UNL     1      -9.440   1.905 -33.682  1.00  0.00     0.226 C 
HETATM    4  O   UNL     1     -10.148   1.112 -33.061  1.00  0.00    -0.273 OA
HETATM    5  H   UNL     1      -7.620   2.187 -34.558  1.00  0.00     0.162 HD
BRANCH   3   6
HETATM    6  C   UNL     1      -9.802   3.389 -33.825  1.00  0.00     0.111 C 
HETATM    7  C   UNL     1      -8.634   4.347 -33.595  1.00  0.00     0.025 C 
BRANCH   6   8
HETATM    8  C   UNL     1     -11.025   3.749 -33.029  1.00  0.00     0.004 A 
HETATM    9  C   UNL     1     -12.275   4.056 -33.547  1.00  0.00     0.033 A 
HETATM   10  C   UNL     1     -12.787   4.120 -34.938  1.00  0.00     0.070 C 
HETATM   11  N   UNL     1     -13.081   4.316 -32.476  1.00  0.00    -0.282 N 
HETATM   12  H   UNL     1     -14.064   4.571 -32.473  1.00  0.00     0.189 HD
HETATM   13  N   UNL     1     -12.452   4.213 -31.301  1.00  0.00    -0.179 NA
HETATM   14  C   UNL     1     -11.199   3.876 -31.618  1.00  0.00     0.060 A 
HETATM   15  C   UNL     1     -10.225   3.687 -30.514  1.00  0.00     0.073 C 
ENDBRANCH   6   8
ENDBRANCH   3   6
ENDBRANCH   1   2
BRANCH   1  16
HETATM   16  C   UNL     1      -6.187   0.080 -33.701  1.00  0.00     0.238 C 
BRANCH  16  17
HETATM   17  N   UNL     1      -5.751   0.619 -32.333  1.00  0.00    -0.061 N 
HETATM   18  H   UNL     1      -4.926   0.050 -32.101  1.00  0.00     0.280 HD
HETATM   19  C   UNL     1      -6.696   0.461 -31.167  1.00  0.00     0.236 C 
HETATM   20  C   UNL     1      -7.079   1.879 -30.803  1.00  0.00     0.029 C 
HETATM   21  C   UNL     1      -5.801   2.652 -31.054  1.00  0.00     0.029 C 
HETATM   22  C   UNL     1      -5.257   2.052 -32.337  1.00  0.00     0.236 C 
ENDBRANCH  16  17
BRANCH  16  23
HETATM   23  C   UNL     1      -5.619  -1.322 -33.907  1.00  0.00    -0.024 A 
HETATM   24  C   UNL     1      -6.286  -2.311 -34.651  1.00  0.00     0.033 A 
HETATM   25  C   UNL     1      -5.736  -3.589 -34.786  1.00  0.00     0.034 A 
HETATM   26 CL   UNL     1      -6.581  -4.777 -35.700  1.00  0.00    -0.084 Cl
HETATM   27  C   UNL     1      -4.525  -3.908 -34.186  1.00  0.00     0.024 A 
HETATM   28  C   UNL     1      -3.852  -2.941 -33.442  1.00  0.00     0.002 A 
HETATM   29  C   UNL     1      -4.395  -1.661 -33.300  1.00  0.00     0.009 A 
ENDBRANCH  16  23
ENDBRANCH   1  16
TORSDOF 6
ENDMDL
MODEL 10
REMARK VINA RESULT:      -7.4      2.805      4.383
REMARK  6 active torsions:
REMARK  status: ('A' for Active; 'I' for Inactive)
REMARK    1  A    between atoms: C_8  and  C_9 
REMARK    2  A    between atoms: C_9  and  C_10 
REMARK       I    between atoms: C_10  and  N_11 
REMARK    3  A    between atoms: N_11  and  C_12 
REMARK    4  A    between atoms: C_12  and  C_13 
REMARK    5  A    between atoms: C_13  and  N_14 
REMARK    6  A    between atoms: C_13  and  C_20 
ROOT
HETATM    1  C   UNL     1      -3.240   2.972 -32.159  1.00  0.00     0.160 C 
ENDROOT
BRANCH   1   2
HETATM    2  N   UNL     1      -2.731   4.122 -31.415  1.00  0.00    -0.358 N 
HETATM    3  C   UNL     1      -1.970   5.076 -32.069  1.00  0.00     0.226 C 
HETATM    4  O   UNL     1      -1.485   4.830 -33.173  1.00  0.00    -0.273 OA
HETATM    5  H   UNL     1      -3.318   4.467 -30.664  1.00  0.00     0.162 HD
BRANCH   3   6
HETATM    6  C   UNL     1      -1.738   6.411 -31.350  1.00  0.00     0.111 C 
HETATM    7  C   UNL     1      -1.136   7.504 -32.231  1.00  0.00     0.025 C 
BRANCH   6   8
HETATM    8  C   UNL     1      -1.004   6.231 -30.051  1.00  0.00     0.004 A 
HETATM    9  C   UNL     1      -1.411   6.701 -28.811  1.00  0.00     0.033 A 
HETATM   10  C   UNL     1      -2.606   7.468 -28.381  1.00  0.00     0.070 C 
HETATM   11  N   UNL     1      -0.454   6.311 -27.919  1.00  0.00    -0.282 N 
HETATM   12  H   UNL     1      -0.420   6.475 -26.917  1.00  0.00     0.189 HD
HETATM   13  N   UNL     1       0.551   5.633 -28.482  1.00  0.00    -0.179 NA
HETATM   14  C   UNL     1       0.236   5.580 -29.779  1.00  0.00     0.060 A 
HETATM   15  C   UNL     1       1.172   4.883 -30.697  1.00  0.00     0.073 C 
ENDBRANCH   6   8
ENDBRANCH   3   6
ENDBRANCH   1   2
BRANCH   1  16
HETATM   16  C   UNL     1      -4.283   2.051 -31.439  1.00  0.00     0.238 C 
BRANCH  16  17
HETATM   17  N   UNL     1      -5.680   2.670 -31.303  1.00  0.00    -0.061 N 
HETATM   18  H   UNL     1      -6.305   1.938 -31.665  1.00  0.00     0.280 HD
HETATM   19  C   UNL     1      -5.995   3.908 -32.106  1.00  0.00     0.236 C 
HETATM   20  C   UNL     1      -6.201   4.986 -31.063  1.00  0.00     0.029 C 
HETATM   21  C   UNL     1      -6.873   4.240 -29.929  1.00  0.00     0.029 C 
HETATM   22  C   UNL     1      -6.137   2.914 -29.878  1.00  0.00     0.236 C 
ENDBRANCH  16  17
BRANCH  16  23
HETATM   23  C   UNL     1      -4.393   0.666 -32.070  1.00  0.00    -0.024 A 
HETATM   24  C   UNL     1      -3.637  -0.434 -31.628  1.00  0.00     0.033 A 
HETATM   25  C   UNL     1      -3.752  -1.676 -32.259  1.00  0.00     0.034 A 
HETATM   26 CL   UNL     1      -2.809  -2.998 -31.695  1.00  0.00    -0.084 Cl
HETATM   27  C   UNL     1      -4.613  -1.847 -33.336  1.00  0.00     0.024 A 
HETATM   28  C   UNL     1      -5.368  -0.767 -33.791  1.00  0.00     0.002 A 
HETATM   29  C   UNL     1      -5.256   0.479 -33.167  1.00  0.00     0.009 A 
ENDBRANCH  16  23
ENDBRANCH   1  16
TORSDOF 6
ENDMDL
