MODEL 1
REMARK VINA RESULT:     -10.1      0.000      0.000
REMARK  9 active torsions:
REMARK  status: ('A' for Active; 'I' for Inactive)
REMARK    1  A    between atoms: C_3  and  N_4 
REMARK       I    between atoms: N_4  and  C_5 
REMARK    2  A    between atoms: C_5  and  C_6 
REMARK    3  A    between atoms: C_6  and  S_7 
REMARK    4  A    between atoms: S_7  and  C_8 
REMARK    5  A    between atoms: N_9  and  C_10 
REMARK    6  A    between atoms: C_10  and  C_11 
REMARK       I    between atoms: C_11  and  N_12 
REMARK    7  A    between atoms: N_12  and  C_13 
REMARK    8  A    between atoms: C_15  and  O_16 
REMARK    9  A    between atoms: C_21  and  C_22 
ROOT
HETATM    1  C   UNL     1      -5.270   2.659 -31.205  1.00  0.00     0.169 A 
HETATM    2  N   UNL     1      -6.129   2.045 -32.084  1.00  0.00    -0.315 N 
HETATM    3  C   UNL     1      -7.418   2.315 -31.651  1.00  0.00     0.065 A 
HETATM    4  C   UNL     1      -7.238   3.126 -30.544  1.00  0.00     0.150 A 
HETATM    5  N   UNL     1      -5.912   3.325 -30.281  1.00  0.00    -0.234 NA
ENDROOT
BRANCH   1   6
HETATM    6  S   UNL     1      -3.546   2.588 -31.315  1.00  0.00    -0.083 SA
BRANCH   6   7
HETATM    7  C   UNL     1      -3.234   3.794 -32.648  1.00  0.00     0.185 C 
BRANCH   7   8
HETATM    8  C   UNL     1      -2.489   5.040 -32.187  1.00  0.00     0.231 C 
HETATM    9  N   UNL     1      -2.202   5.082 -30.835  1.00  0.00    -0.326 N 
HETATM   10  H   UNL     1      -2.778   4.475 -30.263  1.00  0.00     0.169 HD
HETATM   11  O   UNL     1      -2.162   5.898 -33.006  1.00  0.00    -0.272 OA
BRANCH   9  12
HETATM   12  C   UNL     1      -1.525   6.124 -30.166  1.00  0.00     0.046 A 
HETATM   13  C   UNL     1      -2.306   7.069 -29.460  1.00  0.00    -0.035 A 
HETATM   14  C   UNL     1      -3.812   7.031 -29.471  1.00  0.00     0.050 C 
HETATM   15  C   UNL     1      -1.671   8.111 -28.764  1.00  0.00     0.009 A 
HETATM   16  C   UNL     1      -0.286   8.217 -28.759  1.00  0.00     0.001 A 
HETATM   17  C   UNL     1       0.484   7.272 -29.430  1.00  0.00     0.009 A 
HETATM   18  C   UNL     1      -0.118   6.202 -30.118  1.00  0.00    -0.035 A 
HETATM   19  C   UNL     1       0.800   5.171 -30.716  1.00  0.00     0.050 C 
ENDBRANCH   9  12
ENDBRANCH   7   8
ENDBRANCH   6   7
ENDBRANCH   1   6
BRANCH   2  20
HETATM   20  C   UNL     1      -5.756   1.292 -33.270  1.00  0.00     0.234 C 
BRANCH  20  21
HETATM   21  C   UNL     1      -5.709  -0.220 -33.107  1.00  0.00     0.240 C 
HETATM   22  N   UNL     1      -5.596  -0.966 -34.268  1.00  0.00    -0.326 N 
HETATM   23  H   UNL     1      -5.623  -0.477 -35.153  1.00  0.00     0.169 HD
HETATM   24  O   UNL     1      -5.713  -0.685 -31.966  1.00  0.00    -0.271 OA
BRANCH  22  25
HETATM   25  C   UNL     1      -5.472  -2.369 -34.381  1.00  0.00     0.037 A 
HETATM   26  C   UNL     1      -4.301  -3.080 -34.107  1.00  0.00     0.066 A 
HETATM   27  C   UNL     1      -4.279  -4.467 -34.259  1.00  0.00     0.067 A 
HETATM   28  C   UNL     1      -5.404  -5.162 -34.681  1.00  0.00     0.036 A 
HETATM   29  C   UNL     1      -6.576  -4.463 -34.956  1.00  0.00     0.005 A 
HETATM   30  C   UNL     1      -6.609  -3.073 -34.806  1.00  0.00     0.029 A 
BRANCH  27  31
HETATM   31  O   UNL     1      -3.150  -5.188 -33.998  1.00  0.00    -0.361 OA
HETATM   32  H   UNL     1      -3.380  -6.132 -33.997  1.00  0.00     0.217 HD
ENDBRANCH  27  31
ENDBRANCH  22  25
ENDBRANCH  20  21
ENDBRANCH   2  20
BRANCH   3  33
HETATM   33  C   UNL     1      -8.661   1.877 -32.274  1.00  0.00    -0.008 A 
HETATM   34  C   UNL     1      -9.440   2.756 -33.039  1.00  0.00     0.017 A 
HETATM   35  C   UNL     1     -10.614   2.307 -33.650  1.00  0.00     0.043 A 
HETATM   36  C   UNL     1     -11.002   0.981 -33.503  1.00  0.00     0.116 A 
HETATM   37  F   UNL     1     -12.123   0.552 -34.095  1.00  0.00    -0.206 F 
HETATM   38  C   UNL     1     -10.238   0.093 -32.758  1.00  0.00     0.043 A 
HETATM   39  C   UNL     1      -9.065   0.540 -32.145  1.00  0.00     0.017 A 
ENDBRANCH   3  33
TORSDOF 9
ENDMDL
MODEL 2
REMARK VINA RESULT:     -10.1      2.995      5.846
REMARK  9 active torsions:
REMARK  status: ('A' for Active; 'I' for Inactive)
REMARK    1  A    between atoms: C_3  and  N_4 
REMARK       I    between atoms: N_4  and  C_5 
REMARK    2  A    between atoms: C_5  and  C_6 
REMARK    3  A    between atoms: C_6  and  S_7 
REMARK    4  A    between atoms: S_7  and  C_8 
REMARK    5  A    between atoms: N_9  and  C_10 
REMARK    6  A    between atoms: C_10  and  C_11 
REMARK       I    between atoms: C_11  and  N_12 
REMARK    7  A    between atoms: N_12  and  C_13 
REMARK    8  A    between atoms: C_15  and  O_16 
REMARK    9  A    between atoms: C_21  and  C_22 
ROOT
HETATM    1  C   UNL     1      -6.489   2.037 -30.562  1.00  0.00     0.169 A 
HETATM    2  N   UNL     1      -6.687   1.395 -31.760  1.00  0.00    -0.315 N 
HETATM    3  C   UNL     1      -5.952   0.221 -31.719  1.00  0.00     0.065 A 
HETATM    4  C   UNL     1      -5.388   0.220 -30.456  1.00  0.00     0.150 A 
HETATM    5  N   UNL     1      -5.724   1.345 -29.757  1.00  0.00    -0.234 NA
ENDROOT
BRANCH   1   6
HETATM    6  S   UNL     1      -7.185   3.564 -30.146  1.00  0.00    -0.083 SA
BRANCH   6   7
HETATM    7  C   UNL     1      -5.699   4.501 -29.655  1.00  0.00     0.185 C 
BRANCH   7   8
HETATM    8  C   UNL     1      -4.993   5.188 -30.818  1.00  0.00     0.231 C 
HETATM    9  N   UNL     1      -4.135   4.379 -31.540  1.00  0.00    -0.326 N 
HETATM   10  H   UNL     1      -3.824   3.550 -31.048  1.00  0.00     0.169 HD
HETATM   11  O   UNL     1      -5.234   6.368 -31.071  1.00  0.00    -0.272 OA
BRANCH   9  12
HETATM   12  C   UNL     1      -3.369   4.777 -32.656  1.00  0.00     0.046 A 
HETATM   13  C   UNL     1      -1.986   5.003 -32.457  1.00  0.00    -0.035 A 
HETATM   14  C   UNL     1      -1.347   4.905 -31.097  1.00  0.00     0.050 C 
HETATM   15  C   UNL     1      -1.183   5.381 -33.545  1.00  0.00     0.009 A 
HETATM   16  C   UNL     1      -1.732   5.528 -34.813  1.00  0.00     0.001 A 
HETATM   17  C   UNL     1      -3.086   5.279 -35.015  1.00  0.00     0.009 A 
HETATM   18  C   UNL     1      -3.915   4.877 -33.952  1.00  0.00    -0.035 A 
HETATM   19  C   UNL     1      -5.338   4.522 -34.291  1.00  0.00     0.050 C 
ENDBRANCH   9  12
ENDBRANCH   7   8
ENDBRANCH   6   7
ENDBRANCH   1   6
BRANCH   2  20
HETATM   20  C   UNL     1      -7.543   1.842 -32.846  1.00  0.00     0.234 C 
BRANCH  20  21
HETATM   21  C   UNL     1      -9.018   1.491 -32.714  1.00  0.00     0.240 C 
HETATM   22  N   UNL     1      -9.805   1.690 -33.835  1.00  0.00    -0.326 N 
HETATM   23  H   UNL     1      -9.380   2.121 -34.647  1.00  0.00     0.169 HD
HETATM   24  O   UNL     1      -9.409   1.000 -31.655  1.00  0.00    -0.271 OA
BRANCH  22  25
HETATM   25  C   UNL     1     -11.178   1.388 -33.989  1.00  0.00     0.037 A 
HETATM   26  C   UNL     1     -11.789   0.235 -33.490  1.00  0.00     0.066 A 
HETATM   27  C   UNL     1     -13.152   0.024 -33.703  1.00  0.00     0.067 A 
HETATM   28  C   UNL     1     -13.920   0.942 -34.407  1.00  0.00     0.036 A 
HETATM   29  C   UNL     1     -13.320   2.094 -34.907  1.00  0.00     0.005 A 
HETATM   30  C   UNL     1     -11.955   2.315 -34.699  1.00  0.00     0.029 A 
BRANCH  27  31
HETATM   31  O   UNL     1     -13.777  -1.092 -33.228  1.00  0.00    -0.361 OA
HETATM   32  H   UNL     1     -14.716  -1.048 -33.475  1.00  0.00     0.217 HD
ENDBRANCH  27  31
ENDBRANCH  22  25
ENDBRANCH  20  21
ENDBRANCH   2  20
BRANCH   3  33
HETATM   33  C   UNL     1      -5.859  -0.791 -32.766  1.00  0.00    -0.008 A 
HETATM   34  C   UNL     1      -6.997  -1.223 -33.461  1.00  0.00     0.017 A 
HETATM   35  C   UNL     1      -6.881  -2.174 -34.479  1.00  0.00     0.043 A 
HETATM   36  C   UNL     1      -5.630  -2.683 -34.805  1.00  0.00     0.116 A 
HETATM   37  F   UNL     1      -5.521  -3.587 -35.785  1.00  0.00    -0.206 F 
HETATM   38  C   UNL     1      -4.490  -2.258 -34.134  1.00  0.00     0.043 A 
HETATM   39  C   UNL     1      -4.605  -1.310 -33.115  1.00  0.00     0.017 A 
ENDBRANCH   3  33
TORSDOF 9
ENDMDL
MODEL 3
REMARK VINA RESULT:      -9.9      2.860      5.636
REMARK  9 active torsions:
REMARK  status: ('A' for Active; 'I' for Inactive)
REMARK    1  A    between atoms: C_3  and  N_4 
REMARK       I    between atoms: N_4  and  C_5 
REMARK    2  A    between atoms: C_5  and  C_6 
REMARK    3  A    between atoms: C_6  and  S_7 
REMARK    4  A    between atoms: S_7  and  C_8 
REMARK    5  A    between atoms: N_9  and  C_10 
REMARK    6  A    between atoms: C_10  and  C_11 
REMARK       I    between atoms: C_11  and  N_12 
REMARK    7  A    between atoms: N_12  and  C_13 
REMARK    8  A    between atoms: C_15  and  O_16 
REMARK    9  A    between atoms: C_21  and  C_22 
ROOT
HETATM    1  C   UNL     1      -6.724   1.790 -31.330  1.00  0.00     0.169 A 
HETATM    2  N   UNL     1      -6.697   1.114 -32.525  1.00  0.00    -0.315 N 
HETATM    3  C   UNL     1      -6.210  -0.157 -32.263  1.00  0.00     0.065 A 
HETATM    4  C   UNL     1      -6.016  -0.168 -30.893  1.00  0.00     0.150 A 
HETATM    5  N   UNL     1      -6.333   1.038 -30.334  1.00  0.00    -0.234 NA
ENDROOT
BRANCH   1   6
HETATM    6  S   UNL     1      -7.237   3.431 -31.148  1.00  0.00    -0.083 SA
BRANCH   6   7
HETATM    7  C   UNL     1      -5.860   4.119 -30.169  1.00  0.00     0.185 C 
BRANCH   7   8
HETATM    8  C   UNL     1      -4.586   4.344 -30.974  1.00  0.00     0.231 C 
HETATM    9  N   UNL     1      -4.403   5.637 -31.428  1.00  0.00    -0.326 N 
HETATM   10  H   UNL     1      -5.248   6.194 -31.465  1.00  0.00     0.169 HD
HETATM   11  O   UNL     1      -3.797   3.415 -31.148  1.00  0.00    -0.272 OA
BRANCH   9  12
HETATM   12  C   UNL     1      -3.309   6.097 -32.192  1.00  0.00     0.046 A 
HETATM   13  C   UNL     1      -2.226   6.688 -31.499  1.00  0.00    -0.035 A 
HETATM   14  C   UNL     1      -2.249   6.901 -30.008  1.00  0.00     0.050 C 
HETATM   15  C   UNL     1      -1.108   7.141 -32.219  1.00  0.00     0.009 A 
HETATM   16  C   UNL     1      -1.056   7.009 -33.602  1.00  0.00     0.001 A 
HETATM   17  C   UNL     1      -2.109   6.403 -34.280  1.00  0.00     0.009 A 
HETATM   18  C   UNL     1      -3.233   5.917 -33.588  1.00  0.00    -0.035 A 
HETATM   19  C   UNL     1      -4.266   5.177 -34.395  1.00  0.00     0.050 C 
ENDBRANCH   9  12
ENDBRANCH   7   8
ENDBRANCH   6   7
ENDBRANCH   1   6
BRANCH   2  20
HETATM   20  C   UNL     1      -7.139   1.621 -33.813  1.00  0.00     0.234 C 
BRANCH  20  21
HETATM   21  C   UNL     1      -8.503   1.136 -34.283  1.00  0.00     0.240 C 
HETATM   22  N   UNL     1      -9.602   1.601 -33.583  1.00  0.00    -0.326 N 
HETATM   23  H   UNL     1      -9.440   2.172 -32.763  1.00  0.00     0.169 HD
HETATM   24  O   UNL     1      -8.553   0.417 -35.282  1.00  0.00    -0.271 OA
BRANCH  22  25
HETATM   25  C   UNL     1     -10.966   1.350 -33.856  1.00  0.00     0.037 A 
HETATM   26  C   UNL     1     -11.671   0.239 -33.384  1.00  0.00     0.066 A 
HETATM   27  C   UNL     1     -13.015   0.076 -33.719  1.00  0.00     0.067 A 
HETATM   28  C   UNL     1     -13.674   1.000 -34.519  1.00  0.00     0.036 A 
HETATM   29  C   UNL     1     -12.981   2.109 -34.994  1.00  0.00     0.005 A 
HETATM   30  C   UNL     1     -11.634   2.282 -34.664  1.00  0.00     0.029 A 
BRANCH  27  31
HETATM   31  O   UNL     1     -13.729  -0.998 -33.271  1.00  0.00    -0.361 OA
HETATM   32  H   UNL     1     -14.280  -0.712 -32.524  1.00  0.00     0.217 HD
ENDBRANCH  27  31
ENDBRANCH  22  25
ENDBRANCH  20  21
ENDBRANCH   2  20
BRANCH   3  33
HETATM   33  C   UNL     1      -6.011  -1.234 -33.226  1.00  0.00    -0.008 A 
HETATM   34  C   UNL     1      -4.726  -1.605 -33.646  1.00  0.00     0.017 A 
HETATM   35  C   UNL     1      -4.558  -2.658 -34.549  1.00  0.00     0.043 A 
HETATM   36  C   UNL     1      -5.670  -3.344 -35.021  1.00  0.00     0.116 A 
HETATM   37  F   UNL     1      -5.505  -4.358 -35.879  1.00  0.00    -0.206 F 
HETATM   38  C   UNL     1      -6.950  -2.998 -34.607  1.00  0.00     0.043 A 
HETATM   39  C   UNL     1      -7.121  -1.944 -33.707  1.00  0.00     0.017 A 
ENDBRANCH   3  33
TORSDOF 9
ENDMDL
MODEL 4
REMARK VINA RESULT:      -9.9      3.557      9.290
REMARK  9 active torsions:
REMARK  status: ('A' for Active; 'I' for Inactive)
REMARK    1  A    between atoms: C_3  and  N_4 
REMARK       I    between atoms: N_4  and  C_5 
REMARK    2  A    between atoms: C_5  and  C_6 
REMARK    3  A    between atoms: C_6  and  S_7 
REMARK    4  A    between atoms: S_7  and  C_8 
REMARK    5  A    between atoms: N_9  and  C_10 
REMARK    6  A    between atoms: C_10  and  C_11 
REMARK       I    between atoms: C_11  and  N_12 
REMARK    7  A    between atoms: N_12  and  C_13 
REMARK    8  A    between atoms: C_15  and  O_16 
REMARK    9  A    between atoms: C_21  and  C_22 
ROOT
HETATM    1  C   UNL     1      -8.217   3.174 -32.023  1.00  0.00     0.169 A 
HETATM    2  N   UNL     1      -7.348   2.516 -32.858  1.00  0.00    -0.315 N 
HETATM    3  C   UNL     1      -7.391   1.174 -32.515  1.00  0.00     0.065 A 
HETATM    4  C   UNL     1      -8.335   1.114 -31.505  1.00  0.00     0.150 A 
HETATM    5  N   UNL     1      -8.831   2.352 -31.211  1.00  0.00    -0.234 NA
ENDROOT
BRANCH   1   6
HETATM    6  S   UNL     1      -8.494   4.880 -32.050  1.00  0.00    -0.083 SA
BRANCH   6   7
HETATM    7  C   UNL     1     -10.248   4.955 -31.557  1.00  0.00     0.185 C 
BRANCH   7   8
HETATM    8  C   UNL     1     -11.196   4.299 -32.554  1.00  0.00     0.231 C 
HETATM    9  N   UNL     1     -11.766   3.115 -32.125  1.00  0.00    -0.326 N 
HETATM   10  H   UNL     1     -11.268   2.656 -31.372  1.00  0.00     0.169 HD
HETATM   11  O   UNL     1     -11.425   4.845 -33.633  1.00  0.00    -0.272 OA
BRANCH   9  12
HETATM   12  C   UNL     1     -12.671   2.320 -32.861  1.00  0.00     0.046 A 
HETATM   13  C   UNL     1     -14.053   2.503 -32.620  1.00  0.00    -0.035 A 
HETATM   14  C   UNL     1     -14.564   3.450 -31.565  1.00  0.00     0.050 C 
HETATM   15  C   UNL     1     -14.989   1.747 -33.345  1.00  0.00     0.009 A 
HETATM   16  C   UNL     1     -14.569   0.827 -34.298  1.00  0.00     0.001 A 
HETATM   17  C   UNL     1     -13.211   0.667 -34.555  1.00  0.00     0.009 A 
HETATM   18  C   UNL     1     -12.247   1.424 -33.864  1.00  0.00    -0.035 A 
HETATM   19  C   UNL     1     -10.813   1.262 -34.291  1.00  0.00     0.050 C 
ENDBRANCH   9  12
ENDBRANCH   7   8
ENDBRANCH   6   7
ENDBRANCH   1   6
BRANCH   2  20
HETATM   20  C   UNL     1      -6.567   3.109 -33.930  1.00  0.00     0.234 C 
BRANCH  20  21
HETATM   21  C   UNL     1      -5.222   3.695 -33.523  1.00  0.00     0.240 C 
HETATM   22  N   UNL     1      -4.681   4.650 -34.366  1.00  0.00    -0.326 N 
HETATM   23  H   UNL     1      -5.165   4.851 -35.232  1.00  0.00     0.169 HD
HETATM   24  O   UNL     1      -4.729   3.337 -32.453  1.00  0.00    -0.271 OA
BRANCH  22  25
HETATM   25  C   UNL     1      -3.486   5.382 -34.183  1.00  0.00     0.037 A 
HETATM   26  C   UNL     1      -3.391   6.558 -33.435  1.00  0.00     0.066 A 
HETATM   27  C   UNL     1      -2.165   7.213 -33.323  1.00  0.00     0.067 A 
HETATM   28  C   UNL     1      -1.026   6.718 -33.946  1.00  0.00     0.036 A 
HETATM   29  C   UNL     1      -1.110   5.548 -34.693  1.00  0.00     0.005 A 
HETATM   30  C   UNL     1      -2.335   4.883 -34.811  1.00  0.00     0.029 A 
BRANCH  27  31
HETATM   31  O   UNL     1      -2.041   8.362 -32.598  1.00  0.00    -0.361 OA
HETATM   32  H   UNL     1      -1.649   8.143 -31.737  1.00  0.00     0.217 HD
ENDBRANCH  27  31
ENDBRANCH  22  25
ENDBRANCH  20  21
ENDBRANCH   2  20
BRANCH   3  33
HETATM   33  C   UNL     1      -6.640   0.087 -33.134  1.00  0.00    -0.008 A 
HETATM   34  C   UNL     1      -5.315  -0.182 -32.766  1.00  0.00     0.017 A 
HETATM   35  C   UNL     1      -4.623  -1.245 -33.352  1.00  0.00     0.043 A 
HETATM   36  C   UNL     1      -5.259  -2.042 -34.296  1.00  0.00     0.116 A 
HETATM   37  F   UNL     1      -4.598  -3.065 -34.851  1.00  0.00    -0.206 F 
HETATM   38  C   UNL     1      -6.576  -1.797 -34.666  1.00  0.00     0.043 A 
HETATM   39  C   UNL     1      -7.268  -0.734 -34.082  1.00  0.00     0.017 A 
ENDBRANCH   3  33
TORSDOF 9
ENDMDL
MODEL 5
REMARK VINA RESULT:      -9.8      3.527      9.209
REMARK  9 active torsions:
REMARK  status: ('A' for Active; 'I' for Inactive)
REMARK    1  A    between atoms: C_3  and  N_4 
REMARK       I    between atoms: N_4  and  C_5 
REMARK    2  A    between atoms: C_5  and  C_6 
REMARK    3  A    between atoms: C_6  and  S_7 
REMARK    4  A    between atoms: S_7  and  C_8 
REMARK    5  A    between atoms: N_9  and  C_10 
REMARK    6  A    between atoms: C_10  and  C_11 
REMARK       I    between atoms: C_11  and  N_12 
REMARK    7  A    between atoms: N_12  and  C_13 
REMARK    8  A    between atoms: C_15  and  O_16 
REMARK    9  A    between atoms: C_21  and  C_22 
ROOT
HETATM    1  C   UNL     1      -8.283   3.098 -32.088  1.00  0.00     0.169 A 
HETATM    2  N   UNL     1      -7.460   2.407 -32.944  1.00  0.00    -0.315 N 
HETATM    3  C   UNL     1      -7.411   1.097 -32.493  1.00  0.00     0.065 A 
HETATM    4  C   UNL     1      -8.262   1.084 -31.402  1.00  0.00     0.150 A 
HETATM    5  N   UNL     1      -8.787   2.322 -31.163  1.00  0.00    -0.234 NA
ENDROOT
BRANCH   1   6
HETATM    6  S   UNL     1      -8.639   4.784 -32.225  1.00  0.00    -0.083 SA
BRANCH   6   7
HETATM    7  C   UNL     1     -10.339   4.834 -31.566  1.00  0.00     0.185 C 
BRANCH   7   8
HETATM    8  C   UNL     1     -11.381   4.243 -32.507  1.00  0.00     0.231 C 
HETATM    9  N   UNL     1     -11.854   2.995 -32.145  1.00  0.00    -0.326 N 
HETATM   10  H   UNL     1     -11.250   2.484 -31.513  1.00  0.00     0.169 HD
HETATM   11  O   UNL     1     -11.762   4.888 -33.483  1.00  0.00    -0.272 OA
BRANCH   9  12
HETATM   12  C   UNL     1     -12.816   2.241 -32.848  1.00  0.00     0.046 A 
HETATM   13  C   UNL     1     -12.349   1.242 -33.735  1.00  0.00    -0.035 A 
HETATM   14  C   UNL     1     -10.882   1.025 -33.996  1.00  0.00     0.050 C 
HETATM   15  C   UNL     1     -13.274   0.455 -34.441  1.00  0.00     0.009 A 
HETATM   16  C   UNL     1     -14.640   0.644 -34.270  1.00  0.00     0.001 A 
HETATM   17  C   UNL     1     -15.100   1.608 -33.377  1.00  0.00     0.009 A 
HETATM   18  C   UNL     1     -14.202   2.398 -32.638  1.00  0.00    -0.035 A 
HETATM   19  C   UNL     1     -14.793   3.332 -31.616  1.00  0.00     0.050 C 
ENDBRANCH   9  12
ENDBRANCH   7   8
ENDBRANCH   6   7
ENDBRANCH   1   6
BRANCH   2  20
HETATM   20  C   UNL     1      -6.801   2.940 -34.124  1.00  0.00     0.234 C 
BRANCH  20  21
HETATM   21  C   UNL     1      -5.648   3.899 -33.863  1.00  0.00     0.240 C 
HETATM   22  N   UNL     1      -4.548   3.381 -33.202  1.00  0.00    -0.326 N 
HETATM   23  H   UNL     1      -4.597   2.426 -32.868  1.00  0.00     0.169 HD
HETATM   24  O   UNL     1      -5.733   5.047 -34.301  1.00  0.00    -0.271 OA
BRANCH  22  25
HETATM   25  C   UNL     1      -3.336   4.042 -32.897  1.00  0.00     0.037 A 
HETATM   26  C   UNL     1      -2.860   4.252 -31.600  1.00  0.00     0.066 A 
HETATM   27  C   UNL     1      -1.655   4.926 -31.404  1.00  0.00     0.067 A 
HETATM   28  C   UNL     1      -0.913   5.400 -32.478  1.00  0.00     0.036 A 
HETATM   29  C   UNL     1      -1.378   5.196 -33.773  1.00  0.00     0.005 A 
HETATM   30  C   UNL     1      -2.585   4.520 -33.981  1.00  0.00     0.029 A 
BRANCH  27  31
HETATM   31  O   UNL     1      -1.164   5.145 -30.150  1.00  0.00    -0.361 OA
HETATM   32  H   UNL     1      -0.853   4.299 -29.788  1.00  0.00     0.217 HD
ENDBRANCH  27  31
ENDBRANCH  22  25
ENDBRANCH  20  21
ENDBRANCH   2  20
BRANCH   3  33
HETATM   33  C   UNL     1      -6.667  -0.007 -33.089  1.00  0.00    -0.008 A 
HETATM   34  C   UNL     1      -7.259  -0.854 -34.036  1.00  0.00     0.017 A 
HETATM   35  C   UNL     1      -6.519  -1.889 -34.614  1.00  0.00     0.043 A 
HETATM   36  C   UNL     1      -5.190  -2.070 -34.253  1.00  0.00     0.116 A 
HETATM   37  F   UNL     1      -4.482  -3.057 -34.814  1.00  0.00    -0.206 F 
HETATM   38  C   UNL     1      -4.584  -1.234 -33.324  1.00  0.00     0.043 A 
HETATM   39  C   UNL     1      -5.322  -0.200 -32.743  1.00  0.00     0.017 A 
ENDBRANCH   3  33
TORSDOF 9
ENDMDL
MODEL 6
REMARK VINA RESULT:      -9.8      3.502      9.416
REMARK  9 active torsions:
REMARK  status: ('A' for Active; 'I' for Inactive)
REMARK    1  A    between atoms: C_3  and  N_4 
REMARK       I    between atoms: N_4  and  C_5 
REMARK    2  A    between atoms: C_5  and  C_6 
REMARK    3  A    between atoms: C_6  and  S_7 
REMARK    4  A    between atoms: S_7  and  C_8 
REMARK    5  A    between atoms: N_9  and  C_10 
REMARK    6  A    between atoms: C_10  and  C_11 
REMARK       I    between atoms: C_11  and  N_12 
REMARK    7  A    between atoms: N_12  and  C_13 
REMARK    8  A    between atoms: C_15  and  O_16 
REMARK    9  A    between atoms: C_21  and  C_22 
ROOT
HETATM    1  C   UNL     1      -8.504   3.025 -31.988  1.00  0.00     0.169 A 
HETATM    2  N   UNL     1      -7.631   2.366 -32.819  1.00  0.00    -0.315 N 
HETATM    3  C   UNL     1      -7.642   1.031 -32.446  1.00  0.00     0.065 A 
HETATM    4  C   UNL     1      -8.574   0.975 -31.425  1.00  0.00     0.150 A 
HETATM    5  N   UNL     1      -9.092   2.209 -31.153  1.00  0.00    -0.234 NA
ENDROOT
BRANCH   1   6
HETATM    6  S   UNL     1      -8.815   4.725 -32.050  1.00  0.00    -0.083 SA
BRANCH   6   7
HETATM    7  C   UNL     1     -10.534   4.784 -31.443  1.00  0.00     0.185 C 
BRANCH   7   8
HETATM    8  C   UNL     1     -11.553   4.220 -32.425  1.00  0.00     0.231 C 
HETATM    9  N   UNL     1     -12.058   2.976 -32.092  1.00  0.00    -0.326 N 
HETATM   10  H   UNL     1     -11.484   2.449 -31.445  1.00  0.00     0.169 HD
HETATM   11  O   UNL     1     -11.889   4.880 -33.407  1.00  0.00    -0.272 OA
BRANCH   9  12
HETATM   12  C   UNL     1     -13.008   2.245 -32.836  1.00  0.00     0.046 A 
HETATM   13  C   UNL     1     -12.524   1.292 -33.764  1.00  0.00    -0.035 A 
HETATM   14  C   UNL     1     -11.053   1.103 -34.024  1.00  0.00     0.050 C 
HETATM   15  C   UNL     1     -13.436   0.528 -34.511  1.00  0.00     0.009 A 
HETATM   16  C   UNL     1     -14.805   0.696 -34.342  1.00  0.00     0.001 A 
HETATM   17  C   UNL     1     -15.281   1.613 -33.409  1.00  0.00     0.009 A 
HETATM   18  C   UNL     1     -14.396   2.378 -32.628  1.00  0.00    -0.035 A 
HETATM   19  C   UNL     1     -15.004   3.258 -31.569  1.00  0.00     0.050 C 
ENDBRANCH   9  12
ENDBRANCH   7   8
ENDBRANCH   6   7
ENDBRANCH   1   6
BRANCH   2  20
HETATM   20  C   UNL     1      -6.873   2.951 -33.912  1.00  0.00     0.234 C 
BRANCH  20  21
HETATM   21  C   UNL     1      -5.509   3.518 -33.544  1.00  0.00     0.240 C 
HETATM   22  N   UNL     1      -5.041   4.562 -34.324  1.00  0.00    -0.326 N 
HETATM   23  H   UNL     1      -5.587   4.839 -35.129  1.00  0.00     0.169 HD
HETATM   24  O   UNL     1      -4.937   3.065 -32.552  1.00  0.00    -0.271 OA
BRANCH  22  25
HETATM   25  C   UNL     1      -3.844   5.294 -34.153  1.00  0.00     0.037 A 
HETATM   26  C   UNL     1      -2.690   5.104 -34.918  1.00  0.00     0.066 A 
HETATM   27  C   UNL     1      -1.554   5.873 -34.663  1.00  0.00     0.067 A 
HETATM   28  C   UNL     1      -1.544   6.830 -33.657  1.00  0.00     0.036 A 
HETATM   29  C   UNL     1      -2.689   7.027 -32.890  1.00  0.00     0.005 A 
HETATM   30  C   UNL     1      -3.832   6.262 -33.137  1.00  0.00     0.029 A 
BRANCH  27  31
HETATM   31  O   UNL     1      -0.413   5.711 -35.394  1.00  0.00    -0.361 OA
HETATM   32  H   UNL     1      -0.565   6.067 -36.286  1.00  0.00     0.217 HD
ENDBRANCH  27  31
ENDBRANCH  22  25
ENDBRANCH  20  21
ENDBRANCH   2  20
BRANCH   3  33
HETATM   33  C   UNL     1      -6.877  -0.054 -33.050  1.00  0.00    -0.008 A 
HETATM   34  C   UNL     1      -5.588  -0.371 -32.601  1.00  0.00     0.017 A 
HETATM   35  C   UNL     1      -4.883  -1.432 -33.175  1.00  0.00     0.043 A 
HETATM   36  C   UNL     1      -5.470  -2.179 -34.189  1.00  0.00     0.116 A 
HETATM   37  F   UNL     1      -4.796  -3.199 -34.733  1.00  0.00    -0.206 F 
HETATM   38  C   UNL     1      -6.751  -1.886 -34.640  1.00  0.00     0.043 A 
HETATM   39  C   UNL     1      -7.456  -0.825 -34.068  1.00  0.00     0.017 A 
ENDBRANCH   3  33
TORSDOF 9
ENDMDL
MODEL 7
REMARK VINA RESULT:      -9.6      3.143      5.261
REMARK  9 active torsions:
REMARK  status: ('A' for Active; 'I' for Inactive)
REMARK    1  A    between atoms: C_3  and  N_4 
REMARK       I    between atoms: N_4  and  C_5 
REMARK    2  A    between atoms: C_5  and  C_6 
REMARK    3  A    between atoms: C_6  and  S_7 
REMARK    4  A    between atoms: S_7  and  C_8 
REMARK    5  A    between atoms: N_9  and  C_10 
REMARK    6  A    between atoms: C_10  and  C_11 
REMARK       I    between atoms: C_11  and  N_12 
REMARK    7  A    between atoms: N_12  and  C_13 
REMARK    8  A    between atoms: C_15  and  O_16 
REMARK    9  A    between atoms: C_21  and  C_22 
ROOT
HETATM    1  C   UNL     1      -6.741   4.589 -32.791  1.00  0.00     0.169 A 
HETATM    2  N   UNL     1      -7.038   3.251 -32.699  1.00  0.00    -0.315 N 
HETATM    3  C   UNL     1      -6.355   2.611 -33.721  1.00  0.00     0.065 A 
HETATM    4  C   UNL     1      -5.647   3.625 -34.340  1.00  0.00     0.150 A 
HETATM    5  N   UNL     1      -5.897   4.836 -33.760  1.00  0.00    -0.234 NA
ENDROOT
BRANCH   1   6
HETATM    6  S   UNL     1      -7.378   5.806 -31.741  1.00  0.00    -0.083 SA
BRANCH   6   7
HETATM    7  C   UNL     1      -6.106   5.836 -30.434  1.00  0.00     0.185 C 
BRANCH   7   8
HETATM    8  C   UNL     1      -4.757   6.368 -30.901  1.00  0.00     0.231 C 
HETATM    9  N   UNL     1      -3.660   5.674 -30.425  1.00  0.00    -0.326 N 
HETATM   10  H   UNL     1      -3.838   5.124 -29.594  1.00  0.00     0.169 HD
HETATM   11  O   UNL     1      -4.709   7.326 -31.673  1.00  0.00    -0.272 OA
BRANCH   9  12
HETATM   12  C   UNL     1      -2.310   5.969 -30.711  1.00  0.00     0.046 A 
HETATM   13  C   UNL     1      -1.618   6.819 -29.816  1.00  0.00    -0.035 A 
HETATM   14  C   UNL     1      -2.299   7.463 -28.636  1.00  0.00     0.050 C 
HETATM   15  C   UNL     1      -0.267   7.121 -30.052  1.00  0.00     0.009 A 
HETATM   16  C   UNL     1       0.396   6.589 -31.151  1.00  0.00     0.001 A 
HETATM   17  C   UNL     1      -0.276   5.731 -32.016  1.00  0.00     0.009 A 
HETATM   18  C   UNL     1      -1.623   5.388 -31.797  1.00  0.00    -0.035 A 
HETATM   19  C   UNL     1      -2.228   4.366 -32.721  1.00  0.00     0.050 C 
ENDBRANCH   9  12
ENDBRANCH   7   8
ENDBRANCH   6   7
ENDBRANCH   1   6
BRANCH   2  20
HETATM   20  C   UNL     1      -7.874   2.622 -31.691  1.00  0.00     0.234 C 
BRANCH  20  21
HETATM   21  C   UNL     1      -9.357   2.529 -32.024  1.00  0.00     0.240 C 
HETATM   22  N   UNL     1      -9.706   1.692 -33.069  1.00  0.00    -0.326 N 
HETATM   23  H   UNL     1      -8.963   1.250 -33.596  1.00  0.00     0.169 HD
HETATM   24  O   UNL     1     -10.154   3.147 -31.317  1.00  0.00    -0.271 OA
BRANCH  22  25
HETATM   25  C   UNL     1     -11.007   1.388 -33.531  1.00  0.00     0.037 A 
HETATM   26  C   UNL     1     -11.730   0.253 -33.156  1.00  0.00     0.066 A 
HETATM   27  C   UNL     1     -13.006   0.039 -33.677  1.00  0.00     0.067 A 
HETATM   28  C   UNL     1     -13.578   0.936 -34.569  1.00  0.00     0.036 A 
HETATM   29  C   UNL     1     -12.867   2.070 -34.948  1.00  0.00     0.005 A 
HETATM   30  C   UNL     1     -11.587   2.294 -34.432  1.00  0.00     0.029 A 
BRANCH  27  31
HETATM   31  O   UNL     1     -13.736  -1.061 -33.328  1.00  0.00    -0.361 OA
HETATM   32  H   UNL     1     -14.635  -0.958 -33.681  1.00  0.00     0.217 HD
ENDBRANCH  27  31
ENDBRANCH  22  25
ENDBRANCH  20  21
ENDBRANCH   2  20
BRANCH   3  33
HETATM   33  C   UNL     1      -6.359   1.182 -34.015  1.00  0.00    -0.008 A 
HETATM   34  C   UNL     1      -5.567   0.287 -33.283  1.00  0.00     0.017 A 
HETATM   35  C   UNL     1      -5.606  -1.081 -33.564  1.00  0.00     0.043 A 
HETATM   36  C   UNL     1      -6.442  -1.552 -34.569  1.00  0.00     0.116 A 
HETATM   37  F   UNL     1      -6.484  -2.864 -34.831  1.00  0.00    -0.206 F 
HETATM   38  C   UNL     1      -7.243  -0.682 -35.298  1.00  0.00     0.043 A 
HETATM   39  C   UNL     1      -7.202   0.686 -35.019  1.00  0.00     0.017 A 
ENDBRANCH   3  33
TORSDOF 9
ENDMDL
MODEL 8
REMARK VINA RESULT:      -9.6      3.108      6.098
REMARK  9 active torsions:
REMARK  status: ('A' for Active; 'I' for Inactive)
REMARK    1  A    between atoms: C_3  and  N_4 
REMARK       I    between atoms: N_4  and  C_5 
REMARK    2  A    between atoms: C_5  and  C_6 
REMARK    3  A    between atoms: C_6  and  S_7 
REMARK    4  A    between atoms: S_7  and  C_8 
REMARK    5  A    between atoms: N_9  and  C_10 
REMARK    6  A    between atoms: C_10  and  C_11 
REMARK       I    between atoms: C_11  and  N_12 
REMARK    7  A    between atoms: N_12  and  C_13 
REMARK    8  A    between atoms: C_15  and  O_16 
REMARK    9  A    between atoms: C_21  and  C_22 
ROOT
HETATM    1  C   UNL     1      -6.414   2.059 -33.024  1.00  0.00     0.169 A 
HETATM    2  N   UNL     1      -6.746   0.925 -33.725  1.00  0.00    -0.315 N 
HETATM    3  C   UNL     1      -5.822  -0.050 -33.384  1.00  0.00     0.065 A 
HETATM    4  C   UNL     1      -5.010   0.567 -32.449  1.00  0.00     0.150 A 
HETATM    5  N   UNL     1      -5.384   1.864 -32.241  1.00  0.00    -0.234 NA
ENDROOT
BRANCH   1   6
HETATM    6  S   UNL     1      -7.265   3.560 -33.136  1.00  0.00    -0.083 SA
BRANCH   6   7
HETATM    7  C   UNL     1      -6.141   4.516 -34.208  1.00  0.00     0.185 C 
BRANCH   7   8
HETATM    8  C   UNL     1      -5.174   5.412 -33.442  1.00  0.00     0.231 C 
HETATM    9  N   UNL     1      -3.973   4.817 -33.102  1.00  0.00    -0.326 N 
HETATM   10  H   UNL     1      -3.991   3.804 -33.101  1.00  0.00     0.169 HD
HETATM   11  O   UNL     1      -5.479   6.579 -33.202  1.00  0.00    -0.272 OA
BRANCH   9  12
HETATM   12  C   UNL     1      -2.919   5.432 -32.395  1.00  0.00     0.046 A 
HETATM   13  C   UNL     1      -1.757   5.783 -33.121  1.00  0.00    -0.035 A 
HETATM   14  C   UNL     1      -1.595   5.453 -34.582  1.00  0.00     0.050 C 
HETATM   15  C   UNL     1      -0.691   6.416 -32.460  1.00  0.00     0.009 A 
HETATM   16  C   UNL     1      -0.772   6.704 -31.103  1.00  0.00     0.001 A 
HETATM   17  C   UNL     1      -1.925   6.383 -30.394  1.00  0.00     0.009 A 
HETATM   18  C   UNL     1      -3.020   5.770 -31.029  1.00  0.00    -0.035 A 
HETATM   19  C   UNL     1      -4.263   5.567 -30.206  1.00  0.00     0.050 C 
ENDBRANCH   9  12
ENDBRANCH   7   8
ENDBRANCH   6   7
ENDBRANCH   1   6
BRANCH   2  20
HETATM   20  C   UNL     1      -7.880   0.766 -34.620  1.00  0.00     0.234 C 
BRANCH  20  21
HETATM   21  C   UNL     1      -9.252   0.785 -33.961  1.00  0.00     0.240 C 
HETATM   22  N   UNL     1     -10.217   1.575 -34.562  1.00  0.00    -0.326 N 
HETATM   23  H   UNL     1      -9.943   2.146 -35.352  1.00  0.00     0.169 HD
HETATM   24  O   UNL     1      -9.440   0.061 -32.983  1.00  0.00    -0.271 OA
BRANCH  22  25
HETATM   25  C   UNL     1     -11.572   1.715 -34.184  1.00  0.00     0.037 A 
HETATM   26  C   UNL     1     -12.618   0.956 -34.715  1.00  0.00     0.066 A 
HETATM   27  C   UNL     1     -13.926   1.179 -34.282  1.00  0.00     0.067 A 
HETATM   28  C   UNL     1     -14.213   2.146 -33.329  1.00  0.00     0.036 A 
HETATM   29  C   UNL     1     -13.177   2.907 -32.794  1.00  0.00     0.005 A 
HETATM   30  C   UNL     1     -11.863   2.692 -33.220  1.00  0.00     0.029 A 
BRANCH  27  31
HETATM   31  O   UNL     1     -14.968   0.453 -34.781  1.00  0.00    -0.361 OA
HETATM   32  H   UNL     1     -15.430   0.027 -34.040  1.00  0.00     0.217 HD
ENDBRANCH  27  31
ENDBRANCH  22  25
ENDBRANCH  20  21
ENDBRANCH   2  20
BRANCH   3  33
HETATM   33  C   UNL     1      -5.777  -1.423 -33.873  1.00  0.00    -0.008 A 
HETATM   34  C   UNL     1      -6.950  -2.115 -34.207  1.00  0.00     0.017 A 
HETATM   35  C   UNL     1      -6.882  -3.420 -34.700  1.00  0.00     0.043 A 
HETATM   36  C   UNL     1      -5.643  -4.028 -34.867  1.00  0.00     0.116 A 
HETATM   37  F   UNL     1      -5.580  -5.276 -35.346  1.00  0.00    -0.206 F 
HETATM   38  C   UNL     1      -4.470  -3.356 -34.551  1.00  0.00     0.043 A 
HETATM   39  C   UNL     1      -4.537  -2.051 -34.056  1.00  0.00     0.017 A 
ENDBRANCH   3  33
TORSDOF 9
ENDMDL
MODEL 9
REMARK VINA RESULT:      -9.5      3.524      8.396
REMARK  9 active torsions:
REMARK  status: ('A' for Active; 'I' for Inactive)
REMARK    1  A    between atoms: C_3  and  N_4 
REMARK       I    between atoms: N_4  and  C_5 
REMARK    2  A    between atoms: C_5  and  C_6 
REMARK    3  A    between atoms: C_6  and  S_7 
REMARK    4  A    between atoms: S_7  and  C_8 
REMARK    5  A    between atoms: N_9  and  C_10 
REMARK    6  A    between atoms: C_10  and  C_11 
REMARK       I    between atoms: C_11  and  N_12 
REMARK    7  A    between atoms: N_12  and  C_13 
REMARK    8  A    between atoms: C_15  and  O_16 
REMARK    9  A    between atoms: C_21  and  C_22 
ROOT
HETATM    1  C   UNL     1      -8.019   2.045 -32.144  1.00  0.00     0.169 A 
HETATM    2  N   UNL     1      -6.787   2.163 -32.739  1.00  0.00    -0.315 N 
HETATM    3  C   UNL     1      -6.103   3.164 -32.067  1.00  0.00     0.065 A 
HETATM    4  C   UNL     1      -6.975   3.553 -31.066  1.00  0.00     0.150 A 
HETATM    5  N   UNL     1      -8.150   2.859 -31.128  1.00  0.00    -0.234 NA
ENDROOT
BRANCH   1   6
HETATM    6  S   UNL     1      -9.246   0.937 -32.650  1.00  0.00    -0.083 SA
BRANCH   6   7
HETATM    7  C   UNL     1      -9.819   1.734 -34.188  1.00  0.00     0.185 C 
BRANCH   7   8
HETATM    8  C   UNL     1     -11.192   2.384 -34.069  1.00  0.00     0.231 C 
HETATM    9  N   UNL     1     -11.981   1.896 -33.043  1.00  0.00    -0.326 N 
HETATM   10  H   UNL     1     -11.714   0.979 -32.707  1.00  0.00     0.169 HD
HETATM   11  O   UNL     1     -11.509   3.294 -34.834  1.00  0.00    -0.272 OA
BRANCH   9  12
HETATM   12  C   UNL     1     -13.286   2.330 -32.728  1.00  0.00     0.046 A 
HETATM   13  C   UNL     1     -14.367   1.510 -33.130  1.00  0.00    -0.035 A 
HETATM   14  C   UNL     1     -14.162   0.253 -33.934  1.00  0.00     0.050 C 
HETATM   15  C   UNL     1     -15.681   1.894 -32.818  1.00  0.00     0.009 A 
HETATM   16  C   UNL     1     -15.928   3.068 -32.116  1.00  0.00     0.001 A 
HETATM   17  C   UNL     1     -14.864   3.861 -31.697  1.00  0.00     0.009 A 
HETATM   18  C   UNL     1     -13.534   3.494 -31.971  1.00  0.00    -0.035 A 
HETATM   19  C   UNL     1     -12.450   4.355 -31.380  1.00  0.00     0.050 C 
ENDBRANCH   9  12
ENDBRANCH   7   8
ENDBRANCH   6   7
ENDBRANCH   1   6
BRANCH   2  20
HETATM   20  C   UNL     1      -6.280   1.358 -33.838  1.00  0.00     0.234 C 
BRANCH  20  21
HETATM   21  C   UNL     1      -6.006  -0.104 -33.517  1.00  0.00     0.240 C 
HETATM   22  N   UNL     1      -6.008  -0.984 -34.585  1.00  0.00    -0.326 N 
HETATM   23  H   UNL     1      -6.259  -0.627 -35.498  1.00  0.00     0.169 HD
HETATM   24  O   UNL     1      -5.743  -0.407 -32.352  1.00  0.00    -0.271 OA
BRANCH  22  25
HETATM   25  C   UNL     1      -5.724  -2.369 -34.560  1.00  0.00     0.037 A 
HETATM   26  C   UNL     1      -4.468  -2.909 -34.269  1.00  0.00     0.066 A 
HETATM   27  C   UNL     1      -4.288  -4.292 -34.280  1.00  0.00     0.067 A 
HETATM   28  C   UNL     1      -5.337  -5.152 -34.578  1.00  0.00     0.036 A 
HETATM   29  C   UNL     1      -6.592  -4.623 -34.869  1.00  0.00     0.005 A 
HETATM   30  C   UNL     1      -6.783  -3.239 -34.860  1.00  0.00     0.029 A 
BRANCH  27  31
HETATM   31  O   UNL     1      -3.074  -4.849 -33.999  1.00  0.00    -0.361 OA
HETATM   32  H   UNL     1      -2.921  -5.584 -34.616  1.00  0.00     0.217 HD
ENDBRANCH  27  31
ENDBRANCH  22  25
ENDBRANCH  20  21
ENDBRANCH   2  20
BRANCH   3  33
HETATM   33  C   UNL     1      -4.751   3.636 -32.340  1.00  0.00    -0.008 A 
HETATM   34  C   UNL     1      -4.456   4.363 -33.502  1.00  0.00     0.017 A 
HETATM   35  C   UNL     1      -3.159   4.830 -33.731  1.00  0.00     0.043 A 
HETATM   36  C   UNL     1      -2.163   4.579 -32.795  1.00  0.00     0.116 A 
HETATM   37  F   UNL     1      -0.923   5.034 -33.013  1.00  0.00    -0.206 F 
HETATM   38  C   UNL     1      -2.439   3.870 -31.633  1.00  0.00     0.043 A 
HETATM   39  C   UNL     1      -3.734   3.401 -31.404  1.00  0.00     0.017 A 
ENDBRANCH   3  33
TORSDOF 9
ENDMDL
MODEL 10
REMARK VINA RESULT:      -9.4      2.579      5.565
REMARK  9 active torsions:
REMARK  status: ('A' for Active; 'I' for Inactive)
REMARK    1  A    between atoms: C_3  and  N_4 
REMARK       I    between atoms: N_4  and  C_5 
REMARK    2  A    between atoms: C_5  and  C_6 
REMARK    3  A    between atoms: C_6  and  S_7 
REMARK    4  A    between atoms: S_7  and  C_8 
REMARK    5  A    between atoms: N_9  and  C_10 
REMARK    6  A    between atoms: C_10  and  C_11 
REMARK       I    between atoms: C_11  and  N_12 
REMARK    7  A    between atoms: N_12  and  C_13 
REMARK    8  A    between atoms: C_15  and  O_16 
REMARK    9  A    between atoms: C_21  and  C_22 
ROOT
HETATM    1  C   UNL     1      -5.007   2.096 -31.131  1.00  0.00     0.169 A 
HETATM    2  N   UNL     1      -5.728   1.098 -31.738  1.00  0.00    -0.315 N 
HETATM    3  C   UNL     1      -4.839   0.359 -32.502  1.00  0.00     0.065 A 
HETATM    4  C   UNL     1      -3.613   0.952 -32.260  1.00  0.00     0.150 A 
HETATM    5  N   UNL     1      -3.733   2.021 -31.418  1.00  0.00    -0.234 NA
ENDROOT
BRANCH   1   6
HETATM    6  S   UNL     1      -5.687   3.297 -30.090  1.00  0.00    -0.083 SA
BRANCH   6   7
HETATM    7  C   UNL     1      -5.965   4.661 -31.269  1.00  0.00     0.185 C 
BRANCH   7   8
HETATM    8  C   UNL     1      -4.756   5.570 -31.455  1.00  0.00     0.231 C 
HETATM    9  N   UNL     1      -3.596   5.128 -30.846  1.00  0.00    -0.326 N 
HETATM   10  H   UNL     1      -3.740   4.457 -30.100  1.00  0.00     0.169 HD
HETATM   11  O   UNL     1      -4.853   6.590 -32.134  1.00  0.00    -0.272 OA
BRANCH   9  12
HETATM   12  C   UNL     1      -2.348   5.787 -30.870  1.00  0.00     0.046 A 
HETATM   13  C   UNL     1      -1.503   5.555 -31.981  1.00  0.00    -0.035 A 
HETATM   14  C   UNL     1      -1.865   4.583 -33.073  1.00  0.00     0.050 C 
HETATM   15  C   UNL     1      -0.261   6.207 -32.054  1.00  0.00     0.009 A 
HETATM   16  C   UNL     1       0.140   7.080 -31.050  1.00  0.00     0.001 A 
HETATM   17  C   UNL     1      -0.702   7.330 -29.971  1.00  0.00     0.009 A 
HETATM   18  C   UNL     1      -1.963   6.712 -29.877  1.00  0.00    -0.035 A 
HETATM   19  C   UNL     1      -2.847   7.131 -28.734  1.00  0.00     0.050 C 
ENDBRANCH   9  12
ENDBRANCH   7   8
ENDBRANCH   6   7
ENDBRANCH   1   6
BRANCH   2  20
HETATM   20  C   UNL     1      -7.149   0.838 -31.574  1.00  0.00     0.234 C 
BRANCH  20  21
HETATM   21  C   UNL     1      -8.072   1.569 -32.538  1.00  0.00     0.240 C 
HETATM   22  N   UNL     1      -9.429   1.344 -32.388  1.00  0.00    -0.326 N 
HETATM   23  H   UNL     1      -9.727   0.660 -31.703  1.00  0.00     0.169 HD
HETATM   24  O   UNL     1      -7.571   2.352 -33.345  1.00  0.00    -0.271 OA
BRANCH  22  25
HETATM   25  C   UNL     1     -10.486   1.942 -33.111  1.00  0.00     0.037 A 
HETATM   26  C   UNL     1     -10.895   1.539 -34.385  1.00  0.00     0.066 A 
HETATM   27  C   UNL     1     -11.945   2.203 -35.020  1.00  0.00     0.067 A 
HETATM   28  C   UNL     1     -12.598   3.265 -34.409  1.00  0.00     0.036 A 
HETATM   29  C   UNL     1     -12.199   3.674 -33.140  1.00  0.00     0.005 A 
HETATM   30  C   UNL     1     -11.148   3.015 -32.495  1.00  0.00     0.029 A 
BRANCH  27  31
HETATM   31  O   UNL     1     -12.366   1.831 -36.263  1.00  0.00    -0.361 OA
HETATM   32  H   UNL     1     -12.964   1.070 -36.172  1.00  0.00     0.217 HD
ENDBRANCH  27  31
ENDBRANCH  22  25
ENDBRANCH  20  21
ENDBRANCH   2  20
BRANCH   3  33
HETATM   33  C   UNL     1      -5.147  -0.809 -33.320  1.00  0.00    -0.008 A 
HETATM   34  C   UNL     1      -6.257  -0.824 -34.176  1.00  0.00     0.017 A 
HETATM   35  C   UNL     1      -6.517  -1.943 -34.971  1.00  0.00     0.043 A 
HETATM   36  C   UNL     1      -5.665  -3.039 -34.918  1.00  0.00     0.116 A 
HETATM   37  F   UNL     1      -5.912  -4.106 -35.686  1.00  0.00    -0.206 F 
HETATM   38  C   UNL     1      -4.553  -3.038 -34.084  1.00  0.00     0.043 A 
HETATM   39  C   UNL     1      -4.293  -1.921 -33.286  1.00  0.00     0.017 A 
ENDBRANCH   3  33
TORSDOF 9
ENDMDL
