MODEL 1
REMARK VINA RESULT:      -9.3      0.000      0.000
REMARK  5 active torsions:
REMARK  status: ('A' for Active; 'I' for Inactive)
REMARK    1  A    between atoms: O_1  and  C_2 
REMARK    2  A    between atoms: C_6  and  C_7 
REMARK    3  A    between atoms: C_7  and  N_8 
REMARK       I    between atoms: N_8  and  C_9 
REMARK    4  A    between atoms: C_9  and  C_11 
REMARK    5  A    between atoms: C_14  and  C_17 
ROOT
HETATM    1  N   UNL     1      -5.299   3.954 -33.943  1.00  0.00    -0.353 N 
HETATM    2  C   UNL     1      -6.356   3.176 -33.524  1.00  0.00     0.251 C 
HETATM    3  O   UNL     1      -7.339   3.621 -32.942  1.00  0.00    -0.268 OA
HETATM    4  H   UNL     1      -4.439   3.510 -34.227  1.00  0.00     0.163 HD
ENDROOT
BRANCH   2   5
HETATM    5  C   UNL     1      -6.239   1.712 -33.769  1.00  0.00     0.032 A 
HETATM    6  C   UNL     1      -5.366   0.974 -32.962  1.00  0.00     0.018 A 
HETATM    7  C   UNL     1      -5.203  -0.400 -33.167  1.00  0.00     0.013 A 
HETATM    8  C   UNL     1      -5.916  -1.073 -34.173  1.00  0.00    -0.026 A 
HETATM    9  C   UNL     1      -6.809  -0.322 -34.958  1.00  0.00     0.013 A 
HETATM   10  C   UNL     1      -6.973   1.054 -34.760  1.00  0.00     0.018 A 
BRANCH   8  11
HETATM   11  C   UNL     1      -5.731  -2.519 -34.399  1.00  0.00    -0.023 A 
HETATM   12  C   UNL     1      -6.760  -3.312 -34.922  1.00  0.00     0.031 A 
HETATM   13  C   UNL     1      -6.541  -4.669 -35.106  1.00  0.00     0.117 A 
HETATM   14  N   UNL     1      -5.381  -5.289 -34.811  1.00  0.00    -0.273 NA
HETATM   15  C   UNL     1      -4.396  -4.516 -34.309  1.00  0.00     0.117 A 
HETATM   16  C   UNL     1      -4.521  -3.153 -34.090  1.00  0.00     0.031 A 
ENDBRANCH   8  11
ENDBRANCH   2   5
BRANCH   1  17
HETATM   17  C   UNL     1      -5.226   5.365 -33.632  1.00  0.00     0.161 C 
BRANCH  17  18
HETATM   18  C   UNL     1      -3.802   5.852 -33.692  1.00  0.00    -0.038 A 
HETATM   19  C   UNL     1      -3.355   6.853 -32.815  1.00  0.00     0.009 A 
HETATM   20  C   UNL     1      -2.032   7.300 -32.860  1.00  0.00     0.003 A 
HETATM   21  C   UNL     1      -1.141   6.755 -33.785  1.00  0.00     0.036 A 
HETATM   22  C   UNL     1      -1.583   5.765 -34.656  1.00  0.00     0.066 A 
HETATM   23  C   UNL     1      -2.898   5.310 -34.616  1.00  0.00     0.045 A 
BRANCH  22  24
HETATM   24  O   UNL     1      -0.748   5.207 -35.579  1.00  0.00    -0.361 OA
HETATM   25  H   UNL     1      -0.290   5.922 -36.051  1.00  0.00     0.217 HD
ENDBRANCH  22  24
ENDBRANCH  17  18
ENDBRANCH   1  17
TORSDOF 5
ENDMDL
MODEL 2
REMARK VINA RESULT:      -9.1      0.981      1.702
REMARK  5 active torsions:
REMARK  status: ('A' for Active; 'I' for Inactive)
REMARK    1  A    between atoms: O_1  and  C_2 
REMARK    2  A    between atoms: C_6  and  C_7 
REMARK    3  A    between atoms: C_7  and  N_8 
REMARK       I    between atoms: N_8  and  C_9 
REMARK    4  A    between atoms: C_9  and  C_11 
REMARK    5  A    between atoms: C_14  and  C_17 
ROOT
HETATM    1  N   UNL     1      -5.222   3.928 -33.923  1.00  0.00    -0.353 N 
HETATM    2  C   UNL     1      -6.279   3.156 -33.493  1.00  0.00     0.251 C 
HETATM    3  O   UNL     1      -7.253   3.605 -32.899  1.00  0.00    -0.268 OA
HETATM    4  H   UNL     1      -4.368   3.479 -34.218  1.00  0.00     0.163 HD
ENDROOT
BRANCH   2   5
HETATM    5  C   UNL     1      -6.174   1.691 -33.743  1.00  0.00     0.032 A 
HETATM    6  C   UNL     1      -5.313   0.943 -32.934  1.00  0.00     0.018 A 
HETATM    7  C   UNL     1      -5.162  -0.432 -33.143  1.00  0.00     0.013 A 
HETATM    8  C   UNL     1      -5.875  -1.095 -34.156  1.00  0.00    -0.026 A 
HETATM    9  C   UNL     1      -6.757  -0.333 -34.943  1.00  0.00     0.013 A 
HETATM   10  C   UNL     1      -6.910   1.044 -34.741  1.00  0.00     0.018 A 
BRANCH   8  11
HETATM   11  C   UNL     1      -5.703  -2.541 -34.385  1.00  0.00    -0.023 A 
HETATM   12  C   UNL     1      -4.518  -3.200 -34.029  1.00  0.00     0.031 A 
HETATM   13  C   UNL     1      -4.400  -4.559 -34.275  1.00  0.00     0.117 A 
HETATM   14  N   UNL     1      -5.367  -5.306 -34.843  1.00  0.00    -0.273 NA
HETATM   15  C   UNL     1      -6.504  -4.664 -35.181  1.00  0.00     0.117 A 
HETATM   16  C   UNL     1      -6.714  -3.309 -34.975  1.00  0.00     0.031 A 
ENDBRANCH   8  11
ENDBRANCH   2   5
BRANCH   1  17
HETATM   17  C   UNL     1      -5.137   5.338 -33.610  1.00  0.00     0.161 C 
BRANCH  17  18
HETATM   18  C   UNL     1      -3.713   5.821 -33.705  1.00  0.00    -0.038 A 
HETATM   19  C   UNL     1      -2.762   5.091 -34.437  1.00  0.00     0.009 A 
HETATM   20  C   UNL     1      -1.444   5.541 -34.538  1.00  0.00     0.003 A 
HETATM   21  C   UNL     1      -1.057   6.723 -33.905  1.00  0.00     0.036 A 
HETATM   22  C   UNL     1      -1.998   7.446 -33.178  1.00  0.00     0.066 A 
HETATM   23  C   UNL     1      -3.315   7.009 -33.076  1.00  0.00     0.045 A 
BRANCH  22  24
HETATM   24  O   UNL     1      -1.664   8.604 -32.540  1.00  0.00    -0.361 OA
HETATM   25  H   UNL     1      -1.493   8.403 -31.606  1.00  0.00     0.217 HD
ENDBRANCH  22  24
ENDBRANCH  17  18
ENDBRANCH   1  17
TORSDOF 5
ENDMDL
MODEL 3
REMARK VINA RESULT:      -9.1      0.485      1.473
REMARK  5 active torsions:
REMARK  status: ('A' for Active; 'I' for Inactive)
REMARK    1  A    between atoms: O_1  and  C_2 
REMARK    2  A    between atoms: C_6  and  C_7 
REMARK    3  A    between atoms: C_7  and  N_8 
REMARK       I    between atoms: N_8  and  C_9 
REMARK    4  A    between atoms: C_9  and  C_11 
REMARK    5  A    between atoms: C_14  and  C_17 
ROOT
HETATM    1  N   UNL     1      -5.282   3.994 -33.775  1.00  0.00    -0.353 N 
HETATM    2  C   UNL     1      -5.838   3.104 -32.882  1.00  0.00     0.251 C 
HETATM    3  O   UNL     1      -6.356   3.438 -31.823  1.00  0.00    -0.268 OA
HETATM    4  H   UNL     1      -4.696   3.648 -34.520  1.00  0.00     0.163 HD
ENDROOT
BRANCH   2   5
HETATM    5  C   UNL     1      -5.741   1.661 -33.238  1.00  0.00     0.032 A 
HETATM    6  C   UNL     1      -6.660   1.143 -34.155  1.00  0.00     0.018 A 
HETATM    7  C   UNL     1      -6.625  -0.211 -34.505  1.00  0.00     0.013 A 
HETATM    8  C   UNL     1      -5.665  -1.078 -33.957  1.00  0.00    -0.026 A 
HETATM    9  C   UNL     1      -4.731  -0.536 -33.056  1.00  0.00     0.013 A 
HETATM   10  C   UNL     1      -4.763   0.818 -32.699  1.00  0.00     0.018 A 
BRANCH   8  11
HETATM   11  C   UNL     1      -5.639  -2.508 -34.314  1.00  0.00    -0.023 A 
HETATM   12  C   UNL     1      -4.505  -3.297 -34.084  1.00  0.00     0.031 A 
HETATM   13  C   UNL     1      -4.526  -4.635 -34.446  1.00  0.00     0.117 A 
HETATM   14  N   UNL     1      -5.587  -5.242 -35.015  1.00  0.00    -0.273 NA
HETATM   15  C   UNL     1      -6.675  -4.475 -35.232  1.00  0.00     0.117 A 
HETATM   16  C   UNL     1      -6.747  -3.130 -34.904  1.00  0.00     0.031 A 
ENDBRANCH   8  11
ENDBRANCH   2   5
BRANCH   1  17
HETATM   17  C   UNL     1      -5.181   5.405 -33.475  1.00  0.00     0.161 C 
BRANCH  17  18
HETATM   18  C   UNL     1      -3.753   5.874 -33.587  1.00  0.00    -0.038 A 
HETATM   19  C   UNL     1      -3.258   6.859 -32.718  1.00  0.00     0.009 A 
HETATM   20  C   UNL     1      -1.932   7.287 -32.810  1.00  0.00     0.003 A 
HETATM   21  C   UNL     1      -1.086   6.741 -33.775  1.00  0.00     0.036 A 
HETATM   22  C   UNL     1      -1.575   5.766 -34.638  1.00  0.00     0.066 A 
HETATM   23  C   UNL     1      -2.894   5.329 -34.551  1.00  0.00     0.045 A 
BRANCH  22  24
HETATM   24  O   UNL     1      -0.785   5.207 -35.599  1.00  0.00    -0.361 OA
HETATM   25  H   UNL     1      -0.013   5.780 -35.734  1.00  0.00     0.217 HD
ENDBRANCH  22  24
ENDBRANCH  17  18
ENDBRANCH   1  17
TORSDOF 5
ENDMDL
MODEL 4
REMARK VINA RESULT:      -8.3      4.939      8.427
REMARK  5 active torsions:
REMARK  status: ('A' for Active; 'I' for Inactive)
REMARK    1  A    between atoms: O_1  and  C_2 
REMARK    2  A    between atoms: C_6  and  C_7 
REMARK    3  A    between atoms: C_7  and  N_8 
REMARK       I    between atoms: N_8  and  C_9 
REMARK    4  A    between atoms: C_9  and  C_11 
REMARK    5  A    between atoms: C_14  and  C_17 
ROOT
HETATM    1  N   UNL     1      -5.435  -0.499 -33.678  1.00  0.00    -0.353 N 
HETATM    2  C   UNL     1      -6.130  -0.318 -32.503  1.00  0.00     0.251 C 
HETATM    3  O   UNL     1      -5.707  -0.654 -31.403  1.00  0.00    -0.268 OA
HETATM    4  H   UNL     1      -5.915  -0.392 -34.559  1.00  0.00     0.163 HD
ENDROOT
BRANCH   2   5
HETATM    5  C   UNL     1      -7.489   0.282 -32.622  1.00  0.00     0.032 A 
HETATM    6  C   UNL     1      -8.174   0.130 -33.832  1.00  0.00     0.018 A 
HETATM    7  C   UNL     1      -9.443   0.694 -34.002  1.00  0.00     0.013 A 
HETATM    8  C   UNL     1     -10.063   1.412 -32.966  1.00  0.00    -0.026 A 
HETATM    9  C   UNL     1      -9.372   1.532 -31.747  1.00  0.00     0.013 A 
HETATM   10  C   UNL     1      -8.100   0.973 -31.572  1.00  0.00     0.018 A 
BRANCH   8  11
HETATM   11  C   UNL     1     -11.394   2.019 -33.152  1.00  0.00    -0.023 A 
HETATM   12  C   UNL     1     -11.668   3.323 -32.717  1.00  0.00     0.031 A 
HETATM   13  C   UNL     1     -12.937   3.846 -32.906  1.00  0.00     0.117 A 
HETATM   14  N   UNL     1     -13.947   3.173 -33.493  1.00  0.00    -0.273 NA
HETATM   15  C   UNL     1     -13.674   1.920 -33.910  1.00  0.00     0.117 A 
HETATM   16  C   UNL     1     -12.436   1.312 -33.765  1.00  0.00     0.031 A 
ENDBRANCH   8  11
ENDBRANCH   2   5
BRANCH   1  17
HETATM   17  C   UNL     1      -4.172  -1.204 -33.710  1.00  0.00     0.161 C 
BRANCH  17  18
HETATM   18  C   UNL     1      -4.391  -2.683 -33.904  1.00  0.00    -0.038 A 
HETATM   19  C   UNL     1      -3.508  -3.613 -33.333  1.00  0.00     0.009 A 
HETATM   20  C   UNL     1      -3.714  -4.984 -33.501  1.00  0.00     0.003 A 
HETATM   21  C   UNL     1      -4.800  -5.443 -34.245  1.00  0.00     0.036 A 
HETATM   22  C   UNL     1      -5.675  -4.522 -34.813  1.00  0.00     0.066 A 
HETATM   23  C   UNL     1      -5.482  -3.154 -34.648  1.00  0.00     0.045 A 
BRANCH  22  24
HETATM   24  O   UNL     1      -6.748  -4.925 -35.552  1.00  0.00    -0.361 OA
HETATM   25  H   UNL     1      -6.893  -4.279 -36.262  1.00  0.00     0.217 HD
ENDBRANCH  22  24
ENDBRANCH  17  18
ENDBRANCH   1  17
TORSDOF 5
ENDMDL
MODEL 5
REMARK VINA RESULT:      -8.0      3.064      4.321
REMARK  5 active torsions:
REMARK  status: ('A' for Active; 'I' for Inactive)
REMARK    1  A    between atoms: O_1  and  C_2 
REMARK    2  A    between atoms: C_6  and  C_7 
REMARK    3  A    between atoms: C_7  and  N_8 
REMARK       I    between atoms: N_8  and  C_9 
REMARK    4  A    between atoms: C_9  and  C_11 
REMARK    5  A    between atoms: C_14  and  C_17 
ROOT
HETATM    1  N   UNL     1      -7.386   3.525 -32.506  1.00  0.00    -0.353 N 
HETATM    2  C   UNL     1      -6.612   3.184 -33.594  1.00  0.00     0.251 C 
HETATM    3  O   UNL     1      -6.189   3.996 -34.408  1.00  0.00    -0.268 OA
HETATM    4  H   UNL     1      -7.869   2.802 -31.995  1.00  0.00     0.163 HD
ENDROOT
BRANCH   2   5
HETATM    5  C   UNL     1      -6.336   1.733 -33.781  1.00  0.00     0.032 A 
HETATM    6  C   UNL     1      -7.059   1.043 -34.760  1.00  0.00     0.018 A 
HETATM    7  C   UNL     1      -6.853  -0.326 -34.960  1.00  0.00     0.013 A 
HETATM    8  C   UNL     1      -5.912  -1.037 -34.196  1.00  0.00    -0.026 A 
HETATM    9  C   UNL     1      -5.174  -0.324 -33.234  1.00  0.00     0.013 A 
HETATM   10  C   UNL     1      -5.379   1.046 -33.027  1.00  0.00     0.018 A 
BRANCH   8  11
HETATM   11  C   UNL     1      -5.707  -2.483 -34.396  1.00  0.00    -0.023 A 
HETATM   12  C   UNL     1      -4.485  -3.096 -34.090  1.00  0.00     0.031 A 
HETATM   13  C   UNL     1      -4.338  -4.458 -34.305  1.00  0.00     0.117 A 
HETATM   14  N   UNL     1      -5.312  -5.249 -34.798  1.00  0.00    -0.273 NA
HETATM   15  C   UNL     1      -6.485  -4.650 -35.089  1.00  0.00     0.117 A 
HETATM   16  C   UNL     1      -6.726  -3.297 -34.908  1.00  0.00     0.031 A 
ENDBRANCH   8  11
ENDBRANCH   2   5
BRANCH   1  17
HETATM   17  C   UNL     1      -7.845   4.881 -32.298  1.00  0.00     0.161 C 
BRANCH  17  18
HETATM   18  C   UNL     1      -7.721   5.270 -30.847  1.00  0.00    -0.038 A 
HETATM   19  C   UNL     1      -8.730   6.021 -30.223  1.00  0.00     0.009 A 
HETATM   20  C   UNL     1      -8.624   6.374 -28.876  1.00  0.00     0.003 A 
HETATM   21  C   UNL     1      -7.506   5.986 -28.137  1.00  0.00     0.036 A 
HETATM   22  C   UNL     1      -6.505   5.244 -28.754  1.00  0.00     0.066 A 
HETATM   23  C   UNL     1      -6.603   4.883 -30.095  1.00  0.00     0.045 A 
BRANCH  22  24
HETATM   24  O   UNL     1      -5.393   4.846 -28.072  1.00  0.00    -0.361 OA
HETATM   25  H   UNL     1      -4.611   5.203 -28.522  1.00  0.00     0.217 HD
ENDBRANCH  22  24
ENDBRANCH  17  18
ENDBRANCH   1  17
TORSDOF 5
ENDMDL
MODEL 6
REMARK VINA RESULT:      -8.0      2.733      3.403
REMARK  5 active torsions:
REMARK  status: ('A' for Active; 'I' for Inactive)
REMARK    1  A    between atoms: O_1  and  C_2 
REMARK    2  A    between atoms: C_6  and  C_7 
REMARK    3  A    between atoms: C_7  and  N_8 
REMARK       I    between atoms: N_8  and  C_9 
REMARK    4  A    between atoms: C_9  and  C_11 
REMARK    5  A    between atoms: C_14  and  C_17 
ROOT
HETATM    1  N   UNL     1      -3.123   5.098 -32.402  1.00  0.00    -0.353 N 
HETATM    2  C   UNL     1      -4.043   4.388 -31.663  1.00  0.00     0.251 C 
HETATM    3  O   UNL     1      -4.530   4.793 -30.613  1.00  0.00    -0.268 OA
HETATM    4  H   UNL     1      -2.611   4.632 -33.136  1.00  0.00     0.163 HD
ENDROOT
BRANCH   2   5
HETATM    5  C   UNL     1      -4.406   3.038 -32.176  1.00  0.00     0.032 A 
HETATM    6  C   UNL     1      -3.524   1.980 -31.934  1.00  0.00     0.018 A 
HETATM    7  C   UNL     1      -3.808   0.698 -32.415  1.00  0.00     0.013 A 
HETATM    8  C   UNL     1      -4.984   0.437 -33.137  1.00  0.00    -0.026 A 
HETATM    9  C   UNL     1      -5.874   1.506 -33.349  1.00  0.00     0.013 A 
HETATM   10  C   UNL     1      -5.593   2.793 -32.873  1.00  0.00     0.018 A 
BRANCH   8  11
HETATM   11  C   UNL     1      -5.275  -0.912 -33.657  1.00  0.00    -0.023 A 
HETATM   12  C   UNL     1      -4.263  -1.870 -33.805  1.00  0.00     0.031 A 
HETATM   13  C   UNL     1      -4.584  -3.121 -34.308  1.00  0.00     0.117 A 
HETATM   14  N   UNL     1      -5.830  -3.487 -34.671  1.00  0.00    -0.273 NA
HETATM   15  C   UNL     1      -6.797  -2.559 -34.525  1.00  0.00     0.117 A 
HETATM   16  C   UNL     1      -6.572  -1.282 -34.031  1.00  0.00     0.031 A 
ENDBRANCH   8  11
ENDBRANCH   2   5
BRANCH   1  17
HETATM   17  C   UNL     1      -2.580   6.354 -31.933  1.00  0.00     0.161 C 
BRANCH  17  18
HETATM   18  C   UNL     1      -1.470   6.119 -30.940  1.00  0.00    -0.038 A 
HETATM   19  C   UNL     1      -1.477   6.772 -29.698  1.00  0.00     0.009 A 
HETATM   20  C   UNL     1      -0.457   6.549 -28.771  1.00  0.00     0.003 A 
HETATM   21  C   UNL     1       0.585   5.673 -29.075  1.00  0.00     0.036 A 
HETATM   22  C   UNL     1       0.594   5.026 -30.306  1.00  0.00     0.066 A 
HETATM   23  C   UNL     1      -0.420   5.238 -31.235  1.00  0.00     0.045 A 
BRANCH  22  24
HETATM   24  O   UNL     1       1.595   4.164 -30.648  1.00  0.00    -0.361 OA
HETATM   25  H   UNL     1       1.560   4.017 -31.607  1.00  0.00     0.217 HD
ENDBRANCH  22  24
ENDBRANCH  17  18
ENDBRANCH   1  17
TORSDOF 5
ENDMDL
MODEL 7
REMARK VINA RESULT:      -7.8      3.119      5.110
REMARK  5 active torsions:
REMARK  status: ('A' for Active; 'I' for Inactive)
REMARK    1  A    between atoms: O_1  and  C_2 
REMARK    2  A    between atoms: C_6  and  C_7 
REMARK    3  A    between atoms: C_7  and  N_8 
REMARK       I    between atoms: N_8  and  C_9 
REMARK    4  A    between atoms: C_9  and  C_11 
REMARK    5  A    between atoms: C_14  and  C_17 
ROOT
HETATM    1  N   UNL     1      -6.926   3.396 -32.016  1.00  0.00    -0.353 N 
HETATM    2  C   UNL     1      -6.590   3.070 -33.311  1.00  0.00     0.251 C 
HETATM    3  O   UNL     1      -6.482   3.892 -34.214  1.00  0.00    -0.268 OA
HETATM    4  H   UNL     1      -7.198   2.666 -31.375  1.00  0.00     0.163 HD
ENDROOT
BRANCH   2   5
HETATM    5  C   UNL     1      -6.400   1.621 -33.601  1.00  0.00     0.032 A 
HETATM    6  C   UNL     1      -5.599   0.873 -32.733  1.00  0.00     0.018 A 
HETATM    7  C   UNL     1      -5.371  -0.486 -32.974  1.00  0.00     0.013 A 
HETATM    8  C   UNL     1      -5.947  -1.134 -34.080  1.00  0.00    -0.026 A 
HETATM    9  C   UNL     1      -6.771  -0.373 -34.928  1.00  0.00     0.013 A 
HETATM   10  C   UNL     1      -7.000   0.989 -34.694  1.00  0.00     0.018 A 
BRANCH   8  11
HETATM   11  C   UNL     1      -5.693  -2.562 -34.342  1.00  0.00    -0.023 A 
HETATM   12  C   UNL     1      -6.670  -3.382 -34.922  1.00  0.00     0.031 A 
HETATM   13  C   UNL     1      -6.387  -4.722 -35.139  1.00  0.00     0.117 A 
HETATM   14  N   UNL     1      -5.211  -5.301 -34.826  1.00  0.00    -0.273 NA
HETATM   15  C   UNL     1      -4.276  -4.503 -34.269  1.00  0.00     0.117 A 
HETATM   16  C   UNL     1      -4.467  -3.154 -34.014  1.00  0.00     0.031 A 
ENDBRANCH   8  11
ENDBRANCH   2   5
BRANCH   1  17
HETATM   17  C   UNL     1      -7.281   4.749 -31.643  1.00  0.00     0.161 C 
BRANCH  17  18
HETATM   18  C   UNL     1      -8.778   4.926 -31.636  1.00  0.00    -0.038 A 
HETATM   19  C   UNL     1      -9.392   5.815 -32.532  1.00  0.00     0.009 A 
HETATM   20  C   UNL     1     -10.780   5.973 -32.537  1.00  0.00     0.003 A 
HETATM   21  C   UNL     1     -11.570   5.249 -31.645  1.00  0.00     0.036 A 
HETATM   22  C   UNL     1     -10.963   4.369 -30.755  1.00  0.00     0.066 A 
HETATM   23  C   UNL     1      -9.581   4.200 -30.745  1.00  0.00     0.045 A 
BRANCH  22  24
HETATM   24  O   UNL     1     -11.695   3.644 -29.863  1.00  0.00    -0.361 OA
HETATM   25  H   UNL     1     -11.088   3.094 -29.341  1.00  0.00     0.217 HD
ENDBRANCH  22  24
ENDBRANCH  17  18
ENDBRANCH   1  17
TORSDOF 5
ENDMDL
MODEL 8
REMARK VINA RESULT:      -7.8      3.811      5.956
REMARK  5 active torsions:
REMARK  status: ('A' for Active; 'I' for Inactive)
REMARK    1  A    between atoms: O_1  and  C_2 
REMARK    2  A    between atoms: C_6  and  C_7 
REMARK    3  A    between atoms: C_7  and  N_8 
REMARK       I    between atoms: N_8  and  C_9 
REMARK    4  A    between atoms: C_9  and  C_11 
REMARK    5  A    between atoms: C_14  and  C_17 
ROOT
HETATM    1  N   UNL     1      -8.813   2.913 -32.653  1.00  0.00    -0.353 N 
HETATM    2  C   UNL     1      -7.700   2.760 -33.449  1.00  0.00     0.251 C 
HETATM    3  O   UNL     1      -7.096   3.695 -33.962  1.00  0.00    -0.268 OA
HETATM    4  H   UNL     1      -9.380   2.108 -32.433  1.00  0.00     0.163 HD
ENDROOT
BRANCH   2   5
HETATM    5  C   UNL     1      -7.264   1.360 -33.717  1.00  0.00     0.032 A 
HETATM    6  C   UNL     1      -6.733   0.619 -32.657  1.00  0.00     0.018 A 
HETATM    7  C   UNL     1      -6.289  -0.691 -32.862  1.00  0.00     0.013 A 
HETATM    8  C   UNL     1      -6.375  -1.298 -34.126  1.00  0.00    -0.026 A 
HETATM    9  C   UNL     1      -6.936  -0.548 -35.175  1.00  0.00     0.013 A 
HETATM   10  C   UNL     1      -7.379   0.766 -34.977  1.00  0.00     0.018 A 
BRANCH   8  11
HETATM   11  C   UNL     1      -5.892  -2.673 -34.344  1.00  0.00    -0.023 A 
HETATM   12  C   UNL     1      -4.588  -3.052 -33.997  1.00  0.00     0.031 A 
HETATM   13  C   UNL     1      -4.177  -4.355 -34.231  1.00  0.00     0.117 A 
HETATM   14  N   UNL     1      -4.962  -5.302 -34.780  1.00  0.00    -0.273 NA
HETATM   15  C   UNL     1      -6.215  -4.929 -35.111  1.00  0.00     0.117 A 
HETATM   16  C   UNL     1      -6.716  -3.651 -34.915  1.00  0.00     0.031 A 
ENDBRANCH   8  11
ENDBRANCH   2   5
BRANCH   1  17
HETATM   17  C   UNL     1      -9.421   4.209 -32.441  1.00  0.00     0.161 C 
BRANCH  17  18
HETATM   18  C   UNL     1     -10.613   4.394 -33.345  1.00  0.00    -0.038 A 
HETATM   19  C   UNL     1     -10.545   5.265 -34.443  1.00  0.00     0.009 A 
HETATM   20  C   UNL     1     -11.644   5.431 -35.289  1.00  0.00     0.003 A 
HETATM   21  C   UNL     1     -12.825   4.732 -35.046  1.00  0.00     0.036 A 
HETATM   22  C   UNL     1     -12.895   3.869 -33.957  1.00  0.00     0.066 A 
HETATM   23  C   UNL     1     -11.805   3.693 -33.111  1.00  0.00     0.045 A 
BRANCH  22  24
HETATM   24  O   UNL     1     -14.032   3.168 -33.679  1.00  0.00    -0.361 OA
HETATM   25  H   UNL     1     -14.317   3.389 -32.777  1.00  0.00     0.217 HD
ENDBRANCH  22  24
ENDBRANCH  17  18
ENDBRANCH   1  17
TORSDOF 5
ENDMDL
MODEL 9
REMARK VINA RESULT:      -7.8     15.345     17.147
REMARK  5 active torsions:
REMARK  status: ('A' for Active; 'I' for Inactive)
REMARK    1  A    between atoms: O_1  and  C_2 
REMARK    2  A    between atoms: C_6  and  C_7 
REMARK    3  A    between atoms: C_7  and  N_8 
REMARK       I    between atoms: N_8  and  C_9 
REMARK    4  A    between atoms: C_9  and  C_11 
REMARK    5  A    between atoms: C_14  and  C_17 
ROOT
HETATM    1  N   UNL     1      -2.902 -12.467 -39.008  1.00  0.00    -0.353 N 
HETATM    2  C   UNL     1      -3.923 -12.441 -38.084  1.00  0.00     0.251 C 
HETATM    3  O   UNL     1      -3.748 -12.288 -36.880  1.00  0.00    -0.268 OA
HETATM    4  H   UNL     1      -3.087 -12.798 -39.943  1.00  0.00     0.163 HD
ENDROOT
BRANCH   2   5
HETATM    5  C   UNL     1      -5.299 -12.664 -38.610  1.00  0.00     0.032 A 
HETATM    6  C   UNL     1      -6.211 -13.355 -37.806  1.00  0.00     0.018 A 
HETATM    7  C   UNL     1      -7.508 -13.610 -38.264  1.00  0.00     0.013 A 
HETATM    8  C   UNL     1      -7.929 -13.170 -39.530  1.00  0.00    -0.026 A 
HETATM    9  C   UNL     1      -7.009 -12.454 -40.316  1.00  0.00     0.013 A 
HETATM   10  C   UNL     1      -5.708 -12.199 -39.864  1.00  0.00     0.018 A 
BRANCH   8  11
HETATM   11  C   UNL     1      -9.292 -13.454 -40.018  1.00  0.00    -0.023 A 
HETATM   12  C   UNL     1      -9.615 -14.685 -40.602  1.00  0.00     0.031 A 
HETATM   13  C   UNL     1     -10.908 -14.900 -41.055  1.00  0.00     0.117 A 
HETATM   14  N   UNL     1     -11.895 -13.986 -40.969  1.00  0.00    -0.273 NA
HETATM   15  C   UNL     1     -11.574 -12.805 -40.405  1.00  0.00     0.117 A 
HETATM   16  C   UNL     1     -10.311 -12.498 -39.924  1.00  0.00     0.031 A 
ENDBRANCH   8  11
ENDBRANCH   2   5
BRANCH   1  17
HETATM   17  C   UNL     1      -1.514 -12.411 -38.605  1.00  0.00     0.161 C 
BRANCH  17  18
HETATM   18  C   UNL     1      -0.772 -13.636 -39.074  1.00  0.00    -0.038 A 
HETATM   19  C   UNL     1      -1.336 -14.481 -40.043  1.00  0.00     0.009 A 
HETATM   20  C   UNL     1      -0.647 -15.612 -40.488  1.00  0.00     0.003 A 
HETATM   21  C   UNL     1       0.611 -15.914 -39.969  1.00  0.00     0.036 A 
HETATM   22  C   UNL     1       1.170 -15.079 -39.007  1.00  0.00     0.066 A 
HETATM   23  C   UNL     1       0.494 -13.947 -38.560  1.00  0.00     0.045 A 
BRANCH  22  24
HETATM   24  O   UNL     1       2.397 -15.338 -38.469  1.00  0.00    -0.361 OA
HETATM   25  H   UNL     1       2.651 -14.586 -37.909  1.00  0.00     0.217 HD
ENDBRANCH  22  24
ENDBRANCH  17  18
ENDBRANCH   1  17
TORSDOF 5
ENDMDL
MODEL 10
REMARK VINA RESULT:      -7.7      5.357     11.094
REMARK  5 active torsions:
REMARK  status: ('A' for Active; 'I' for Inactive)
REMARK    1  A    between atoms: O_1  and  C_2 
REMARK    2  A    between atoms: C_6  and  C_7 
REMARK    3  A    between atoms: C_7  and  N_8 
REMARK       I    between atoms: N_8  and  C_9 
REMARK    4  A    between atoms: C_9  and  C_11 
REMARK    5  A    between atoms: C_14  and  C_17 
ROOT
HETATM    1  N   UNL     1      -2.337   4.248 -31.105  1.00  0.00    -0.353 N 
HETATM    2  C   UNL     1      -1.556   5.306 -31.516  1.00  0.00     0.251 C 
HETATM    3  O   UNL     1      -1.322   5.562 -32.692  1.00  0.00    -0.268 OA
HETATM    4  H   UNL     1      -2.324   3.970 -30.135  1.00  0.00     0.163 HD
ENDROOT
BRANCH   2   5
HETATM    5  C   UNL     1      -0.941   6.133 -30.441  1.00  0.00     0.032 A 
HETATM    6  C   UNL     1       0.039   5.547 -29.634  1.00  0.00     0.018 A 
HETATM    7  C   UNL     1       0.631   6.275 -28.596  1.00  0.00     0.013 A 
HETATM    8  C   UNL     1       0.267   7.608 -28.346  1.00  0.00    -0.026 A 
HETATM    9  C   UNL     1      -0.700   8.192 -29.183  1.00  0.00     0.013 A 
HETATM   10  C   UNL     1      -1.299   7.467 -30.221  1.00  0.00     0.018 A 
BRANCH   8  11
HETATM   11  C   UNL     1       0.880   8.369 -27.242  1.00  0.00    -0.023 A 
HETATM   12  C   UNL     1       1.778   7.767 -26.351  1.00  0.00     0.031 A 
HETATM   13  C   UNL     1       2.320   8.521 -25.322  1.00  0.00     0.117 A 
HETATM   14  N   UNL     1       2.036   9.823 -25.116  1.00  0.00    -0.273 NA
HETATM   15  C   UNL     1       1.171  10.394 -25.979  1.00  0.00     0.117 A 
HETATM   16  C   UNL     1       0.579   9.722 -27.037  1.00  0.00     0.031 A 
ENDBRANCH   8  11
ENDBRANCH   2   5
BRANCH   1  17
HETATM   17  C   UNL     1      -2.867   3.286 -32.046  1.00  0.00     0.161 C 
BRANCH  17  18
HETATM   18  C   UNL     1      -3.800   2.324 -31.357  1.00  0.00    -0.038 A 
HETATM   19  C   UNL     1      -3.553   0.943 -31.396  1.00  0.00     0.009 A 
HETATM   20  C   UNL     1      -4.410   0.049 -30.749  1.00  0.00     0.003 A 
HETATM   21  C   UNL     1      -5.526   0.523 -30.061  1.00  0.00     0.036 A 
HETATM   22  C   UNL     1      -5.773   1.891 -30.024  1.00  0.00     0.066 A 
HETATM   23  C   UNL     1      -4.923   2.791 -30.660  1.00  0.00     0.045 A 
BRANCH  22  24
HETATM   24  O   UNL     1      -6.855   2.400 -29.366  1.00  0.00    -0.361 OA
HETATM   25  H   UNL     1      -7.660   2.082 -29.805  1.00  0.00     0.217 HD
ENDBRANCH  22  24
ENDBRANCH  17  18
ENDBRANCH   1  17
TORSDOF 5
ENDMDL
