MODEL 1
REMARK VINA RESULT:      -8.6      0.000      0.000
REMARK  4 active torsions:
REMARK  status: ('A' for Active; 'I' for Inactive)
REMARK    1  A    between atoms: C_2  and  N_3 
REMARK    2  A    between atoms: C_11  and  C_12 
REMARK    3  A    between atoms: C_12  and  N_13 
REMARK    4  A    between atoms: C_16  and  N_17 
ROOT
HETATM    1  N   UNL     1      -5.661   3.632 -32.587  1.00  0.00    -0.065 N 
HETATM    2  H   UNL     1      -4.793   3.130 -32.363  1.00  0.00     0.280 HD
HETATM    3  C   UNL     1      -5.342   4.784 -33.526  1.00  0.00     0.268 C 
HETATM    4  C   UNL     1      -4.292   5.830 -33.013  1.00  0.00     0.214 C 
HETATM    5  C   UNL     1      -4.863   6.619 -31.825  1.00  0.00     0.035 C 
HETATM    6  C   UNL     1      -4.795   5.980 -30.441  1.00  0.00     0.004 C 
HETATM    7  C   UNL     1      -5.224   4.521 -30.302  1.00  0.00     0.028 C 
HETATM    8  C   UNL     1      -6.297   4.035 -31.264  1.00  0.00     0.235 C 
ENDROOT
BRANCH   1   9
HETATM    9  C   UNL     1      -6.487   2.522 -33.295  1.00  0.00     0.276 C 
BRANCH   9  10
HETATM   10  C   UNL     1      -5.923   1.130 -33.313  1.00  0.00     0.009 A 
HETATM   11  C   UNL     1      -6.265   0.184 -34.287  1.00  0.00     0.136 A 
HETATM   12  N   UNL     1      -5.786  -1.069 -34.394  1.00  0.00    -0.216 NA
HETATM   13 CL   UNL     1      -7.435   0.518 -35.511  1.00  0.00    -0.062 Cl
HETATM   14  C   UNL     1      -4.857  -1.373 -33.467  1.00  0.00     0.159 A 
HETATM   15  N   UNL     1      -4.139  -2.539 -33.348  1.00  0.00    -0.248 N 
HETATM   16  C   UNL     1      -4.411  -0.544 -32.447  1.00  0.00     0.031 A 
HETATM   17  N   UNL     1      -3.303  -2.533 -32.283  1.00  0.00    -0.182 NA
HETATM   18  C   UNL     1      -3.455  -1.317 -31.758  1.00  0.00     0.154 A 
HETATM   19  C   UNL     1      -4.956   0.748 -32.362  1.00  0.00     0.029 A 
BRANCH  15  20
HETATM   20  C   UNL     1      -4.180  -3.687 -34.247  1.00  0.00     0.104 C 
HETATM   21  C   UNL     1      -5.617  -4.077 -34.590  1.00  0.00     0.034 C 
HETATM   22  C   UNL     1      -3.404  -4.873 -33.672  1.00  0.00     0.034 C 
ENDBRANCH  15  20
ENDBRANCH   9  10
ENDBRANCH   1   9
BRANCH   4  23
HETATM   23  N   UNL     1      -2.902   5.246 -32.688  1.00  0.00    -0.065 N 
HETATM   24  H   UNL     1      -2.901   4.766 -31.781  1.00  0.00     0.280 HD
HETATM   25  C   UNL     1      -1.801   6.320 -32.572  1.00  0.00     0.235 C 
HETATM   26  C   UNL     1      -1.295   6.519 -33.990  1.00  0.00     0.029 C 
HETATM   27  C   UNL     1      -1.689   5.268 -34.762  1.00  0.00     0.029 C 
HETATM   28  C   UNL     1      -2.281   4.327 -33.736  1.00  0.00     0.235 C 
ENDBRANCH   4  23
TORSDOF 4
ENDMDL
MODEL 2
REMARK VINA RESULT:      -8.6      2.113      7.360
REMARK  4 active torsions:
REMARK  status: ('A' for Active; 'I' for Inactive)
REMARK    1  A    between atoms: C_2  and  N_3 
REMARK    2  A    between atoms: C_11  and  C_12 
REMARK    3  A    between atoms: C_12  and  N_13 
REMARK    4  A    between atoms: C_16  and  N_17 
ROOT
HETATM    1  N   UNL     1      -6.400   1.738 -33.386  1.00  0.00    -0.065 N 
HETATM    2  H   UNL     1      -5.518   1.747 -33.911  1.00  0.00     0.280 HD
HETATM    3  C   UNL     1      -6.303   0.712 -32.268  1.00  0.00     0.268 C 
HETATM    4  C   UNL     1      -5.976  -0.760 -32.700  1.00  0.00     0.214 C 
HETATM    5  C   UNL     1      -7.151  -1.355 -33.492  1.00  0.00     0.035 C 
HETATM    6  C   UNL     1      -7.258  -1.018 -34.977  1.00  0.00     0.004 C 
HETATM    7  C   UNL     1      -7.081   0.438 -35.398  1.00  0.00     0.028 C 
HETATM    8  C   UNL     1      -7.515   1.493 -34.391  1.00  0.00     0.235 C 
ENDROOT
BRANCH   1   9
HETATM    9  C   UNL     1      -6.447   3.190 -32.833  1.00  0.00     0.276 C 
BRANCH   9  10
HETATM   10  C   UNL     1      -5.142   3.872 -32.540  1.00  0.00     0.009 A 
HETATM   11  C   UNL     1      -4.685   4.111 -31.237  1.00  0.00     0.136 A 
HETATM   12  N   UNL     1      -3.519   4.686 -30.887  1.00  0.00    -0.216 NA
HETATM   13 CL   UNL     1      -5.631   3.709 -29.851  1.00  0.00    -0.062 Cl
HETATM   14  C   UNL     1      -2.738   5.004 -31.936  1.00  0.00     0.159 A 
HETATM   15  N   UNL     1      -1.473   5.542 -31.909  1.00  0.00    -0.248 N 
HETATM   16  C   UNL     1      -3.047   4.826 -33.277  1.00  0.00     0.031 A 
HETATM   17  N   UNL     1      -0.975   5.772 -33.147  1.00  0.00    -0.182 NA
HETATM   18  C   UNL     1      -1.921   5.315 -33.968  1.00  0.00     0.154 A 
HETATM   19  C   UNL     1      -4.285   4.241 -33.595  1.00  0.00     0.029 A 
BRANCH  15  20
HETATM   20  C   UNL     1      -0.668   5.825 -30.725  1.00  0.00     0.104 C 
HETATM   21  C   UNL     1      -0.629   7.322 -30.421  1.00  0.00     0.034 C 
HETATM   22  C   UNL     1       0.741   5.247 -30.858  1.00  0.00     0.034 C 
ENDBRANCH  15  20
ENDBRANCH   9  10
ENDBRANCH   1   9
BRANCH   4  23
HETATM   23  N   UNL     1      -4.641  -0.933 -33.453  1.00  0.00    -0.065 N 
HETATM   24  H   UNL     1      -4.740  -0.695 -34.447  1.00  0.00     0.280 HD
HETATM   25  C   UNL     1      -4.117  -2.383 -33.439  1.00  0.00     0.235 C 
HETATM   26  C   UNL     1      -3.313  -2.498 -32.156  1.00  0.00     0.029 C 
HETATM   27  C   UNL     1      -2.952  -1.077 -31.751  1.00  0.00     0.029 C 
HETATM   28  C   UNL     1      -3.433  -0.197 -32.885  1.00  0.00     0.235 C 
ENDBRANCH   4  23
TORSDOF 4
ENDMDL
MODEL 3
REMARK VINA RESULT:      -8.2      1.986      3.377
REMARK  4 active torsions:
REMARK  status: ('A' for Active; 'I' for Inactive)
REMARK    1  A    between atoms: C_2  and  N_3 
REMARK    2  A    between atoms: C_11  and  C_12 
REMARK    3  A    between atoms: C_12  and  N_13 
REMARK    4  A    between atoms: C_16  and  N_17 
ROOT
HETATM    1  N   UNL     1      -3.978   4.019 -32.205  1.00  0.00    -0.065 N 
HETATM    2  H   UNL     1      -4.199   4.847 -31.639  1.00  0.00     0.280 HD
HETATM    3  C   UNL     1      -2.496   3.705 -32.069  1.00  0.00     0.268 C 
HETATM    4  C   UNL     1      -1.502   4.850 -32.471  1.00  0.00     0.214 C 
HETATM    5  C   UNL     1      -1.572   5.109 -33.984  1.00  0.00     0.035 C 
HETATM    6  C   UNL     1      -2.695   5.999 -34.508  1.00  0.00     0.004 C 
HETATM    7  C   UNL     1      -4.111   5.744 -33.997  1.00  0.00     0.028 C 
HETATM    8  C   UNL     1      -4.448   4.308 -33.623  1.00  0.00     0.235 C 
ENDROOT
BRANCH   1   9
HETATM    9  C   UNL     1      -4.861   2.935 -31.527  1.00  0.00     0.276 C 
BRANCH   9  10
HETATM   10  C   UNL     1      -5.145   1.679 -32.299  1.00  0.00     0.009 A 
HETATM   11  C   UNL     1      -4.435   0.488 -32.100  1.00  0.00     0.136 A 
HETATM   12  N   UNL     1      -4.645  -0.687 -32.724  1.00  0.00    -0.216 NA
HETATM   13 CL   UNL     1      -3.110   0.389 -31.000  1.00  0.00    -0.062 Cl
HETATM   14  C   UNL     1      -5.681  -0.663 -33.584  1.00  0.00     0.159 A 
HETATM   15  N   UNL     1      -6.184  -1.709 -34.322  1.00  0.00    -0.248 N 
HETATM   16  C   UNL     1      -6.478   0.432 -33.882  1.00  0.00     0.031 A 
HETATM   17  N   UNL     1      -7.216  -1.341 -35.116  1.00  0.00    -0.182 NA
HETATM   18  C   UNL     1      -7.404  -0.053 -34.828  1.00  0.00     0.154 A 
HETATM   19  C   UNL     1      -6.209   1.643 -33.222  1.00  0.00     0.029 A 
BRANCH  15  20
HETATM   20  C   UNL     1      -5.742  -3.099 -34.283  1.00  0.00     0.104 C 
HETATM   21  C   UNL     1      -4.338  -3.256 -34.865  1.00  0.00     0.034 C 
HETATM   22  C   UNL     1      -6.741  -4.021 -34.983  1.00  0.00     0.034 C 
ENDBRANCH  15  20
ENDBRANCH   9  10
ENDBRANCH   1   9
BRANCH   4  23
HETATM   23  N   UNL     1      -1.660   6.157 -31.666  1.00  0.00    -0.065 N 
HETATM   24  H   UNL     1      -2.541   6.631 -31.893  1.00  0.00     0.280 HD
HETATM   25  C   UNL     1      -0.559   7.194 -31.966  1.00  0.00     0.235 C 
HETATM   26  C   UNL     1       0.577   6.846 -31.021  1.00  0.00     0.029 C 
HETATM   27  C   UNL     1      -0.040   6.026 -29.897  1.00  0.00     0.029 C 
HETATM   28  C   UNL     1      -1.531   6.048 -30.150  1.00  0.00     0.235 C 
ENDBRANCH   4  23
TORSDOF 4
ENDMDL
MODEL 4
REMARK VINA RESULT:      -8.1      1.993      7.751
REMARK  4 active torsions:
REMARK  status: ('A' for Active; 'I' for Inactive)
REMARK    1  A    between atoms: C_2  and  N_3 
REMARK    2  A    between atoms: C_11  and  C_12 
REMARK    3  A    between atoms: C_12  and  N_13 
REMARK    4  A    between atoms: C_16  and  N_17 
ROOT
HETATM    1  N   UNL     1      -6.277   1.023 -32.518  1.00  0.00    -0.065 N 
HETATM    2  H   UNL     1      -5.350   1.143 -32.941  1.00  0.00     0.280 HD
HETATM    3  C   UNL     1      -6.440  -0.424 -32.079  1.00  0.00     0.268 C 
HETATM    4  C   UNL     1      -6.268  -1.514 -33.193  1.00  0.00     0.214 C 
HETATM    5  C   UNL     1      -7.418  -1.423 -34.208  1.00  0.00     0.035 C 
HETATM    6  C   UNL     1      -7.315  -0.378 -35.315  1.00  0.00     0.004 C 
HETATM    7  C   UNL     1      -6.902   1.040 -34.929  1.00  0.00     0.028 C 
HETATM    8  C   UNL     1      -7.299   1.506 -33.536  1.00  0.00     0.235 C 
ENDROOT
BRANCH   1   9
HETATM    9  C   UNL     1      -6.192   1.987 -31.302  1.00  0.00     0.276 C 
BRANCH   9  10
HETATM   10  C   UNL     1      -5.221   3.130 -31.381  1.00  0.00     0.009 A 
HETATM   11  C   UNL     1      -3.832   2.949 -31.359  1.00  0.00     0.136 A 
HETATM   12  N   UNL     1      -2.894   3.911 -31.456  1.00  0.00    -0.216 NA
HETATM   13 CL   UNL     1      -3.118   1.391 -31.158  1.00  0.00    -0.062 Cl
HETATM   14  C   UNL     1      -3.404   5.146 -31.629  1.00  0.00     0.159 A 
HETATM   15  N   UNL     1      -2.714   6.319 -31.821  1.00  0.00    -0.248 N 
HETATM   16  C   UNL     1      -4.749   5.482 -31.676  1.00  0.00     0.031 A 
HETATM   17  N   UNL     1      -3.530   7.394 -31.931  1.00  0.00    -0.182 NA
HETATM   18  C   UNL     1      -4.757   6.878 -31.867  1.00  0.00     0.154 A 
HETATM   19  C   UNL     1      -5.692   4.447 -31.550  1.00  0.00     0.029 A 
BRANCH  15  20
HETATM   20  C   UNL     1      -1.268   6.474 -31.946  1.00  0.00     0.104 C 
HETATM   21  C   UNL     1      -0.681   7.222 -30.751  1.00  0.00     0.034 C 
HETATM   22  C   UNL     1      -0.893   7.149 -33.265  1.00  0.00     0.034 C 
ENDBRANCH  15  20
ENDBRANCH   9  10
ENDBRANCH   1   9
BRANCH   4  23
HETATM   23  N   UNL     1      -4.893  -1.511 -33.893  1.00  0.00    -0.065 N 
HETATM   24  H   UNL     1      -4.830  -0.759 -34.589  1.00  0.00     0.280 HD
HETATM   25  C   UNL     1      -4.608  -2.807 -34.680  1.00  0.00     0.235 C 
HETATM   26  C   UNL     1      -3.996  -3.756 -33.665  1.00  0.00     0.029 C 
HETATM   27  C   UNL     1      -3.471  -2.887 -32.532  1.00  0.00     0.029 C 
HETATM   28  C   UNL     1      -3.664  -1.459 -32.992  1.00  0.00     0.235 C 
ENDBRANCH   4  23
TORSDOF 4
ENDMDL
MODEL 5
REMARK VINA RESULT:      -7.8      2.166      3.314
REMARK  4 active torsions:
REMARK  status: ('A' for Active; 'I' for Inactive)
REMARK    1  A    between atoms: C_2  and  N_3 
REMARK    2  A    between atoms: C_11  and  C_12 
REMARK    3  A    between atoms: C_12  and  N_13 
REMARK    4  A    between atoms: C_16  and  N_17 
ROOT
HETATM    1  N   UNL     1      -4.302   5.620 -30.126  1.00  0.00    -0.065 N 
HETATM    2  H   UNL     1      -3.443   5.062 -30.056  1.00  0.00     0.280 HD
HETATM    3  C   UNL     1      -4.470   6.097 -31.559  1.00  0.00     0.268 C 
HETATM    4  C   UNL     1      -3.290   6.942 -32.155  1.00  0.00     0.214 C 
HETATM    5  C   UNL     1      -3.196   8.300 -31.442  1.00  0.00     0.035 C 
HETATM    6  C   UNL     1      -2.466   8.357 -30.104  1.00  0.00     0.004 C 
HETATM    7  C   UNL     1      -2.790   7.289 -29.062  1.00  0.00     0.028 C 
HETATM    8  C   UNL     1      -4.203   6.726 -29.085  1.00  0.00     0.235 C 
ENDROOT
BRANCH   1   9
HETATM    9  C   UNL     1      -5.383   4.574 -29.737  1.00  0.00     0.276 C 
BRANCH   9  10
HETATM   10  C   UNL     1      -5.553   3.376 -30.626  1.00  0.00     0.009 A 
HETATM   11  C   UNL     1      -6.781   3.026 -31.202  1.00  0.00     0.136 A 
HETATM   12  N   UNL     1      -7.014   1.991 -32.032  1.00  0.00    -0.216 NA
HETATM   13 CL   UNL     1      -8.229   3.903 -30.868  1.00  0.00    -0.062 Cl
HETATM   14  C   UNL     1      -5.910   1.283 -32.335  1.00  0.00     0.159 A 
HETATM   15  N   UNL     1      -5.805   0.217 -33.196  1.00  0.00    -0.248 N 
HETATM   16  C   UNL     1      -4.629   1.509 -31.851  1.00  0.00     0.031 A 
HETATM   17  N   UNL     1      -4.552  -0.291 -33.252  1.00  0.00    -0.182 NA
HETATM   18  C   UNL     1      -3.842   0.509 -32.456  1.00  0.00     0.154 A 
HETATM   19  C   UNL     1      -4.438   2.588 -30.971  1.00  0.00     0.029 A 
BRANCH  15  20
HETATM   20  C   UNL     1      -6.866  -0.343 -34.027  1.00  0.00     0.104 C 
HETATM   21  C   UNL     1      -6.615  -1.818 -34.336  1.00  0.00     0.034 C 
HETATM   22  C   UNL     1      -7.057   0.469 -35.308  1.00  0.00     0.034 C 
ENDBRANCH  15  20
ENDBRANCH   9  10
ENDBRANCH   1   9
BRANCH   4  23
HETATM   23  N   UNL     1      -1.926   6.221 -32.181  1.00  0.00    -0.065 N 
HETATM   24  H   UNL     1      -1.417   6.353 -31.300  1.00  0.00     0.280 HD
HETATM   25  C   UNL     1      -0.977   6.753 -33.274  1.00  0.00     0.235 C 
HETATM   26  C   UNL     1      -1.328   5.959 -34.520  1.00  0.00     0.029 C 
HETATM   27  C   UNL     1      -2.034   4.701 -34.038  1.00  0.00     0.029 C 
HETATM   28  C   UNL     1      -1.942   4.736 -32.528  1.00  0.00     0.235 C 
ENDBRANCH   4  23
TORSDOF 4
ENDMDL
MODEL 6
REMARK VINA RESULT:      -7.8      2.717      7.542
REMARK  4 active torsions:
REMARK  status: ('A' for Active; 'I' for Inactive)
REMARK    1  A    between atoms: C_2  and  N_3 
REMARK    2  A    between atoms: C_11  and  C_12 
REMARK    3  A    between atoms: C_12  and  N_13 
REMARK    4  A    between atoms: C_16  and  N_17 
ROOT
HETATM    1  N   UNL     1      -7.406   2.315 -31.761  1.00  0.00    -0.065 N 
HETATM    2  H   UNL     1      -6.771   2.509 -32.544  1.00  0.00     0.280 HD
HETATM    3  C   UNL     1      -7.391   0.823 -31.467  1.00  0.00     0.268 C 
HETATM    4  C   UNL     1      -7.777  -0.125 -32.656  1.00  0.00     0.214 C 
HETATM    5  C   UNL     1      -9.261   0.050 -33.015  1.00  0.00     0.035 C 
HETATM    6  C   UNL     1      -9.646   1.219 -33.916  1.00  0.00     0.004 C 
HETATM    7  C   UNL     1      -9.062   2.594 -33.600  1.00  0.00     0.028 C 
HETATM    8  C   UNL     1      -8.766   2.884 -32.136  1.00  0.00     0.235 C 
ENDROOT
BRANCH   1   9
HETATM    9  C   UNL     1      -6.747   3.134 -30.616  1.00  0.00     0.276 C 
BRANCH   9  10
HETATM   10  C   UNL     1      -5.513   3.926 -30.940  1.00  0.00     0.009 A 
HETATM   11  C   UNL     1      -5.144   5.079 -30.237  1.00  0.00     0.136 A 
HETATM   12  N   UNL     1      -4.043   5.827 -30.440  1.00  0.00    -0.216 NA
HETATM   13 CL   UNL     1      -6.128   5.736 -28.981  1.00  0.00    -0.062 Cl
HETATM   14  C   UNL     1      -3.234   5.346 -31.403  1.00  0.00     0.159 A 
HETATM   15  N   UNL     1      -2.015   5.842 -31.802  1.00  0.00    -0.248 N 
HETATM   16  C   UNL     1      -3.459   4.218 -32.180  1.00  0.00     0.031 A 
HETATM   17  N   UNL     1      -1.472   5.138 -32.822  1.00  0.00    -0.182 NA
HETATM   18  C   UNL     1      -2.337   4.145 -33.029  1.00  0.00     0.154 A 
HETATM   19  C   UNL     1      -4.632   3.480 -31.945  1.00  0.00     0.029 A 
BRANCH  15  20
HETATM   20  C   UNL     1      -1.297   6.970 -31.218  1.00  0.00     0.104 C 
HETATM   21  C   UNL     1      -1.713   8.291 -31.861  1.00  0.00     0.034 C 
HETATM   22  C   UNL     1       0.217   6.766 -31.295  1.00  0.00     0.034 C 
ENDBRANCH  15  20
ENDBRANCH   9  10
ENDBRANCH   1   9
BRANCH   4  23
HETATM   23  N   UNL     1      -6.875  -0.002 -33.901  1.00  0.00    -0.065 N 
HETATM   24  H   UNL     1      -7.071   0.862 -34.420  1.00  0.00     0.280 HD
HETATM   25  C   UNL     1      -7.088  -1.138 -34.922  1.00  0.00     0.235 C 
HETATM   26  C   UNL     1      -6.165  -2.254 -34.466  1.00  0.00     0.029 C 
HETATM   27  C   UNL     1      -5.111  -1.602 -33.584  1.00  0.00     0.029 C 
HETATM   28  C   UNL     1      -5.371  -0.114 -33.673  1.00  0.00     0.235 C 
ENDBRANCH   4  23
TORSDOF 4
ENDMDL
MODEL 7
REMARK VINA RESULT:      -7.7      3.195      7.993
REMARK  4 active torsions:
REMARK  status: ('A' for Active; 'I' for Inactive)
REMARK    1  A    between atoms: C_2  and  N_3 
REMARK    2  A    between atoms: C_11  and  C_12 
REMARK    3  A    between atoms: C_12  and  N_13 
REMARK    4  A    between atoms: C_16  and  N_17 
ROOT
HETATM    1  N   UNL     1      -5.417   3.243 -31.903  1.00  0.00    -0.065 N 
HETATM    2  H   UNL     1      -6.420   3.320 -32.108  1.00  0.00     0.280 HD
HETATM    3  C   UNL     1      -4.813   2.156 -32.778  1.00  0.00     0.268 C 
HETATM    4  C   UNL     1      -5.448   0.728 -32.653  1.00  0.00     0.214 C 
HETATM    5  C   UNL     1      -5.153   0.133 -31.267  1.00  0.00     0.035 C 
HETATM    6  C   UNL     1      -6.046   0.554 -30.103  1.00  0.00     0.004 C 
HETATM    7  C   UNL     1      -6.355   2.039 -29.934  1.00  0.00     0.028 C 
HETATM    8  C   UNL     1      -5.284   3.012 -30.405  1.00  0.00     0.235 C 
ENDROOT
BRANCH   1   9
HETATM    9  C   UNL     1      -4.908   4.655 -32.304  1.00  0.00     0.276 C 
BRANCH   9  10
HETATM   10  C   UNL     1      -3.744   5.223 -31.544  1.00  0.00     0.009 A 
HETATM   11  C   UNL     1      -3.895   6.147 -30.502  1.00  0.00     0.136 A 
HETATM   12  N   UNL     1      -2.912   6.681 -29.752  1.00  0.00    -0.216 NA
HETATM   13 CL   UNL     1      -5.439   6.775 -30.057  1.00  0.00    -0.062 Cl
HETATM   14  C   UNL     1      -1.687   6.209 -30.053  1.00  0.00     0.159 A 
HETATM   15  N   UNL     1      -0.497   6.507 -29.433  1.00  0.00    -0.248 N 
HETATM   16  C   UNL     1      -1.380   5.293 -31.048  1.00  0.00     0.031 A 
HETATM   17  N   UNL     1       0.561   5.885 -30.003  1.00  0.00    -0.182 NA
HETATM   18  C   UNL     1       0.018   5.135 -30.962  1.00  0.00     0.154 A 
HETATM   19  C   UNL     1      -2.435   4.779 -31.820  1.00  0.00     0.029 A 
BRANCH  15  20
HETATM   20  C   UNL     1      -0.310   7.356 -28.260  1.00  0.00     0.104 C 
HETATM   21  C   UNL     1       1.007   8.125 -28.331  1.00  0.00     0.034 C 
HETATM   22  C   UNL     1      -0.414   6.548 -26.966  1.00  0.00     0.034 C 
ENDBRANCH  15  20
ENDBRANCH   9  10
ENDBRANCH   1   9
BRANCH   4  23
HETATM   23  N   UNL     1      -6.952   0.656 -32.991  1.00  0.00    -0.065 N 
HETATM   24  H   UNL     1      -7.528   0.948 -32.194  1.00  0.00     0.280 HD
HETATM   25  C   UNL     1      -7.433  -0.769 -33.332  1.00  0.00     0.235 C 
HETATM   26  C   UNL     1      -7.175  -0.926 -34.820  1.00  0.00     0.029 C 
HETATM   27  C   UNL     1      -7.069   0.483 -35.385  1.00  0.00     0.029 C 
HETATM   28  C   UNL     1      -7.411   1.407 -34.237  1.00  0.00     0.235 C 
ENDBRANCH   4  23
TORSDOF 4
ENDMDL
MODEL 8
REMARK VINA RESULT:      -7.4      2.307      3.387
REMARK  4 active torsions:
REMARK  status: ('A' for Active; 'I' for Inactive)
REMARK    1  A    between atoms: C_2  and  N_3 
REMARK    2  A    between atoms: C_11  and  C_12 
REMARK    3  A    between atoms: C_12  and  N_13 
REMARK    4  A    between atoms: C_16  and  N_17 
ROOT
HETATM    1  N   UNL     1      -5.033   6.056 -30.379  1.00  0.00    -0.065 N 
HETATM    2  H   UNL     1      -4.580   5.190 -30.065  1.00  0.00     0.280 HD
HETATM    3  C   UNL     1      -4.066   6.835 -31.254  1.00  0.00     0.268 C 
HETATM    4  C   UNL     1      -2.688   7.213 -30.606  1.00  0.00     0.214 C 
HETATM    5  C   UNL     1      -2.894   8.237 -29.479  1.00  0.00     0.035 C 
HETATM    6  C   UNL     1      -3.316   7.717 -28.107  1.00  0.00     0.004 C 
HETATM    7  C   UNL     1      -4.449   6.696 -28.043  1.00  0.00     0.028 C 
HETATM    8  C   UNL     1      -5.508   6.788 -29.132  1.00  0.00     0.235 C 
ENDROOT
BRANCH   1   9
HETATM    9  C   UNL     1      -6.232   5.500 -31.197  1.00  0.00     0.276 C 
BRANCH   9  10
HETATM   10  C   UNL     1      -6.179   4.063 -31.631  1.00  0.00     0.009 A 
HETATM   11  C   UNL     1      -5.869   3.677 -32.941  1.00  0.00     0.136 A 
HETATM   12  N   UNL     1      -5.771   2.417 -33.405  1.00  0.00    -0.216 NA
HETATM   13 CL   UNL     1      -5.601   4.833 -34.194  1.00  0.00    -0.062 Cl
HETATM   14  C   UNL     1      -5.958   1.477 -32.459  1.00  0.00     0.159 A 
HETATM   15  N   UNL     1      -5.862   0.113 -32.600  1.00  0.00    -0.248 N 
HETATM   16  C   UNL     1      -6.265   1.702 -31.125  1.00  0.00     0.031 A 
HETATM   17  N   UNL     1      -6.143  -0.553 -31.455  1.00  0.00    -0.182 NA
HETATM   18  C   UNL     1      -6.361   0.413 -30.563  1.00  0.00     0.154 A 
HETATM   19  C   UNL     1      -6.378   3.034 -30.691  1.00  0.00     0.029 A 
BRANCH  15  20
HETATM   20  C   UNL     1      -5.468  -0.617 -33.800  1.00  0.00     0.104 C 
HETATM   21  C   UNL     1      -6.604  -1.496 -34.319  1.00  0.00     0.034 C 
HETATM   22  C   UNL     1      -4.197  -1.434 -33.563  1.00  0.00     0.034 C 
ENDBRANCH  15  20
ENDBRANCH   9  10
ENDBRANCH   1   9
BRANCH   4  23
HETATM   23  N   UNL     1      -1.845   6.012 -30.132  1.00  0.00    -0.065 N 
HETATM   24  H   UNL     1      -2.231   5.599 -29.276  1.00  0.00     0.280 HD
HETATM   25  C   UNL     1      -0.393   6.390 -29.774  1.00  0.00     0.235 C 
HETATM   26  C   UNL     1       0.370   6.304 -31.084  1.00  0.00     0.029 C 
HETATM   27  C   UNL     1      -0.458   5.418 -32.002  1.00  0.00     0.029 C 
HETATM   28  C   UNL     1      -1.598   4.903 -31.150  1.00  0.00     0.235 C 
ENDBRANCH   4  23
TORSDOF 4
ENDMDL
MODEL 9
REMARK VINA RESULT:      -7.4     16.113     17.705
REMARK  4 active torsions:
REMARK  status: ('A' for Active; 'I' for Inactive)
REMARK    1  A    between atoms: C_2  and  N_3 
REMARK    2  A    between atoms: C_11  and  C_12 
REMARK    3  A    between atoms: C_12  and  N_13 
REMARK    4  A    between atoms: C_16  and  N_17 
ROOT
HETATM    1  N   UNL     1      -3.136 -14.508 -36.243  1.00  0.00    -0.065 N 
HETATM    2  H   UNL     1      -3.519 -14.957 -37.082  1.00  0.00     0.280 HD
HETATM    3  C   UNL     1      -1.786 -13.895 -36.579  1.00  0.00     0.268 C 
HETATM    4  C   UNL     1      -0.699 -14.872 -37.149  1.00  0.00     0.214 C 
HETATM    5  C   UNL     1      -0.264 -15.873 -36.067  1.00  0.00     0.035 C 
HETATM    6  C   UNL     1      -1.140 -17.099 -35.831  1.00  0.00     0.004 C 
HETATM    7  C   UNL     1      -2.649 -16.894 -35.717  1.00  0.00     0.028 C 
HETATM    8  C   UNL     1      -3.110 -15.562 -35.145  1.00  0.00     0.235 C 
ENDROOT
BRANCH   1   9
HETATM    9  C   UNL     1      -4.207 -13.420 -35.956  1.00  0.00     0.276 C 
BRANCH   9  10
HETATM   10  C   UNL     1      -5.353 -13.291 -36.919  1.00  0.00     0.009 A 
HETATM   11  C   UNL     1      -6.681 -13.554 -36.558  1.00  0.00     0.136 A 
HETATM   12  N   UNL     1      -7.766 -13.434 -37.347  1.00  0.00    -0.216 NA
HETATM   13 CL   UNL     1      -7.103 -14.128 -34.987  1.00  0.00    -0.062 Cl
HETATM   14  C   UNL     1      -7.488 -12.974 -38.581  1.00  0.00     0.159 A 
HETATM   15  N   UNL     1      -8.376 -12.687 -39.590  1.00  0.00    -0.248 N 
HETATM   16  C   UNL     1      -6.231 -12.666 -39.081  1.00  0.00     0.031 A 
HETATM   17  N   UNL     1      -7.765 -12.270 -40.724  1.00  0.00    -0.182 NA
HETATM   18  C   UNL     1      -6.472 -12.236 -40.402  1.00  0.00     0.154 A 
HETATM   19  C   UNL     1      -5.125 -12.826 -38.229  1.00  0.00     0.029 A 
BRANCH  15  20
HETATM   20  C   UNL     1      -9.832 -12.757 -39.520  1.00  0.00     0.104 C 
HETATM   21  C   UNL     1     -10.346 -14.136 -39.931  1.00  0.00     0.034 C 
HETATM   22  C   UNL     1     -10.484 -11.651 -40.349  1.00  0.00     0.034 C 
ENDBRANCH  15  20
ENDBRANCH   9  10
ENDBRANCH   1   9
BRANCH   4  23
HETATM   23  N   UNL     1      -1.096 -15.589 -38.456  1.00  0.00    -0.065 N 
HETATM   24  H   UNL     1      -1.657 -16.427 -38.267  1.00  0.00     0.280 HD
HETATM   25  C   UNL     1       0.116 -16.094 -39.266  1.00  0.00     0.235 C 
HETATM   26  C   UNL     1       0.527 -14.918 -40.133  1.00  0.00     0.029 C 
HETATM   27  C   UNL     1      -0.686 -14.003 -40.214  1.00  0.00     0.029 C 
HETATM   28  C   UNL     1      -1.802 -14.747 -39.514  1.00  0.00     0.235 C 
ENDBRANCH   4  23
TORSDOF 4
ENDMDL
MODEL 10
REMARK VINA RESULT:      -7.4      3.065      8.185
REMARK  4 active torsions:
REMARK  status: ('A' for Active; 'I' for Inactive)
REMARK    1  A    between atoms: C_2  and  N_3 
REMARK    2  A    between atoms: C_11  and  C_12 
REMARK    3  A    between atoms: C_12  and  N_13 
REMARK    4  A    between atoms: C_16  and  N_17 
ROOT
HETATM    1  N   UNL     1      -5.596   3.329 -31.780  1.00  0.00    -0.065 N 
HETATM    2  H   UNL     1      -6.607   3.360 -31.955  1.00  0.00     0.280 HD
HETATM    3  C   UNL     1      -4.952   2.354 -32.752  1.00  0.00     0.268 C 
HETATM    4  C   UNL     1      -5.497   0.883 -32.727  1.00  0.00     0.214 C 
HETATM    5  C   UNL     1      -5.128   0.202 -31.400  1.00  0.00     0.035 C 
HETATM    6  C   UNL     1      -6.011   0.474 -30.186  1.00  0.00     0.004 C 
HETATM    7  C   UNL     1      -6.405   1.920 -29.892  1.00  0.00     0.028 C 
HETATM    8  C   UNL     1      -5.408   2.991 -30.308  1.00  0.00     0.235 C 
ENDROOT
BRANCH   1   9
HETATM    9  C   UNL     1      -5.184   4.798 -32.079  1.00  0.00     0.276 C 
BRANCH   9  10
HETATM   10  C   UNL     1      -4.126   5.419 -31.213  1.00  0.00     0.009 A 
HETATM   11  C   UNL     1      -2.756   5.205 -31.416  1.00  0.00     0.136 A 
HETATM   12  N   UNL     1      -1.745   5.745 -30.709  1.00  0.00    -0.216 NA
HETATM   13 CL   UNL     1      -2.171   4.136 -32.637  1.00  0.00    -0.062 Cl
HETATM   14  C   UNL     1      -2.152   6.600 -29.752  1.00  0.00     0.159 A 
HETATM   15  N   UNL     1      -1.369   7.354 -28.910  1.00  0.00    -0.248 N 
HETATM   16  C   UNL     1      -3.465   6.918 -29.436  1.00  0.00     0.031 A 
HETATM   17  N   UNL     1      -2.095   8.090 -28.037  1.00  0.00    -0.182 NA
HETATM   18  C   UNL     1      -3.360   7.841 -28.376  1.00  0.00     0.154 A 
HETATM   19  C   UNL     1      -4.488   6.314 -30.186  1.00  0.00     0.029 A 
BRANCH  15  20
HETATM   20  C   UNL     1       0.088   7.441 -28.916  1.00  0.00     0.104 C 
HETATM   21  C   UNL     1       0.729   6.123 -28.484  1.00  0.00     0.034 C 
HETATM   22  C   UNL     1       0.579   8.606 -28.056  1.00  0.00     0.034 C 
ENDBRANCH  15  20
ENDBRANCH   9  10
ENDBRANCH   1   9
BRANCH   4  23
HETATM   23  N   UNL     1      -7.002   0.746 -33.035  1.00  0.00    -0.065 N 
HETATM   24  H   UNL     1      -7.575   1.031 -32.233  1.00  0.00     0.280 HD
HETATM   25  C   UNL     1      -7.432  -0.705 -33.337  1.00  0.00     0.235 C 
HETATM   26  C   UNL     1      -7.195  -0.883 -34.826  1.00  0.00     0.029 C 
HETATM   27  C   UNL     1      -7.156   0.516 -35.422  1.00  0.00     0.029 C 
HETATM   28  C   UNL     1      -7.514   1.451 -34.287  1.00  0.00     0.235 C 
ENDBRANCH   4  23
TORSDOF 4
ENDMDL
