MODEL 1
REMARK VINA RESULT:      -8.9      0.000      0.000
REMARK  9 active torsions:
REMARK  status: ('A' for Active; 'I' for Inactive)
REMARK    1  A    between atoms: O_2  and  C_3 
REMARK    2  A    between atoms: C_6  and  C_7 
REMARK    3  A    between atoms: C_13  and  C_14 
REMARK       I    between atoms: C_14  and  N_15 
REMARK    4  A    between atoms: N_15  and  N_16 
REMARK    5  A    between atoms: N_16  and  C_17 
REMARK    6  A    between atoms: C_17  and  N_18 
REMARK    7  A    between atoms: N_18  and  C_19 
REMARK    8  A    between atoms: C_19  and  C_20 
REMARK    9  A    between atoms: C_27  and  C_28 
ROOT
HETATM    1  C   UNL     1      -6.284   0.113 -34.575  1.00  0.00     0.118 C 
HETATM    2  N   UNL     1      -5.438   0.912 -33.691  1.00  0.00    -0.365 N 
HETATM    3  C   UNL     1      -5.715   1.000 -32.365  1.00  0.00     0.138 A 
HETATM    4  N   UNL     1      -6.956   0.666 -31.887  1.00  0.00    -0.240 N 
HETATM    5  N   UNL     1      -7.052   0.747 -30.551  1.00  0.00    -0.181 NA
HETATM    6  C   UNL     1      -5.849   1.205 -30.188  1.00  0.00     0.160 A 
HETATM    7  C   UNL     1      -4.952   1.364 -31.270  1.00  0.00     0.098 A 
HETATM    8  C   UNL     1      -8.024   0.130 -32.712  1.00  0.00     0.221 C 
HETATM    9  C   UNL     1      -7.747   0.418 -34.203  1.00  0.00     0.066 C 
HETATM   10  H   UNL     1      -4.474   1.056 -34.005  1.00  0.00     0.161 HD
ENDROOT
BRANCH   7  11
HETATM   11  C   UNL     1      -3.572   1.813 -31.312  1.00  0.00     0.275 C 
HETATM   12  N   UNL     1      -3.268   3.060 -31.842  1.00  0.00    -0.263 N 
HETATM   13  H   UNL     1      -2.294   3.300 -31.672  1.00  0.00     0.190 HD
HETATM   14  O   UNL     1      -2.644   1.116 -30.897  1.00  0.00    -0.266 OA
BRANCH  12  15
HETATM   15  N   UNL     1      -4.154   4.154 -31.764  1.00  0.00    -0.274 N 
HETATM   16  H   UNL     1      -4.677   4.257 -30.900  1.00  0.00     0.189 HD
BRANCH  15  17
HETATM   17  C   UNL     1      -4.467   4.902 -32.872  1.00  0.00     0.186 C 
HETATM   18  S   UNL     1      -5.790   4.662 -33.868  1.00  0.00    -0.040 SA
BRANCH  17  19
HETATM   19  N   UNL     1      -3.633   5.935 -33.174  1.00  0.00    -0.360 N 
HETATM   20  H   UNL     1      -3.937   6.831 -32.811  1.00  0.00     0.162 HD
BRANCH  19  21
HETATM   21  C   UNL     1      -2.310   5.886 -33.767  1.00  0.00     0.187 C 
BRANCH  21  22
HETATM   22  C   UNL     1      -1.284   6.002 -32.708  1.00  0.00     0.070 A 
HETATM   23  O   UNL     1      -0.957   4.852 -32.048  1.00  0.00    -0.325 OA
HETATM   24  C   UNL     1      -0.009   5.181 -31.131  1.00  0.00     0.142 A 
HETATM   25  C   UNL     1       0.280   6.523 -31.196  1.00  0.00     0.027 A 
HETATM   26  C   UNL     1      -0.544   7.057 -32.214  1.00  0.00     0.036 A 
ENDBRANCH  21  22
ENDBRANCH  19  21
ENDBRANCH  17  19
ENDBRANCH  15  17
ENDBRANCH  12  15
ENDBRANCH   7  11
BRANCH   1  27
HETATM   27  C   UNL     1      -5.942  -1.374 -34.557  1.00  0.00    -0.035 A 
HETATM   28  C   UNL     1      -4.675  -1.858 -34.193  1.00  0.00     0.012 A 
HETATM   29  C   UNL     1      -4.405  -3.229 -34.174  1.00  0.00     0.037 A 
HETATM   30  C   UNL     1      -5.387  -4.155 -34.520  1.00  0.00     0.068 A 
HETATM   31  C   UNL     1      -6.636  -3.694 -34.924  1.00  0.00     0.037 A 
HETATM   32  C   UNL     1      -6.907  -2.318 -34.951  1.00  0.00     0.012 A 
BRANCH  30  33
HETATM   33  O   UNL     1      -5.000  -5.463 -34.439  1.00  0.00    -0.356 OA
HETATM   34  C   UNL     1      -3.828  -5.734 -33.680  1.00  0.00     0.210 C 
ENDBRANCH  30  33
ENDBRANCH   1  27
BRANCH   8  35
HETATM   35  C   UNL     1      -9.373   0.698 -32.333  1.00  0.00     0.409 C 
HETATM   36  F   UNL     1      -9.890   1.503 -33.288  1.00  0.00    -0.169 F 
HETATM   37  F   UNL     1     -10.264  -0.320 -32.169  1.00  0.00    -0.169 F 
HETATM   38  F   UNL     1      -9.369   1.374 -31.165  1.00  0.00    -0.169 F 
ENDBRANCH   8  35
TORSDOF 9
ENDMDL
MODEL 2
REMARK VINA RESULT:      -8.8      2.131      2.662
REMARK  9 active torsions:
REMARK  status: ('A' for Active; 'I' for Inactive)
REMARK    1  A    between atoms: O_2  and  C_3 
REMARK    2  A    between atoms: C_6  and  C_7 
REMARK    3  A    between atoms: C_13  and  C_14 
REMARK       I    between atoms: C_14  and  N_15 
REMARK    4  A    between atoms: N_15  and  N_16 
REMARK    5  A    between atoms: N_16  and  C_17 
REMARK    6  A    between atoms: C_17  and  N_18 
REMARK    7  A    between atoms: N_18  and  C_19 
REMARK    8  A    between atoms: C_19  and  C_20 
REMARK    9  A    between atoms: C_27  and  C_28 
ROOT
HETATM    1  C   UNL     1      -6.518   1.814 -34.250  1.00  0.00     0.118 C 
HETATM    2  N   UNL     1      -5.553   2.523 -33.414  1.00  0.00    -0.365 N 
HETATM    3  C   UNL     1      -5.733   2.606 -32.070  1.00  0.00     0.138 A 
HETATM    4  N   UNL     1      -6.964   2.363 -31.515  1.00  0.00    -0.240 N 
HETATM    5  N   UNL     1      -6.964   2.423 -30.175  1.00  0.00    -0.181 NA
HETATM    6  C   UNL     1      -5.707   2.775 -29.887  1.00  0.00     0.160 A 
HETATM    7  C   UNL     1      -4.873   2.884 -31.025  1.00  0.00     0.098 A 
HETATM    8  C   UNL     1      -8.125   1.932 -32.275  1.00  0.00     0.221 C 
HETATM    9  C   UNL     1      -7.924   2.228 -33.776  1.00  0.00     0.066 C 
HETATM   10  H   UNL     1      -4.604   2.595 -33.790  1.00  0.00     0.161 HD
ENDROOT
BRANCH   7  11
HETATM   11  C   UNL     1      -3.466   3.220 -31.152  1.00  0.00     0.275 C 
HETATM   12  N   UNL     1      -3.077   4.552 -31.192  1.00  0.00    -0.263 N 
HETATM   13  H   UNL     1      -2.064   4.637 -31.134  1.00  0.00     0.190 HD
HETATM   14  O   UNL     1      -2.592   2.356 -31.238  1.00  0.00    -0.266 OA
BRANCH  12  15
HETATM   15  N   UNL     1      -3.781   5.569 -30.515  1.00  0.00    -0.274 N 
HETATM   16  H   UNL     1      -4.748   5.372 -30.275  1.00  0.00     0.189 HD
BRANCH  15  17
HETATM   17  C   UNL     1      -3.268   6.836 -30.393  1.00  0.00     0.186 C 
HETATM   18  S   UNL     1      -2.601   7.488 -29.003  1.00  0.00    -0.040 SA
BRANCH  17  19
HETATM   19  N   UNL     1      -3.293   7.621 -31.505  1.00  0.00    -0.360 N 
HETATM   20  H   UNL     1      -4.112   8.213 -31.574  1.00  0.00     0.162 HD
BRANCH  19  21
HETATM   21  C   UNL     1      -2.240   7.848 -32.477  1.00  0.00     0.187 C 
BRANCH  21  22
HETATM   22  C   UNL     1      -2.252   6.767 -33.487  1.00  0.00     0.070 A 
HETATM   23  O   UNL     1      -3.478   6.291 -33.856  1.00  0.00    -0.325 OA
HETATM   24  C   UNL     1      -3.261   5.318 -34.779  1.00  0.00     0.142 A 
HETATM   25  C   UNL     1      -1.914   5.165 -35.012  1.00  0.00     0.027 A 
HETATM   26  C   UNL     1      -1.259   6.100 -34.176  1.00  0.00     0.036 A 
ENDBRANCH  21  22
ENDBRANCH  19  21
ENDBRANCH  17  19
ENDBRANCH  15  17
ENDBRANCH  12  15
ENDBRANCH   7  11
BRANCH   1  27
HETATM   27  C   UNL     1      -6.299   0.305 -34.279  1.00  0.00    -0.035 A 
HETATM   28  C   UNL     1      -7.217  -0.586 -34.858  1.00  0.00     0.012 A 
HETATM   29  C   UNL     1      -6.973  -1.962 -34.878  1.00  0.00     0.037 A 
HETATM   30  C   UNL     1      -5.811  -2.489 -34.320  1.00  0.00     0.068 A 
HETATM   31  C   UNL     1      -4.908  -1.628 -33.704  1.00  0.00     0.037 A 
HETATM   32  C   UNL     1      -5.154  -0.248 -33.676  1.00  0.00     0.012 A 
BRANCH  30  33
HETATM   33  O   UNL     1      -5.685  -3.846 -34.425  1.00  0.00    -0.356 OA
HETATM   34  C   UNL     1      -6.551  -4.495 -35.347  1.00  0.00     0.210 C 
ENDBRANCH  30  33
ENDBRANCH   1  27
BRANCH   8  35
HETATM   35  C   UNL     1      -9.395   2.600 -31.796  1.00  0.00     0.409 C 
HETATM   36  F   UNL     1      -9.334   3.949 -31.863  1.00  0.00    -0.169 F 
HETATM   37  F   UNL     1     -10.432   2.224 -32.595  1.00  0.00    -0.169 F 
HETATM   38  F   UNL     1      -9.752   2.252 -30.542  1.00  0.00    -0.169 F 
ENDBRANCH   8  35
TORSDOF 9
ENDMDL
MODEL 3
REMARK VINA RESULT:      -8.6      3.604      6.285
REMARK  9 active torsions:
REMARK  status: ('A' for Active; 'I' for Inactive)
REMARK    1  A    between atoms: O_2  and  C_3 
REMARK    2  A    between atoms: C_6  and  C_7 
REMARK    3  A    between atoms: C_13  and  C_14 
REMARK       I    between atoms: C_14  and  N_15 
REMARK    4  A    between atoms: N_15  and  N_16 
REMARK    5  A    between atoms: N_16  and  C_17 
REMARK    6  A    between atoms: C_17  and  N_18 
REMARK    7  A    between atoms: N_18  and  C_19 
REMARK    8  A    between atoms: C_19  and  C_20 
REMARK    9  A    between atoms: C_27  and  C_28 
ROOT
HETATM    1  C   UNL     1      -3.516   2.556 -31.215  1.00  0.00     0.118 C 
HETATM    2  N   UNL     1      -4.594   3.293 -30.561  1.00  0.00    -0.365 N 
HETATM    3  C   UNL     1      -5.468   4.031 -31.292  1.00  0.00     0.138 A 
HETATM    4  N   UNL     1      -5.164   4.402 -32.577  1.00  0.00    -0.240 N 
HETATM    5  N   UNL     1      -6.153   5.074 -33.186  1.00  0.00    -0.181 NA
HETATM    6  C   UNL     1      -7.082   5.179 -32.229  1.00  0.00     0.160 A 
HETATM    7  C   UNL     1      -6.730   4.528 -31.023  1.00  0.00     0.098 A 
HETATM    8  C   UNL     1      -3.961   3.987 -33.277  1.00  0.00     0.221 C 
HETATM    9  C   UNL     1      -2.899   3.490 -32.272  1.00  0.00     0.066 C 
HETATM   10  H   UNL     1      -4.893   2.933 -29.650  1.00  0.00     0.161 HD
ENDROOT
BRANCH   7  11
HETATM   11  C   UNL     1      -7.444   4.389 -29.766  1.00  0.00     0.275 C 
HETATM   12  N   UNL     1      -8.667   3.733 -29.737  1.00  0.00    -0.263 N 
HETATM   13  H   UNL     1      -8.976   3.582 -28.779  1.00  0.00     0.190 HD
HETATM   14  O   UNL     1      -7.004   4.847 -28.710  1.00  0.00    -0.266 OA
BRANCH  12  15
HETATM   15  N   UNL     1      -8.983   2.679 -30.618  1.00  0.00    -0.274 N 
HETATM   16  H   UNL     1      -8.334   1.898 -30.647  1.00  0.00     0.189 HD
BRANCH  15  17
HETATM   17  C   UNL     1      -9.982   2.802 -31.552  1.00  0.00     0.186 C 
HETATM   18  S   UNL     1     -10.959   4.143 -31.762  1.00  0.00    -0.040 SA
BRANCH  17  19
HETATM   19  N   UNL     1     -10.180   1.743 -32.385  1.00  0.00    -0.360 N 
HETATM   20  H   UNL     1     -10.866   1.911 -33.111  1.00  0.00     0.162 HD
BRANCH  19  21
HETATM   21  C   UNL     1      -9.420   0.511 -32.478  1.00  0.00     0.187 C 
BRANCH  21  22
HETATM   22  C   UNL     1      -8.370   0.649 -33.511  1.00  0.00     0.070 A 
HETATM   23  O   UNL     1      -7.533   1.722 -33.389  1.00  0.00    -0.325 OA
HETATM   24  C   UNL     1      -6.657   1.657 -34.425  1.00  0.00     0.142 A 
HETATM   25  C   UNL     1      -6.915   0.557 -35.208  1.00  0.00     0.027 A 
HETATM   26  C   UNL     1      -8.024  -0.096 -34.620  1.00  0.00     0.036 A 
ENDBRANCH  21  22
ENDBRANCH  19  21
ENDBRANCH  17  19
ENDBRANCH  15  17
ENDBRANCH  12  15
ENDBRANCH   7  11
BRANCH   1  27
HETATM   27  C   UNL     1      -3.959   1.206 -31.772  1.00  0.00    -0.035 A 
HETATM   28  C   UNL     1      -3.296   0.566 -32.832  1.00  0.00     0.012 A 
HETATM   29  C   UNL     1      -3.723  -0.678 -33.304  1.00  0.00     0.037 A 
HETATM   30  C   UNL     1      -4.823  -1.318 -32.736  1.00  0.00     0.068 A 
HETATM   31  C   UNL     1      -5.519  -0.682 -31.713  1.00  0.00     0.037 A 
HETATM   32  C   UNL     1      -5.097   0.570 -31.243  1.00  0.00     0.012 A 
BRANCH  30  33
HETATM   33  O   UNL     1      -5.122  -2.537 -33.276  1.00  0.00    -0.356 OA
HETATM   34  C   UNL     1      -4.968  -2.664 -34.684  1.00  0.00     0.210 C 
ENDBRANCH  30  33
ENDBRANCH   1  27
BRANCH   8  35
HETATM   35  C   UNL     1      -3.378   5.104 -34.114  1.00  0.00     0.409 C 
HETATM   36  F   UNL     1      -4.010   5.254 -35.299  1.00  0.00    -0.169 F 
HETATM   37  F   UNL     1      -3.520   6.286 -33.452  1.00  0.00    -0.169 F 
HETATM   38  F   UNL     1      -2.056   4.972 -34.351  1.00  0.00    -0.169 F 
ENDBRANCH   8  35
TORSDOF 9
ENDMDL
MODEL 4
REMARK VINA RESULT:      -8.5      4.415      7.725
REMARK  9 active torsions:
REMARK  status: ('A' for Active; 'I' for Inactive)
REMARK    1  A    between atoms: O_2  and  C_3 
REMARK    2  A    between atoms: C_6  and  C_7 
REMARK    3  A    between atoms: C_13  and  C_14 
REMARK       I    between atoms: C_14  and  N_15 
REMARK    4  A    between atoms: N_15  and  N_16 
REMARK    5  A    between atoms: N_16  and  C_17 
REMARK    6  A    between atoms: C_17  and  N_18 
REMARK    7  A    between atoms: N_18  and  C_19 
REMARK    8  A    between atoms: C_19  and  C_20 
REMARK    9  A    between atoms: C_27  and  C_28 
ROOT
HETATM    1  C   UNL     1      -5.463   0.773 -31.255  1.00  0.00     0.118 C 
HETATM    2  N   UNL     1      -6.710   1.506 -31.045  1.00  0.00    -0.365 N 
HETATM    3  C   UNL     1      -7.048   2.538 -31.860  1.00  0.00     0.138 A 
HETATM    4  N   UNL     1      -6.102   3.149 -32.644  1.00  0.00    -0.240 N 
HETATM    5  N   UNL     1      -6.605   4.108 -33.436  1.00  0.00    -0.181 NA
HETATM    6  C   UNL     1      -7.897   4.138 -33.092  1.00  0.00     0.160 A 
HETATM    7  C   UNL     1      -8.251   3.166 -32.128  1.00  0.00     0.098 A 
HETATM    8  C   UNL     1      -4.719   2.713 -32.732  1.00  0.00     0.221 C 
HETATM    9  C   UNL     1      -4.362   1.814 -31.529  1.00  0.00     0.066 C 
HETATM   10  H   UNL     1      -7.452   0.995 -30.561  1.00  0.00     0.161 HD
ENDROOT
BRANCH   7  11
HETATM   11  C   UNL     1      -9.525   2.854 -31.505  1.00  0.00     0.275 C 
HETATM   12  N   UNL     1     -10.644   2.634 -32.296  1.00  0.00    -0.263 N 
HETATM   13  H   UNL     1     -11.421   2.284 -31.740  1.00  0.00     0.190 HD
HETATM   14  O   UNL     1      -9.656   2.785 -30.281  1.00  0.00    -0.266 OA
BRANCH  12  15
HETATM   15  N   UNL     1     -10.561   2.074 -33.588  1.00  0.00    -0.274 N 
HETATM   16  H   UNL     1      -9.817   1.400 -33.747  1.00  0.00     0.189 HD
BRANCH  15  17
HETATM   17  C   UNL     1     -11.292   2.578 -34.635  1.00  0.00     0.186 C 
HETATM   18  S   UNL     1     -11.019   4.041 -35.399  1.00  0.00    -0.040 SA
BRANCH  17  19
HETATM   19  N   UNL     1     -12.318   1.810 -35.096  1.00  0.00    -0.360 N 
HETATM   20  H   UNL     1     -12.471   1.882 -36.095  1.00  0.00     0.162 HD
BRANCH  19  21
HETATM   21  C   UNL     1     -13.074   0.792 -34.391  1.00  0.00     0.187 C 
BRANCH  21  22
HETATM   22  C   UNL     1     -14.085   1.433 -33.522  1.00  0.00     0.070 A 
HETATM   23  O   UNL     1     -13.614   2.284 -32.564  1.00  0.00    -0.325 OA
HETATM   24  C   UNL     1     -14.695   2.755 -31.890  1.00  0.00     0.142 A 
HETATM   25  C   UNL     1     -15.854   2.223 -32.404  1.00  0.00     0.027 A 
HETATM   26  C   UNL     1     -15.462   1.366 -33.459  1.00  0.00     0.036 A 
ENDBRANCH  21  22
ENDBRANCH  19  21
ENDBRANCH  17  19
ENDBRANCH  15  17
ENDBRANCH  12  15
ENDBRANCH   7  11
BRANCH   1  27
HETATM   27  C   UNL     1      -5.570  -0.306 -32.329  1.00  0.00    -0.035 A 
HETATM   28  C   UNL     1      -6.782  -0.637 -32.955  1.00  0.00     0.012 A 
HETATM   29  C   UNL     1      -6.836  -1.621 -33.946  1.00  0.00     0.037 A 
HETATM   30  C   UNL     1      -5.687  -2.304 -34.338  1.00  0.00     0.068 A 
HETATM   31  C   UNL     1      -4.484  -2.021 -33.699  1.00  0.00     0.037 A 
HETATM   32  C   UNL     1      -4.428  -1.039 -32.700  1.00  0.00     0.012 A 
BRANCH  30  33
HETATM   33  O   UNL     1      -5.873  -3.225 -35.330  1.00  0.00    -0.356 OA
HETATM   34  C   UNL     1      -6.446  -4.468 -34.944  1.00  0.00     0.210 C 
ENDBRANCH  30  33
ENDBRANCH   1  27
BRANCH   8  35
HETATM   35  C   UNL     1      -3.760   3.881 -32.790  1.00  0.00     0.409 C 
HETATM   36  F   UNL     1      -2.480   3.519 -32.546  1.00  0.00    -0.169 F 
HETATM   37  F   UNL     1      -3.774   4.416 -34.043  1.00  0.00    -0.169 F 
HETATM   38  F   UNL     1      -4.082   4.891 -31.955  1.00  0.00    -0.169 F 
ENDBRANCH   8  35
TORSDOF 9
ENDMDL
MODEL 5
REMARK VINA RESULT:      -8.5      4.011      7.006
REMARK  9 active torsions:
REMARK  status: ('A' for Active; 'I' for Inactive)
REMARK    1  A    between atoms: O_2  and  C_3 
REMARK    2  A    between atoms: C_6  and  C_7 
REMARK    3  A    between atoms: C_13  and  C_14 
REMARK       I    between atoms: C_14  and  N_15 
REMARK    4  A    between atoms: N_15  and  N_16 
REMARK    5  A    between atoms: N_16  and  C_17 
REMARK    6  A    between atoms: C_17  and  N_18 
REMARK    7  A    between atoms: N_18  and  C_19 
REMARK    8  A    between atoms: C_19  and  C_20 
REMARK    9  A    between atoms: C_27  and  C_28 
ROOT
HETATM    1  C   UNL     1      -4.532   2.516 -31.213  1.00  0.00     0.118 C 
HETATM    2  N   UNL     1      -5.867   3.001 -30.872  1.00  0.00    -0.365 N 
HETATM    3  C   UNL     1      -6.661   3.559 -31.822  1.00  0.00     0.138 A 
HETATM    4  N   UNL     1      -6.127   4.012 -33.001  1.00  0.00    -0.240 N 
HETATM    5  N   UNL     1      -7.047   4.478 -33.858  1.00  0.00    -0.181 NA
HETATM    6  C   UNL     1      -8.187   4.369 -33.168  1.00  0.00     0.160 A 
HETATM    7  C   UNL     1      -8.024   3.779 -31.893  1.00  0.00     0.098 A 
HETATM    8  C   UNL     1      -4.727   3.869 -33.364  1.00  0.00     0.221 C 
HETATM    9  C   UNL     1      -3.874   3.580 -32.111  1.00  0.00     0.066 C 
HETATM   10  H   UNL     1      -6.304   2.568 -30.054  1.00  0.00     0.161 HD
ENDROOT
BRANCH   7  11
HETATM   11  C   UNL     1      -8.987   3.469 -30.851  1.00  0.00     0.275 C 
HETATM   12  N   UNL     1      -9.716   2.290 -30.914  1.00  0.00    -0.263 N 
HETATM   13  H   UNL     1     -10.236   2.136 -30.053  1.00  0.00     0.190 HD
HETATM   14  O   UNL     1      -9.192   4.229 -29.902  1.00  0.00    -0.266 OA
BRANCH  12  15
HETATM   15  N   UNL     1      -9.205   1.113 -31.498  1.00  0.00    -0.274 N 
HETATM   16  H   UNL     1      -8.411   0.681 -31.034  1.00  0.00     0.189 HD
BRANCH  15  17
HETATM   17  C   UNL     1      -9.603   0.701 -32.745  1.00  0.00     0.186 C 
HETATM   18  S   UNL     1      -8.620   0.588 -34.094  1.00  0.00    -0.040 SA
BRANCH  17  19
HETATM   19  N   UNL     1     -10.909   0.341 -32.887  1.00  0.00    -0.360 N 
HETATM   20  H   UNL     1     -11.244  -0.291 -32.169  1.00  0.00     0.162 HD
BRANCH  19  21
HETATM   21  C   UNL     1     -11.901   0.879 -33.798  1.00  0.00     0.187 C 
BRANCH  21  22
HETATM   22  C   UNL     1     -11.842   2.357 -33.785  1.00  0.00     0.070 A 
HETATM   23  O   UNL     1     -12.212   2.971 -32.623  1.00  0.00    -0.325 OA
HETATM   24  C   UNL     1     -12.084   4.309 -32.827  1.00  0.00     0.142 A 
HETATM   25  C   UNL     1     -11.633   4.562 -34.101  1.00  0.00     0.027 A 
HETATM   26  C   UNL     1     -11.477   3.301 -34.723  1.00  0.00     0.036 A 
ENDBRANCH  21  22
ENDBRANCH  19  21
ENDBRANCH  17  19
ENDBRANCH  15  17
ENDBRANCH  12  15
ENDBRANCH   7  11
BRANCH   1  27
HETATM   27  C   UNL     1      -4.534   1.116 -31.820  1.00  0.00    -0.035 A 
HETATM   28  C   UNL     1      -5.638   0.252 -31.734  1.00  0.00     0.012 A 
HETATM   29  C   UNL     1      -5.607  -1.018 -32.316  1.00  0.00     0.037 A 
HETATM   30  C   UNL     1      -4.477  -1.463 -32.998  1.00  0.00     0.068 A 
HETATM   31  C   UNL     1      -3.358  -0.639 -33.059  1.00  0.00     0.037 A 
HETATM   32  C   UNL     1      -3.383   0.632 -32.468  1.00  0.00     0.012 A 
BRANCH  30  33
HETATM   33  O   UNL     1      -4.586  -2.714 -33.539  1.00  0.00    -0.356 OA
HETATM   34  C   UNL     1      -5.294  -2.816 -34.768  1.00  0.00     0.210 C 
ENDBRANCH  30  33
ENDBRANCH   1  27
BRANCH   8  35
HETATM   35  C   UNL     1      -4.194   5.099 -34.063  1.00  0.00     0.409 C 
HETATM   36  F   UNL     1      -4.664   6.249 -33.529  1.00  0.00    -0.169 F 
HETATM   37  F   UNL     1      -2.839   5.143 -33.931  1.00  0.00    -0.169 F 
HETATM   38  F   UNL     1      -4.435   5.117 -35.391  1.00  0.00    -0.169 F 
ENDBRANCH   8  35
TORSDOF 9
ENDMDL
MODEL 6
REMARK VINA RESULT:      -8.3      1.926      3.184
REMARK  9 active torsions:
REMARK  status: ('A' for Active; 'I' for Inactive)
REMARK    1  A    between atoms: O_2  and  C_3 
REMARK    2  A    between atoms: C_6  and  C_7 
REMARK    3  A    between atoms: C_13  and  C_14 
REMARK       I    between atoms: C_14  and  N_15 
REMARK    4  A    between atoms: N_15  and  N_16 
REMARK    5  A    between atoms: N_16  and  C_17 
REMARK    6  A    between atoms: C_17  and  N_18 
REMARK    7  A    between atoms: N_18  and  C_19 
REMARK    8  A    between atoms: C_19  and  C_20 
REMARK    9  A    between atoms: C_27  and  C_28 
ROOT
HETATM    1  C   UNL     1      -6.240   0.115 -34.503  1.00  0.00     0.118 C 
HETATM    2  N   UNL     1      -5.425   0.885 -33.567  1.00  0.00    -0.365 N 
HETATM    3  C   UNL     1      -5.751   0.939 -32.250  1.00  0.00     0.138 A 
HETATM    4  N   UNL     1      -7.010   0.598 -31.828  1.00  0.00    -0.240 N 
HETATM    5  N   UNL     1      -7.156   0.643 -30.495  1.00  0.00    -0.181 NA
HETATM    6  C   UNL     1      -5.966   1.085 -30.075  1.00  0.00     0.160 A 
HETATM    7  C   UNL     1      -5.028   1.269 -31.118  1.00  0.00     0.098 A 
HETATM    8  C   UNL     1      -8.049   0.090 -32.707  1.00  0.00     0.221 C 
HETATM    9  C   UNL     1      -7.715   0.417 -34.178  1.00  0.00     0.066 C 
HETATM   10  H   UNL     1      -4.449   1.032 -33.841  1.00  0.00     0.161 HD
ENDROOT
BRANCH   7  11
HETATM   11  C   UNL     1      -3.645   1.712 -31.096  1.00  0.00     0.275 C 
HETATM   12  N   UNL     1      -3.354   3.068 -31.156  1.00  0.00    -0.263 N 
HETATM   13  H   UNL     1      -2.366   3.236 -30.983  1.00  0.00     0.190 HD
HETATM   14  O   UNL     1      -2.705   0.918 -31.036  1.00  0.00    -0.266 OA
BRANCH  12  15
HETATM   15  N   UNL     1      -4.210   4.051 -30.617  1.00  0.00    -0.274 N 
HETATM   16  H   UNL     1      -4.868   3.744 -29.907  1.00  0.00     0.189 HD
BRANCH  15  17
HETATM   17  C   UNL     1      -4.311   5.298 -31.182  1.00  0.00     0.186 C 
HETATM   18  S   UNL     1      -4.147   6.752 -30.369  1.00  0.00    -0.040 SA
BRANCH  17  19
HETATM   19  N   UNL     1      -4.552   5.351 -32.521  1.00  0.00    -0.360 N 
HETATM   20  H   UNL     1      -4.081   6.112 -32.996  1.00  0.00     0.162 HD
BRANCH  19  21
HETATM   21  C   UNL     1      -5.223   4.375 -33.358  1.00  0.00     0.187 C 
BRANCH  21  22
HETATM   22  C   UNL     1      -6.688   4.514 -33.210  1.00  0.00     0.070 A 
HETATM   23  O   UNL     1      -7.345   5.152 -34.223  1.00  0.00    -0.325 OA
HETATM   24  C   UNL     1      -8.662   5.170 -33.888  1.00  0.00     0.142 A 
HETATM   25  C   UNL     1      -8.861   4.548 -32.677  1.00  0.00     0.027 A 
HETATM   26  C   UNL     1      -7.585   4.125 -32.236  1.00  0.00     0.036 A 
ENDBRANCH  21  22
ENDBRANCH  19  21
ENDBRANCH  17  19
ENDBRANCH  15  17
ENDBRANCH  12  15
ENDBRANCH   7  11
BRANCH   1  27
HETATM   27  C   UNL     1      -5.906  -1.374 -34.513  1.00  0.00    -0.035 A 
HETATM   28  C   UNL     1      -4.633  -1.869 -34.188  1.00  0.00     0.012 A 
HETATM   29  C   UNL     1      -4.369  -3.241 -34.193  1.00  0.00     0.037 A 
HETATM   30  C   UNL     1      -5.364  -4.158 -34.526  1.00  0.00     0.068 A 
HETATM   31  C   UNL     1      -6.621  -3.686 -34.893  1.00  0.00     0.037 A 
HETATM   32  C   UNL     1      -6.885  -2.309 -34.895  1.00  0.00     0.012 A 
BRANCH  30  33
HETATM   33  O   UNL     1      -4.982  -5.469 -34.472  1.00  0.00    -0.356 OA
HETATM   34  C   UNL     1      -3.801  -5.757 -33.733  1.00  0.00     0.210 C 
ENDBRANCH  30  33
ENDBRANCH   1  27
BRANCH   8  35
HETATM   35  C   UNL     1      -9.409   0.655 -32.362  1.00  0.00     0.409 C 
HETATM   36  F   UNL     1      -9.911   1.444 -33.339  1.00  0.00    -0.169 F 
HETATM   37  F   UNL     1     -10.297  -0.367 -32.204  1.00  0.00    -0.169 F 
HETATM   38  F   UNL     1      -9.433   1.345 -31.203  1.00  0.00    -0.169 F 
ENDBRANCH   8  35
TORSDOF 9
ENDMDL
MODEL 7
REMARK VINA RESULT:      -8.3      1.472      1.707
REMARK  9 active torsions:
REMARK  status: ('A' for Active; 'I' for Inactive)
REMARK    1  A    between atoms: O_2  and  C_3 
REMARK    2  A    between atoms: C_6  and  C_7 
REMARK    3  A    between atoms: C_13  and  C_14 
REMARK       I    between atoms: C_14  and  N_15 
REMARK    4  A    between atoms: N_15  and  N_16 
REMARK    5  A    between atoms: N_16  and  C_17 
REMARK    6  A    between atoms: C_17  and  N_18 
REMARK    7  A    between atoms: N_18  and  C_19 
REMARK    8  A    between atoms: C_19  and  C_20 
REMARK    9  A    between atoms: C_27  and  C_28 
ROOT
HETATM    1  C   UNL     1      -6.367   0.149 -34.532  1.00  0.00     0.118 C 
HETATM    2  N   UNL     1      -5.507   0.966 -33.680  1.00  0.00    -0.365 N 
HETATM    3  C   UNL     1      -5.738   1.050 -32.344  1.00  0.00     0.138 A 
HETATM    4  N   UNL     1      -6.955   0.691 -31.823  1.00  0.00    -0.240 N 
HETATM    5  N   UNL     1      -7.005   0.773 -30.484  1.00  0.00    -0.181 NA
HETATM    6  C   UNL     1      -5.800   1.256 -30.165  1.00  0.00     0.160 A 
HETATM    7  C   UNL     1      -4.945   1.432 -31.278  1.00  0.00     0.098 A 
HETATM    8  C   UNL     1      -8.041   0.132 -32.609  1.00  0.00     0.221 C 
HETATM    9  C   UNL     1      -7.822   0.424 -34.109  1.00  0.00     0.066 C 
HETATM   10  H   UNL     1      -4.558   1.128 -34.028  1.00  0.00     0.161 HD
ENDROOT
BRANCH   7  11
HETATM   11  C   UNL     1      -3.577   1.908 -31.369  1.00  0.00     0.275 C 
HETATM   12  N   UNL     1      -3.322   3.187 -31.845  1.00  0.00    -0.263 N 
HETATM   13  H   UNL     1      -2.344   3.437 -31.715  1.00  0.00     0.190 HD
HETATM   14  O   UNL     1      -2.616   1.208 -31.044  1.00  0.00    -0.266 OA
BRANCH  12  15
HETATM   15  N   UNL     1      -4.220   4.259 -31.660  1.00  0.00    -0.274 N 
HETATM   16  H   UNL     1      -5.143   4.157 -32.071  1.00  0.00     0.189 HD
BRANCH  15  17
HETATM   17  C   UNL     1      -3.802   5.464 -31.155  1.00  0.00     0.186 C 
HETATM   18  S   UNL     1      -4.637   6.910 -31.265  1.00  0.00    -0.040 SA
BRANCH  17  19
HETATM   19  N   UNL     1      -2.610   5.476 -30.498  1.00  0.00    -0.360 N 
HETATM   20  H   UNL     1      -2.606   4.939 -29.638  1.00  0.00     0.162 HD
BRANCH  19  21
HETATM   21  C   UNL     1      -1.331   5.988 -30.952  1.00  0.00     0.187 C 
BRANCH  21  22
HETATM   22  C   UNL     1      -0.689   6.762 -29.867  1.00  0.00     0.070 A 
HETATM   23  O   UNL     1      -1.482   7.099 -28.807  1.00  0.00    -0.325 OA
HETATM   24  C   UNL     1      -0.703   7.796 -27.939  1.00  0.00     0.142 A 
HETATM   25  C   UNL     1       0.579   7.908 -28.423  1.00  0.00     0.027 A 
HETATM   26  C   UNL     1       0.590   7.242 -29.671  1.00  0.00     0.036 A 
ENDBRANCH  21  22
ENDBRANCH  19  21
ENDBRANCH  17  19
ENDBRANCH  15  17
ENDBRANCH  12  15
ENDBRANCH   7  11
BRANCH   1  27
HETATM   27  C   UNL     1      -5.994  -1.331 -34.525  1.00  0.00    -0.035 A 
HETATM   28  C   UNL     1      -4.707  -1.789 -34.203  1.00  0.00     0.012 A 
HETATM   29  C   UNL     1      -4.408  -3.155 -34.193  1.00  0.00     0.037 A 
HETATM   30  C   UNL     1      -5.382  -4.100 -34.506  1.00  0.00     0.068 A 
HETATM   31  C   UNL     1      -6.653  -3.665 -34.870  1.00  0.00     0.037 A 
HETATM   32  C   UNL     1      -6.952  -2.296 -34.888  1.00  0.00     0.012 A 
BRANCH  30  33
HETATM   33  O   UNL     1      -4.966  -5.400 -34.438  1.00  0.00    -0.356 OA
HETATM   34  C   UNL     1      -3.768  -5.647 -33.712  1.00  0.00     0.210 C 
ENDBRANCH  30  33
ENDBRANCH   1  27
BRANCH   8  35
HETATM   35  C   UNL     1      -9.387   0.674 -32.183  1.00  0.00     0.409 C 
HETATM   36  F   UNL     1     -10.384   0.320 -33.025  1.00  0.00    -0.169 F 
HETATM   37  F   UNL     1      -9.716   0.160 -30.964  1.00  0.00    -0.169 F 
HETATM   38  F   UNL     1      -9.411   2.015 -32.034  1.00  0.00    -0.169 F 
ENDBRANCH   8  35
TORSDOF 9
ENDMDL
MODEL 8
REMARK VINA RESULT:      -8.3      4.212      7.277
REMARK  9 active torsions:
REMARK  status: ('A' for Active; 'I' for Inactive)
REMARK    1  A    between atoms: O_2  and  C_3 
REMARK    2  A    between atoms: C_6  and  C_7 
REMARK    3  A    between atoms: C_13  and  C_14 
REMARK       I    between atoms: C_14  and  N_15 
REMARK    4  A    between atoms: N_15  and  N_16 
REMARK    5  A    between atoms: N_16  and  C_17 
REMARK    6  A    between atoms: C_17  and  N_18 
REMARK    7  A    between atoms: N_18  and  C_19 
REMARK    8  A    between atoms: C_19  and  C_20 
REMARK    9  A    between atoms: C_27  and  C_28 
ROOT
HETATM    1  C   UNL     1      -5.634   0.369 -30.996  1.00  0.00     0.118 C 
HETATM    2  N   UNL     1      -6.933   0.947 -31.332  1.00  0.00    -0.365 N 
HETATM    3  C   UNL     1      -7.030   1.932 -32.261  1.00  0.00     0.138 A 
HETATM    4  N   UNL     1      -5.924   2.654 -32.632  1.00  0.00    -0.240 N 
HETATM    5  N   UNL     1      -6.172   3.547 -33.602  1.00  0.00    -0.181 NA
HETATM    6  C   UNL     1      -7.488   3.422 -33.801  1.00  0.00     0.160 A 
HETATM    7  C   UNL     1      -8.087   2.412 -33.011  1.00  0.00     0.098 A 
HETATM    8  C   UNL     1      -4.582   2.387 -32.145  1.00  0.00     0.221 C 
HETATM    9  C   UNL     1      -4.637   1.535 -30.859  1.00  0.00     0.066 C 
HETATM   10  H   UNL     1      -7.745   0.349 -31.159  1.00  0.00     0.161 HD
ENDROOT
BRANCH   7  11
HETATM   11  C   UNL     1      -9.461   1.948 -32.931  1.00  0.00     0.275 C 
HETATM   12  N   UNL     1     -10.088   1.860 -31.696  1.00  0.00    -0.263 N 
HETATM   13  H   UNL     1     -11.081   1.666 -31.805  1.00  0.00     0.190 HD
HETATM   14  O   UNL     1     -10.099   1.615 -33.932  1.00  0.00    -0.266 OA
BRANCH  12  15
HETATM   15  N   UNL     1      -9.784   2.728 -30.627  1.00  0.00    -0.274 N 
HETATM   16  H   UNL     1      -9.150   2.373 -29.917  1.00  0.00     0.189 HD
BRANCH  15  17
HETATM   17  C   UNL     1     -10.480   3.894 -30.431  1.00  0.00     0.186 C 
HETATM   18  S   UNL     1      -9.845   5.438 -30.535  1.00  0.00    -0.040 SA
BRANCH  17  19
HETATM   19  N   UNL     1     -11.806   3.779 -30.141  1.00  0.00    -0.360 N 
HETATM   20  H   UNL     1     -11.997   3.318 -29.259  1.00  0.00     0.162 HD
BRANCH  19  21
HETATM   21  C   UNL     1     -12.937   4.380 -30.821  1.00  0.00     0.187 C 
BRANCH  21  22
HETATM   22  C   UNL     1     -13.579   3.380 -31.702  1.00  0.00     0.070 A 
HETATM   23  O   UNL     1     -12.847   2.951 -32.772  1.00  0.00    -0.325 OA
HETATM   24  C   UNL     1     -13.614   2.048 -33.438  1.00  0.00     0.142 A 
HETATM   25  C   UNL     1     -14.826   1.887 -32.807  1.00  0.00     0.027 A 
HETATM   26  C   UNL     1     -14.806   2.748 -31.685  1.00  0.00     0.036 A 
ENDBRANCH  21  22
ENDBRANCH  19  21
ENDBRANCH  17  19
ENDBRANCH  15  17
ENDBRANCH  12  15
ENDBRANCH   7  11
BRANCH   1  27
HETATM   27  C   UNL     1      -5.183  -0.713 -31.974  1.00  0.00    -0.035 A 
HETATM   28  C   UNL     1      -3.967  -1.402 -31.838  1.00  0.00     0.012 A 
HETATM   29  C   UNL     1      -3.596  -2.397 -32.745  1.00  0.00     0.037 A 
HETATM   30  C   UNL     1      -4.423  -2.732 -33.815  1.00  0.00     0.068 A 
HETATM   31  C   UNL     1      -5.613  -2.032 -33.992  1.00  0.00     0.037 A 
HETATM   32  C   UNL     1      -5.983  -1.028 -33.087  1.00  0.00     0.012 A 
BRANCH  30  33
HETATM   33  O   UNL     1      -3.954  -3.736 -34.615  1.00  0.00    -0.356 OA
HETATM   34  C   UNL     1      -3.397  -4.866 -33.956  1.00  0.00     0.210 C 
ENDBRANCH  30  33
ENDBRANCH   1  27
BRANCH   8  35
HETATM   35  C   UNL     1      -3.815   3.661 -31.871  1.00  0.00     0.409 C 
HETATM   36  F   UNL     1      -4.528   4.558 -31.154  1.00  0.00    -0.169 F 
HETATM   37  F   UNL     1      -2.708   3.373 -31.130  1.00  0.00    -0.169 F 
HETATM   38  F   UNL     1      -3.361   4.273 -32.985  1.00  0.00    -0.169 F 
ENDBRANCH   8  35
TORSDOF 9
ENDMDL
MODEL 9
REMARK VINA RESULT:      -8.2      3.814      5.433
REMARK  9 active torsions:
REMARK  status: ('A' for Active; 'I' for Inactive)
REMARK    1  A    between atoms: O_2  and  C_3 
REMARK    2  A    between atoms: C_6  and  C_7 
REMARK    3  A    between atoms: C_13  and  C_14 
REMARK       I    between atoms: C_14  and  N_15 
REMARK    4  A    between atoms: N_15  and  N_16 
REMARK    5  A    between atoms: N_16  and  C_17 
REMARK    6  A    between atoms: C_17  and  N_18 
REMARK    7  A    between atoms: N_18  and  C_19 
REMARK    8  A    between atoms: C_19  and  C_20 
REMARK    9  A    between atoms: C_27  and  C_28 
ROOT
HETATM    1  C   UNL     1      -3.261   3.034 -31.610  1.00  0.00     0.118 C 
HETATM    2  N   UNL     1      -3.956   4.056 -30.831  1.00  0.00    -0.365 N 
HETATM    3  C   UNL     1      -4.731   4.985 -31.447  1.00  0.00     0.138 A 
HETATM    4  N   UNL     1      -4.599   5.224 -32.791  1.00  0.00    -0.240 N 
HETATM    5  N   UNL     1      -5.476   6.125 -33.260  1.00  0.00    -0.181 NA
HETATM    6  C   UNL     1      -6.137   6.505 -32.162  1.00  0.00     0.160 A 
HETATM    7  C   UNL     1      -5.739   5.816 -30.993  1.00  0.00     0.098 A 
HETATM    8  C   UNL     1      -3.710   4.477 -33.664  1.00  0.00     0.221 C 
HETATM    9  C   UNL     1      -2.641   3.736 -32.833  1.00  0.00     0.066 C 
HETATM   10  H   UNL     1      -4.154   3.816 -29.856  1.00  0.00     0.161 HD
ENDROOT
BRANCH   7  11
HETATM   11  C   UNL     1      -6.202   5.911 -29.620  1.00  0.00     0.275 C 
HETATM   12  N   UNL     1      -5.573   6.779 -28.738  1.00  0.00    -0.263 N 
HETATM   13  H   UNL     1      -6.090   6.851 -27.865  1.00  0.00     0.190 HD
HETATM   14  O   UNL     1      -7.141   5.234 -29.197  1.00  0.00    -0.266 OA
BRANCH  12  15
HETATM   15  N   UNL     1      -4.979   7.988 -29.158  1.00  0.00    -0.274 N 
HETATM   16  H   UNL     1      -5.494   8.537 -29.839  1.00  0.00     0.189 HD
BRANCH  15  17
HETATM   17  C   UNL     1      -3.678   8.293 -28.844  1.00  0.00     0.186 C 
HETATM   18  S   UNL     1      -3.022   8.297 -27.304  1.00  0.00    -0.040 SA
BRANCH  17  19
HETATM   19  N   UNL     1      -2.851   8.605 -29.879  1.00  0.00    -0.360 N 
HETATM   20  H   UNL     1      -2.167   9.319 -29.661  1.00  0.00     0.162 HD
BRANCH  19  21
HETATM   21  C   UNL     1      -2.708   7.933 -31.157  1.00  0.00     0.187 C 
BRANCH  21  22
HETATM   22  C   UNL     1      -1.541   7.025 -31.115  1.00  0.00     0.070 A 
HETATM   23  O   UNL     1      -1.590   6.013 -30.199  1.00  0.00    -0.325 OA
HETATM   24  C   UNL     1      -0.435   5.309 -30.329  1.00  0.00     0.142 A 
HETATM   25  C   UNL     1       0.352   5.851 -31.317  1.00  0.00     0.027 A 
HETATM   26  C   UNL     1      -0.360   6.962 -31.826  1.00  0.00     0.036 A 
ENDBRANCH  21  22
ENDBRANCH  19  21
ENDBRANCH  17  19
ENDBRANCH  15  17
ENDBRANCH  12  15
ENDBRANCH   7  11
BRANCH   1  27
HETATM   27  C   UNL     1      -4.145   1.843 -31.969  1.00  0.00    -0.035 A 
HETATM   28  C   UNL     1      -5.518   1.799 -31.677  1.00  0.00     0.012 A 
HETATM   29  C   UNL     1      -6.297   0.696 -32.035  1.00  0.00     0.037 A 
HETATM   30  C   UNL     1      -5.731  -0.395 -32.691  1.00  0.00     0.068 A 
HETATM   31  C   UNL     1      -4.364  -0.391 -32.951  1.00  0.00     0.037 A 
HETATM   32  C   UNL     1      -3.579   0.712 -32.585  1.00  0.00     0.012 A 
BRANCH  30  33
HETATM   33  O   UNL     1      -6.606  -1.397 -33.003  1.00  0.00    -0.356 OA
HETATM   34  C   UNL     1      -6.559  -1.889 -34.337  1.00  0.00     0.210 C 
ENDBRANCH  30  33
ENDBRANCH   1  27
BRANCH   8  35
HETATM   35  C   UNL     1      -3.030   5.369 -34.678  1.00  0.00     0.409 C 
HETATM   36  F   UNL     1      -2.776   6.607 -34.199  1.00  0.00    -0.169 F 
HETATM   37  F   UNL     1      -1.823   4.833 -35.014  1.00  0.00    -0.169 F 
HETATM   38  F   UNL     1      -3.712   5.492 -35.836  1.00  0.00    -0.169 F 
ENDBRANCH   8  35
TORSDOF 9
ENDMDL
MODEL 10
REMARK VINA RESULT:      -8.0      1.925      2.430
REMARK  9 active torsions:
REMARK  status: ('A' for Active; 'I' for Inactive)
REMARK    1  A    between atoms: O_2  and  C_3 
REMARK    2  A    between atoms: C_6  and  C_7 
REMARK    3  A    between atoms: C_13  and  C_14 
REMARK       I    between atoms: C_14  and  N_15 
REMARK    4  A    between atoms: N_15  and  N_16 
REMARK    5  A    between atoms: N_16  and  C_17 
REMARK    6  A    between atoms: C_17  and  N_18 
REMARK    7  A    between atoms: N_18  and  C_19 
REMARK    8  A    between atoms: C_19  and  C_20 
REMARK    9  A    between atoms: C_27  and  C_28 
ROOT
HETATM    1  C   UNL     1      -6.816   0.393 -35.108  1.00  0.00     0.118 C 
HETATM    2  N   UNL     1      -6.329   1.690 -34.645  1.00  0.00    -0.365 N 
HETATM    3  C   UNL     1      -6.651   2.147 -33.408  1.00  0.00     0.138 A 
HETATM    4  N   UNL     1      -7.705   1.606 -32.716  1.00  0.00    -0.240 N 
HETATM    5  N   UNL     1      -7.855   2.121 -31.486  1.00  0.00    -0.181 NA
HETATM    6  C   UNL     1      -6.902   3.057 -31.431  1.00  0.00     0.160 A 
HETATM    7  C   UNL     1      -6.094   3.113 -32.591  1.00  0.00     0.098 A 
HETATM    8  C   UNL     1      -8.493   0.482 -33.190  1.00  0.00     0.221 C 
HETATM    9  C   UNL     1      -8.300   0.294 -34.710  1.00  0.00     0.066 C 
HETATM   10  H   UNL     1      -5.471   2.030 -35.089  1.00  0.00     0.161 HD
ENDROOT
BRANCH   7  11
HETATM   11  C   UNL     1      -4.961   3.957 -32.929  1.00  0.00     0.275 C 
HETATM   12  N   UNL     1      -5.176   5.197 -33.515  1.00  0.00    -0.263 N 
HETATM   13  H   UNL     1      -4.313   5.734 -33.559  1.00  0.00     0.190 HD
HETATM   14  O   UNL     1      -3.798   3.605 -32.723  1.00  0.00    -0.266 OA
BRANCH  12  15
HETATM   15  N   UNL     1      -6.324   5.972 -33.250  1.00  0.00    -0.274 N 
HETATM   16  H   UNL     1      -7.031   6.004 -33.979  1.00  0.00     0.189 HD
BRANCH  15  17
HETATM   17  C   UNL     1      -6.382   6.821 -32.173  1.00  0.00     0.186 C 
HETATM   18  S   UNL     1      -7.731   7.678 -31.679  1.00  0.00    -0.040 SA
BRANCH  17  19
HETATM   19  N   UNL     1      -5.244   6.962 -31.438  1.00  0.00    -0.360 N 
HETATM   20  H   UNL     1      -4.957   6.119 -30.955  1.00  0.00     0.162 HD
BRANCH  19  21
HETATM   21  C   UNL     1      -4.317   8.077 -31.412  1.00  0.00     0.187 C 
BRANCH  21  22
HETATM   22  C   UNL     1      -3.055   7.693 -32.081  1.00  0.00     0.070 A 
HETATM   23  O   UNL     1      -3.168   7.142 -33.325  1.00  0.00    -0.325 OA
HETATM   24  C   UNL     1      -1.906   6.867 -33.750  1.00  0.00     0.142 A 
HETATM   25  C   UNL     1      -0.985   7.238 -32.798  1.00  0.00     0.027 A 
HETATM   26  C   UNL     1      -1.725   7.771 -31.717  1.00  0.00     0.036 A 
ENDBRANCH  21  22
ENDBRANCH  19  21
ENDBRANCH  17  19
ENDBRANCH  15  17
ENDBRANCH  12  15
ENDBRANCH   7  11
BRANCH   1  27
HETATM   27  C   UNL     1      -5.969  -0.779 -34.619  1.00  0.00    -0.035 A 
HETATM   28  C   UNL     1      -6.231  -2.110 -34.982  1.00  0.00     0.012 A 
HETATM   29  C   UNL     1      -5.424  -3.155 -34.525  1.00  0.00     0.037 A 
HETATM   30  C   UNL     1      -4.335  -2.904 -33.693  1.00  0.00     0.068 A 
HETATM   31  C   UNL     1      -4.084  -1.598 -33.286  1.00  0.00     0.037 A 
HETATM   32  C   UNL     1      -4.897  -0.549 -33.737  1.00  0.00     0.012 A 
BRANCH  30  33
HETATM   33  O   UNL     1      -3.616  -4.010 -33.336  1.00  0.00    -0.356 OA
HETATM   34  C   UNL     1      -4.131  -5.267 -33.757  1.00  0.00     0.210 C 
ENDBRANCH  30  33
ENDBRANCH   1  27
BRANCH   8  35
HETATM   35  C   UNL     1      -9.965   0.655 -32.888  1.00  0.00     0.409 C 
HETATM   36  F   UNL     1     -10.207   1.676 -32.035  1.00  0.00    -0.169 F 
HETATM   37  F   UNL     1     -10.632   0.951 -34.039  1.00  0.00    -0.169 F 
HETATM   38  F   UNL     1     -10.553  -0.456 -32.398  1.00  0.00    -0.169 F 
ENDBRANCH   8  35
TORSDOF 9
ENDMDL
