MODEL 1
REMARK VINA RESULT:      -9.8      0.000      0.000
REMARK  6 active torsions:
REMARK  status: ('A' for Active; 'I' for Inactive)
REMARK    1  A    between atoms: C_2  and  C_3 
REMARK    2  A    between atoms: C_3  and  N_4 
REMARK    3  A    between atoms: N_8  and  C_10 
REMARK    4  A    between atoms: C_10  and  C_11 
REMARK    5  A    between atoms: C_11  and  C_12 
REMARK    6  A    between atoms: C_20  and  N_21 
ROOT
HETATM    1  N   UNL     1      -7.271   0.235 -32.809  1.00  0.00    -0.064 N 
HETATM    2  H   UNL     1      -7.987  -0.507 -32.744  1.00  0.00     0.280 HD
HETATM    3  C   UNL     1      -8.014   1.560 -32.902  1.00  0.00     0.263 C 
HETATM    4  C   UNL     1      -7.055   2.776 -32.783  1.00  0.00     0.262 C 
HETATM    5  N   UNL     1      -6.128   2.685 -31.565  1.00  0.00    -0.068 N 
HETATM    6  H   UNL     1      -6.691   2.863 -30.716  1.00  0.00     0.280 HD
HETATM    7  C   UNL     1      -5.461   1.309 -31.395  1.00  0.00     0.262 C 
HETATM    8  C   UNL     1      -6.475   0.153 -31.513  1.00  0.00     0.263 C 
ENDROOT
BRANCH   5   9
HETATM    9  C   UNL     1      -5.033   3.766 -31.564  1.00  0.00     0.238 C 
BRANCH   9  10
HETATM   10  C   UNL     1      -4.893   4.426 -32.929  1.00  0.00     0.070 C 
BRANCH  10  11
HETATM   11  C   UNL     1      -3.467   4.239 -33.484  1.00  0.00     0.222 C 
HETATM   12  O   UNL     1      -2.615   4.003 -32.375  1.00  0.00    -0.334 OA
HETATM   13  C   UNL     1      -1.707   4.986 -32.104  1.00  0.00     0.099 A 
HETATM   14  C   UNL     1      -1.468   6.084 -32.935  1.00  0.00     0.068 A 
HETATM   15  C   UNL     1      -0.994   4.839 -30.916  1.00  0.00     0.075 A 
HETATM   16  N   UNL     1      -2.193   6.240 -34.116  1.00  0.00    -0.323 N 
HETATM   17  C   UNL     1      -0.512   7.039 -32.585  1.00  0.00     0.035 A 
HETATM   18  C   UNL     1      -3.190   5.383 -34.469  1.00  0.00     0.251 C 
HETATM   19  H   UNL     1      -2.003   7.016 -34.743  1.00  0.00     0.169 HD
HETATM   20  O   UNL     1      -3.881   5.548 -35.471  1.00  0.00    -0.270 OA
HETATM   21  C   UNL     1       0.197   6.908 -31.385  1.00  0.00     0.038 A 
HETATM   22  C   UNL     1      -0.051   5.809 -30.553  1.00  0.00     0.105 A 
BRANCH  22  23
HETATM   23  N   UNL     1       0.652   5.681 -29.273  1.00  0.00    -0.116 N 
HETATM   24  O   UNL     1       0.660   6.675 -28.531  1.00  0.00    -0.532 OA
HETATM   25  O   UNL     1       1.212   4.607 -29.028  1.00  0.00    -0.532 OA
ENDBRANCH  22  23
ENDBRANCH  10  11
ENDBRANCH   9  10
ENDBRANCH   5   9
BRANCH   1  26
HETATM   26  C   UNL     1      -6.512  -0.104 -34.091  1.00  0.00     0.273 C 
BRANCH  26  27
HETATM   27  C   UNL     1      -6.131  -1.551 -34.216  1.00  0.00    -0.030 A 
HETATM   28  C   UNL     1      -7.054  -2.486 -34.745  1.00  0.00     0.012 A 
HETATM   29  C   UNL     1      -6.711  -3.835 -34.891  1.00  0.00     0.040 A 
HETATM   30  C   UNL     1      -5.451  -4.223 -34.496  1.00  0.00     0.105 A 
HETATM   31  C   UNL     1      -4.552  -3.327 -33.973  1.00  0.00     0.105 A 
HETATM   32  O   UNL     1      -4.951  -5.482 -34.560  1.00  0.00    -0.323 OA
HETATM   33  C   UNL     1      -4.856  -1.990 -33.818  1.00  0.00     0.048 A 
HETATM   34  O   UNL     1      -3.372  -3.911 -33.642  1.00  0.00    -0.323 OA
HETATM   35  C   UNL     1      -3.649  -5.295 -33.962  1.00  0.00     0.352 A 
ENDBRANCH  26  27
ENDBRANCH   1  26
TORSDOF 6
ENDMDL
MODEL 2
REMARK VINA RESULT:      -9.5      1.414      1.669
REMARK  6 active torsions:
REMARK  status: ('A' for Active; 'I' for Inactive)
REMARK    1  A    between atoms: C_2  and  C_3 
REMARK    2  A    between atoms: C_3  and  N_4 
REMARK    3  A    between atoms: N_8  and  C_10 
REMARK    4  A    between atoms: C_10  and  C_11 
REMARK    5  A    between atoms: C_11  and  C_12 
REMARK    6  A    between atoms: C_20  and  N_21 
ROOT
HETATM    1  N   UNL     1      -6.163   0.694 -32.423  1.00  0.00    -0.064 N 
HETATM    2  H   UNL     1      -7.021   0.148 -32.243  1.00  0.00     0.280 HD
HETATM    3  C   UNL     1      -6.545   2.163 -32.322  1.00  0.00     0.263 C 
HETATM    4  C   UNL     1      -5.302   3.094 -32.354  1.00  0.00     0.262 C 
HETATM    5  N   UNL     1      -4.223   2.678 -31.347  1.00  0.00    -0.068 N 
HETATM    6  H   UNL     1      -4.557   2.917 -30.398  1.00  0.00     0.280 HD
HETATM    7  C   UNL     1      -3.912   1.170 -31.358  1.00  0.00     0.262 C 
HETATM    8  C   UNL     1      -5.193   0.312 -31.313  1.00  0.00     0.263 C 
ENDROOT
BRANCH   5   9
HETATM    9  C   UNL     1      -2.907   3.453 -31.525  1.00  0.00     0.238 C 
BRANCH   9  10
HETATM   10  C   UNL     1      -2.713   3.909 -32.965  1.00  0.00     0.070 C 
BRANCH  10  11
HETATM   11  C   UNL     1      -1.603   4.975 -33.057  1.00  0.00     0.222 C 
HETATM   12  O   UNL     1      -0.832   4.878 -31.871  1.00  0.00    -0.334 OA
HETATM   13  C   UNL     1      -0.916   5.941 -31.019  1.00  0.00     0.099 A 
HETATM   14  C   UNL     1      -1.559   7.143 -31.325  1.00  0.00     0.068 A 
HETATM   15  C   UNL     1      -0.304   5.771 -29.779  1.00  0.00     0.075 A 
HETATM   16  N   UNL     1      -2.186   7.307 -32.560  1.00  0.00    -0.323 N 
HETATM   17  C   UNL     1      -1.590   8.184 -30.396  1.00  0.00     0.035 A 
HETATM   18  C   UNL     1      -2.254   6.300 -33.474  1.00  0.00     0.251 C 
HETATM   19  H   UNL     1      -2.625   8.189 -32.806  1.00  0.00     0.169 HD
HETATM   20  O   UNL     1      -2.862   6.410 -34.536  1.00  0.00    -0.270 OA
HETATM   21  C   UNL     1      -0.991   8.017 -29.142  1.00  0.00     0.038 A 
HETATM   22  C   UNL     1      -0.354   6.807 -28.837  1.00  0.00     0.105 A 
BRANCH  22  23
HETATM   23  N   UNL     1       0.239   6.601 -27.512  1.00  0.00    -0.116 N 
HETATM   24  O   UNL     1       1.332   7.144 -27.292  1.00  0.00    -0.532 OA
HETATM   25  O   UNL     1      -0.372   5.881 -26.714  1.00  0.00    -0.532 OA
ENDBRANCH  22  23
ENDBRANCH  10  11
ENDBRANCH   9  10
ENDBRANCH   5   9
BRANCH   1  26
HETATM   26  C   UNL     1      -5.763   0.286 -33.840  1.00  0.00     0.273 C 
BRANCH  26  27
HETATM   27  C   UNL     1      -5.706  -1.198 -34.061  1.00  0.00    -0.030 A 
HETATM   28  C   UNL     1      -6.830  -1.884 -34.582  1.00  0.00     0.012 A 
HETATM   29  C   UNL     1      -6.789  -3.262 -34.815  1.00  0.00     0.040 A 
HETATM   30  C   UNL     1      -5.624  -3.930 -34.515  1.00  0.00     0.105 A 
HETATM   31  C   UNL     1      -4.533  -3.277 -34.000  1.00  0.00     0.105 A 
HETATM   32  O   UNL     1      -5.408  -5.260 -34.671  1.00  0.00    -0.323 OA
HETATM   33  C   UNL     1      -4.537  -1.919 -33.759  1.00  0.00     0.048 A 
HETATM   34  O   UNL     1      -3.490  -4.116 -33.767  1.00  0.00    -0.323 OA
HETATM   35  C   UNL     1      -4.070  -5.389 -34.140  1.00  0.00     0.352 A 
ENDBRANCH  26  27
ENDBRANCH   1  26
TORSDOF 6
ENDMDL
MODEL 3
REMARK VINA RESULT:      -9.5      2.433      3.535
REMARK  6 active torsions:
REMARK  status: ('A' for Active; 'I' for Inactive)
REMARK    1  A    between atoms: C_2  and  C_3 
REMARK    2  A    between atoms: C_3  and  N_4 
REMARK    3  A    between atoms: N_8  and  C_10 
REMARK    4  A    between atoms: C_10  and  C_11 
REMARK    5  A    between atoms: C_11  and  C_12 
REMARK    6  A    between atoms: C_20  and  N_21 
ROOT
HETATM    1  N   UNL     1      -9.090   0.361 -34.059  1.00  0.00    -0.064 N 
HETATM    2  H   UNL     1      -9.580  -0.392 -34.570  1.00  0.00     0.280 HD
HETATM    3  C   UNL     1      -9.963   1.603 -34.159  1.00  0.00     0.263 C 
HETATM    4  C   UNL     1      -9.451   2.751 -33.246  1.00  0.00     0.262 C 
HETATM    5  N   UNL     1      -9.204   2.297 -31.803  1.00  0.00    -0.068 N 
HETATM    6  H   UNL     1     -10.122   2.152 -31.348  1.00  0.00     0.280 HD
HETATM    7  C   UNL     1      -8.422   0.976 -31.693  1.00  0.00     0.262 C 
HETATM    8  C   UNL     1      -8.995  -0.118 -32.617  1.00  0.00     0.263 C 
ENDROOT
BRANCH   5   9
HETATM    9  C   UNL     1      -8.492   3.363 -30.953  1.00  0.00     0.238 C 
BRANCH   9  10
HETATM   10  C   UNL     1      -7.220   3.861 -31.627  1.00  0.00     0.070 C 
BRANCH  10  11
HETATM   11  C   UNL     1      -6.146   4.212 -30.578  1.00  0.00     0.222 C 
HETATM   12  O   UNL     1      -5.572   5.449 -30.966  1.00  0.00    -0.334 OA
HETATM   13  C   UNL     1      -4.268   5.398 -31.368  1.00  0.00     0.099 A 
HETATM   14  C   UNL     1      -3.455   4.267 -31.254  1.00  0.00     0.068 A 
HETATM   15  C   UNL     1      -3.759   6.574 -31.916  1.00  0.00     0.075 A 
HETATM   16  N   UNL     1      -3.969   3.086 -30.721  1.00  0.00    -0.323 N 
HETATM   17  C   UNL     1      -2.127   4.306 -31.683  1.00  0.00     0.035 A 
HETATM   18  C   UNL     1      -5.276   2.967 -30.357  1.00  0.00     0.251 C 
HETATM   19  H   UNL     1      -3.378   2.269 -30.601  1.00  0.00     0.169 HD
HETATM   20  O   UNL     1      -5.757   1.912 -29.951  1.00  0.00    -0.270 OA
HETATM   21  C   UNL     1      -1.612   5.478 -32.249  1.00  0.00     0.038 A 
HETATM   22  C   UNL     1      -2.433   6.606 -32.368  1.00  0.00     0.105 A 
BRANCH  22  23
HETATM   23  N   UNL     1      -1.921   7.826 -32.999  1.00  0.00    -0.116 N 
HETATM   24  O   UNL     1      -1.500   7.727 -34.162  1.00  0.00    -0.532 OA
HETATM   25  O   UNL     1      -1.916   8.864 -32.328  1.00  0.00    -0.532 OA
ENDBRANCH  22  23
ENDBRANCH  10  11
ENDBRANCH   9  10
ENDBRANCH   5   9
BRANCH   1  26
HETATM   26  C   UNL     1      -7.769   0.509 -34.811  1.00  0.00     0.273 C 
BRANCH  26  27
HETATM   27  C   UNL     1      -6.779  -0.588 -34.540  1.00  0.00    -0.030 A 
HETATM   28  C   UNL     1      -5.561  -0.299 -33.878  1.00  0.00     0.012 A 
HETATM   29  C   UNL     1      -4.636  -1.311 -33.597  1.00  0.00     0.040 A 
HETATM   30  C   UNL     1      -4.946  -2.592 -33.993  1.00  0.00     0.105 A 
HETATM   31  C   UNL     1      -6.119  -2.880 -34.644  1.00  0.00     0.105 A 
HETATM   32  O   UNL     1      -4.171  -3.690 -33.809  1.00  0.00    -0.323 OA
HETATM   33  C   UNL     1      -7.054  -1.909 -34.935  1.00  0.00     0.048 A 
HETATM   34  O   UNL     1      -6.230  -4.198 -34.953  1.00  0.00    -0.323 OA
HETATM   35  C   UNL     1      -4.961  -4.702 -34.472  1.00  0.00     0.352 A 
ENDBRANCH  26  27
ENDBRANCH   1  26
TORSDOF 6
ENDMDL
MODEL 4
REMARK VINA RESULT:      -9.2      4.839      8.510
REMARK  6 active torsions:
REMARK  status: ('A' for Active; 'I' for Inactive)
REMARK    1  A    between atoms: C_2  and  C_3 
REMARK    2  A    between atoms: C_3  and  N_4 
REMARK    3  A    between atoms: N_8  and  C_10 
REMARK    4  A    between atoms: C_10  and  C_11 
REMARK    5  A    between atoms: C_11  and  C_12 
REMARK    6  A    between atoms: C_20  and  N_21 
ROOT
HETATM    1  N   UNL     1      -5.307   0.623 -31.657  1.00  0.00    -0.064 N 
HETATM    2  H   UNL     1      -4.421   0.224 -31.307  1.00  0.00     0.280 HD
HETATM    3  C   UNL     1      -6.434  -0.183 -31.028  1.00  0.00     0.263 C 
HETATM    4  C   UNL     1      -7.826   0.452 -31.297  1.00  0.00     0.262 C 
HETATM    5  N   UNL     1      -7.877   1.944 -30.945  1.00  0.00    -0.068 N 
HETATM    6  H   UNL     1      -7.876   2.032 -29.914  1.00  0.00     0.280 HD
HETATM    7  C   UNL     1      -6.678   2.748 -31.477  1.00  0.00     0.262 C 
HETATM    8  C   UNL     1      -5.332   2.063 -31.162  1.00  0.00     0.263 C 
ENDROOT
BRANCH   5   9
HETATM    9  C   UNL     1      -9.174   2.625 -31.412  1.00  0.00     0.238 C 
BRANCH   9  10
HETATM   10  C   UNL     1      -8.895   3.737 -32.414  1.00  0.00     0.070 C 
BRANCH  10  11
HETATM   11  C   UNL     1      -9.671   3.501 -33.725  1.00  0.00     0.222 C 
HETATM   12  O   UNL     1     -11.024   3.850 -33.478  1.00  0.00    -0.334 OA
HETATM   13  C   UNL     1     -11.917   2.818 -33.496  1.00  0.00     0.099 A 
HETATM   14  C   UNL     1     -11.604   1.517 -33.901  1.00  0.00     0.068 A 
HETATM   15  C   UNL     1     -13.209   3.130 -33.079  1.00  0.00     0.075 A 
HETATM   16  N   UNL     1     -10.307   1.201 -34.302  1.00  0.00    -0.323 N 
HETATM   17  C   UNL     1     -12.583   0.522 -33.897  1.00  0.00     0.035 A 
HETATM   18  C   UNL     1      -9.294   2.111 -34.254  1.00  0.00     0.251 C 
HETATM   19  H   UNL     1     -10.077   0.269 -34.632  1.00  0.00     0.169 HD
HETATM   20  O   UNL     1      -8.134   1.826 -34.539  1.00  0.00    -0.270 OA
HETATM   21  C   UNL     1     -13.880   0.822 -33.465  1.00  0.00     0.038 A 
HETATM   22  C   UNL     1     -14.186   2.126 -33.053  1.00  0.00     0.105 A 
BRANCH  22  23
HETATM   23  N   UNL     1     -15.528   2.445 -32.557  1.00  0.00    -0.116 N 
HETATM   24  O   UNL     1     -16.475   1.802 -33.036  1.00  0.00    -0.532 OA
HETATM   25  O   UNL     1     -15.633   3.347 -31.718  1.00  0.00    -0.532 OA
ENDBRANCH  22  23
ENDBRANCH  10  11
ENDBRANCH   9  10
ENDBRANCH   5   9
BRANCH   1  26
HETATM   26  C   UNL     1      -5.219   0.431 -33.170  1.00  0.00     0.273 C 
BRANCH  26  27
HETATM   27  C   UNL     1      -5.351  -0.996 -33.618  1.00  0.00    -0.030 A 
HETATM   28  C   UNL     1      -6.526  -1.427 -34.283  1.00  0.00     0.012 A 
HETATM   29  C   UNL     1      -6.659  -2.746 -34.728  1.00  0.00     0.040 A 
HETATM   30  C   UNL     1      -5.616  -3.612 -34.492  1.00  0.00     0.105 A 
HETATM   31  C   UNL     1      -4.478  -3.208 -33.839  1.00  0.00     0.105 A 
HETATM   32  O   UNL     1      -5.574  -4.921 -34.846  1.00  0.00    -0.323 OA
HETATM   33  C   UNL     1      -4.312  -1.915 -33.389  1.00  0.00     0.048 A 
HETATM   34  O   UNL     1      -3.576  -4.213 -33.701  1.00  0.00    -0.323 OA
HETATM   35  C   UNL     1      -4.300  -5.319 -34.291  1.00  0.00     0.352 A 
ENDBRANCH  26  27
ENDBRANCH   1  26
TORSDOF 6
ENDMDL
MODEL 5
REMARK VINA RESULT:      -9.0      2.212      3.893
REMARK  6 active torsions:
REMARK  status: ('A' for Active; 'I' for Inactive)
REMARK    1  A    between atoms: C_2  and  C_3 
REMARK    2  A    between atoms: C_3  and  N_4 
REMARK    3  A    between atoms: N_8  and  C_10 
REMARK    4  A    between atoms: C_10  and  C_11 
REMARK    5  A    between atoms: C_11  and  C_12 
REMARK    6  A    between atoms: C_20  and  N_21 
ROOT
HETATM    1  N   UNL     1      -7.715   0.739 -31.642  1.00  0.00    -0.064 N 
HETATM    2  H   UNL     1      -8.370  -0.054 -31.742  1.00  0.00     0.280 HD
HETATM    3  C   UNL     1      -8.551   1.962 -31.295  1.00  0.00     0.263 C 
HETATM    4  C   UNL     1      -7.669   3.179 -30.901  1.00  0.00     0.262 C 
HETATM    5  N   UNL     1      -6.624   2.834 -29.832  1.00  0.00    -0.068 N 
HETATM    6  H   UNL     1      -7.113   2.714 -28.929  1.00  0.00     0.280 HD
HETATM    7  C   UNL     1      -5.853   1.532 -30.115  1.00  0.00     0.262 C 
HETATM    8  C   UNL     1      -6.795   0.368 -30.487  1.00  0.00     0.263 C 
ENDROOT
BRANCH   5   9
HETATM    9  C   UNL     1      -5.609   3.966 -29.600  1.00  0.00     0.238 C 
BRANCH   9  10
HETATM   10  C   UNL     1      -6.286   5.234 -29.099  1.00  0.00     0.070 C 
BRANCH  10  11
HETATM   11  C   UNL     1      -5.532   6.487 -29.587  1.00  0.00     0.222 C 
HETATM   12  O   UNL     1      -5.428   6.387 -30.998  1.00  0.00    -0.334 OA
HETATM   13  C   UNL     1      -4.168   6.204 -31.490  1.00  0.00     0.099 A 
HETATM   14  C   UNL     1      -3.006   6.282 -30.717  1.00  0.00     0.068 A 
HETATM   15  C   UNL     1      -4.085   5.929 -32.853  1.00  0.00     0.075 A 
HETATM   16  N   UNL     1      -3.089   6.541 -29.350  1.00  0.00    -0.323 N 
HETATM   17  C   UNL     1      -1.754   6.090 -31.304  1.00  0.00     0.035 A 
HETATM   18  C   UNL     1      -4.286   6.661 -28.710  1.00  0.00     0.251 C 
HETATM   19  H   UNL     1      -2.250   6.634 -28.786  1.00  0.00     0.169 HD
HETATM   20  O   UNL     1      -4.373   6.820 -27.495  1.00  0.00    -0.270 OA
HETATM   21  C   UNL     1      -1.662   5.797 -32.670  1.00  0.00     0.038 A 
HETATM   22  C   UNL     1      -2.831   5.713 -33.438  1.00  0.00     0.105 A 
BRANCH  22  23
HETATM   23  N   UNL     1      -2.753   5.364 -34.860  1.00  0.00    -0.116 N 
HETATM   24  O   UNL     1      -1.632   5.086 -35.313  1.00  0.00    -0.532 OA
HETATM   25  O   UNL     1      -3.799   5.395 -35.518  1.00  0.00    -0.532 OA
ENDBRANCH  22  23
ENDBRANCH  10  11
ENDBRANCH   9  10
ENDBRANCH   5   9
BRANCH   1  26
HETATM   26  C   UNL     1      -7.062   0.845 -33.019  1.00  0.00     0.273 C 
BRANCH  26  27
HETATM   27  C   UNL     1      -6.379  -0.412 -33.476  1.00  0.00    -0.030 A 
HETATM   28  C   UNL     1      -4.972  -0.535 -33.372  1.00  0.00     0.012 A 
HETATM   29  C   UNL     1      -4.319  -1.706 -33.772  1.00  0.00     0.040 A 
HETATM   30  C   UNL     1      -5.089  -2.730 -34.275  1.00  0.00     0.105 A 
HETATM   31  C   UNL     1      -6.452  -2.617 -34.389  1.00  0.00     0.105 A 
HETATM   32  O   UNL     1      -4.629  -3.929 -34.713  1.00  0.00    -0.323 OA
HETATM   33  C   UNL     1      -7.128  -1.479 -34.003  1.00  0.00     0.048 A 
HETATM   34  O   UNL     1      -7.021  -3.733 -34.914  1.00  0.00    -0.323 OA
HETATM   35  C   UNL     1      -5.852  -4.545 -35.174  1.00  0.00     0.352 A 
ENDBRANCH  26  27
ENDBRANCH   1  26
TORSDOF 6
ENDMDL
MODEL 6
REMARK VINA RESULT:      -9.0      2.630      3.993
REMARK  6 active torsions:
REMARK  status: ('A' for Active; 'I' for Inactive)
REMARK    1  A    between atoms: C_2  and  C_3 
REMARK    2  A    between atoms: C_3  and  N_4 
REMARK    3  A    between atoms: N_8  and  C_10 
REMARK    4  A    between atoms: C_10  and  C_11 
REMARK    5  A    between atoms: C_11  and  C_12 
REMARK    6  A    between atoms: C_20  and  N_21 
ROOT
HETATM    1  N   UNL     1      -4.561   0.789 -31.500  1.00  0.00    -0.064 N 
HETATM    2  H   UNL     1      -3.932  -0.030 -31.510  1.00  0.00     0.280 HD
HETATM    3  C   UNL     1      -5.557   0.568 -30.371  1.00  0.00     0.263 C 
HETATM    4  C   UNL     1      -6.425   1.828 -30.102  1.00  0.00     0.262 C 
HETATM    5  N   UNL     1      -5.587   3.101 -29.931  1.00  0.00    -0.068 N 
HETATM    6  H   UNL     1      -5.113   3.055 -29.013  1.00  0.00     0.280 HD
HETATM    7  C   UNL     1      -4.496   3.275 -31.003  1.00  0.00     0.262 C 
HETATM    8  C   UNL     1      -3.670   1.988 -31.206  1.00  0.00     0.263 C 
ENDROOT
BRANCH   5   9
HETATM    9  C   UNL     1      -6.441   4.379 -29.887  1.00  0.00     0.238 C 
BRANCH   9  10
HETATM   10  C   UNL     1      -6.334   5.081 -28.540  1.00  0.00     0.070 C 
BRANCH  10  11
HETATM   11  C   UNL     1      -5.823   6.525 -28.715  1.00  0.00     0.222 C 
HETATM   12  O   UNL     1      -5.582   6.718 -30.098  1.00  0.00    -0.334 OA
HETATM   13  C   UNL     1      -4.274   6.878 -30.457  1.00  0.00     0.099 A 
HETATM   14  C   UNL     1      -3.224   7.029 -29.548  1.00  0.00     0.068 A 
HETATM   15  C   UNL     1      -4.021   6.889 -31.827  1.00  0.00     0.075 A 
HETATM   16  N   UNL     1      -3.476   7.001 -28.177  1.00  0.00    -0.323 N 
HETATM   17  C   UNL     1      -1.915   7.196 -30.003  1.00  0.00     0.035 A 
HETATM   18  C   UNL     1      -4.720   6.765 -27.675  1.00  0.00     0.251 C 
HETATM   19  H   UNL     1      -2.725   7.145 -27.508  1.00  0.00     0.169 HD
HETATM   20  O   UNL     1      -4.941   6.670 -26.471  1.00  0.00    -0.270 OA
HETATM   21  C   UNL     1      -1.649   7.192 -31.377  1.00  0.00     0.038 A 
HETATM   22  C   UNL     1      -2.704   7.033 -32.284  1.00  0.00     0.105 A 
BRANCH  22  23
HETATM   23  N   UNL     1      -2.436   6.983 -33.724  1.00  0.00    -0.116 N 
HETATM   24  O   UNL     1      -3.145   6.227 -34.405  1.00  0.00    -0.532 OA
HETATM   25  O   UNL     1      -1.508   7.673 -34.161  1.00  0.00    -0.532 OA
ENDBRANCH  22  23
ENDBRANCH  10  11
ENDBRANCH   9  10
ENDBRANCH   5   9
BRANCH   1  26
HETATM   26  C   UNL     1      -5.219   0.759 -32.879  1.00  0.00     0.273 C 
BRANCH  26  27
HETATM   27  C   UNL     1      -5.394  -0.619 -33.448  1.00  0.00    -0.030 A 
HETATM   28  C   UNL     1      -6.546  -0.932 -34.211  1.00  0.00     0.012 A 
HETATM   29  C   UNL     1      -6.717  -2.204 -34.768  1.00  0.00     0.040 A 
HETATM   30  C   UNL     1      -5.735  -3.141 -34.544  1.00  0.00     0.105 A 
HETATM   31  C   UNL     1      -4.620  -2.851 -33.797  1.00  0.00     0.105 A 
HETATM   32  O   UNL     1      -5.736  -4.419 -35.000  1.00  0.00    -0.323 OA
HETATM   33  C   UNL     1      -4.418  -1.608 -33.235  1.00  0.00     0.048 A 
HETATM   34  O   UNL     1      -3.778  -3.911 -33.690  1.00  0.00    -0.323 OA
HETATM   35  C   UNL     1      -4.520  -4.927 -34.408  1.00  0.00     0.352 A 
ENDBRANCH  26  27
ENDBRANCH   1  26
TORSDOF 6
ENDMDL
MODEL 7
REMARK VINA RESULT:      -9.0      2.455      8.878
REMARK  6 active torsions:
REMARK  status: ('A' for Active; 'I' for Inactive)
REMARK    1  A    between atoms: C_2  and  C_3 
REMARK    2  A    between atoms: C_3  and  N_4 
REMARK    3  A    between atoms: N_8  and  C_10 
REMARK    4  A    between atoms: C_10  and  C_11 
REMARK    5  A    between atoms: C_11  and  C_12 
REMARK    6  A    between atoms: C_20  and  N_21 
ROOT
HETATM    1  N   UNL     1      -2.075   4.786 -33.500  1.00  0.00    -0.064 N 
HETATM    2  H   UNL     1      -1.178   4.366 -33.794  1.00  0.00     0.280 HD
HETATM    3  C   UNL     1      -2.914   4.963 -34.757  1.00  0.00     0.263 C 
HETATM    4  C   UNL     1      -4.374   5.382 -34.430  1.00  0.00     0.262 C 
HETATM    5  N   UNL     1      -5.032   4.475 -33.384  1.00  0.00    -0.068 N 
HETATM    6  H   UNL     1      -5.241   3.565 -33.830  1.00  0.00     0.280 HD
HETATM    7  C   UNL     1      -4.144   4.193 -32.159  1.00  0.00     0.262 C 
HETATM    8  C   UNL     1      -2.715   3.771 -32.562  1.00  0.00     0.263 C 
ENDROOT
BRANCH   5   9
HETATM    9  C   UNL     1      -6.388   5.011 -32.895  1.00  0.00     0.238 C 
BRANCH   9  10
HETATM   10  C   UNL     1      -7.535   4.525 -33.771  1.00  0.00     0.070 C 
BRANCH  10  11
HETATM   11  C   UNL     1      -8.165   3.245 -33.189  1.00  0.00     0.222 C 
HETATM   12  O   UNL     1      -7.100   2.409 -32.768  1.00  0.00    -0.334 OA
HETATM   13  C   UNL     1      -6.934   1.254 -33.477  1.00  0.00     0.099 A 
HETATM   14  C   UNL     1      -7.832   0.791 -34.443  1.00  0.00     0.068 A 
HETATM   15  C   UNL     1      -5.786   0.523 -33.181  1.00  0.00     0.075 A 
HETATM   16  N   UNL     1      -8.973   1.532 -34.751  1.00  0.00    -0.323 N 
HETATM   17  C   UNL     1      -7.589  -0.407 -35.116  1.00  0.00     0.035 A 
HETATM   18  C   UNL     1      -9.222   2.744 -34.183  1.00  0.00     0.251 C 
HETATM   19  H   UNL     1      -9.649   1.188 -35.426  1.00  0.00     0.169 HD
HETATM   20  O   UNL     1     -10.187   3.436 -34.497  1.00  0.00    -0.270 OA
HETATM   21  C   UNL     1      -6.430  -1.140 -34.837  1.00  0.00     0.038 A 
HETATM   22  C   UNL     1      -5.530  -0.668 -33.872  1.00  0.00     0.105 A 
BRANCH  22  23
HETATM   23  N   UNL     1      -4.290  -1.402 -33.601  1.00  0.00    -0.116 N 
HETATM   24  O   UNL     1      -3.364  -0.770 -33.070  1.00  0.00    -0.532 OA
HETATM   25  O   UNL     1      -4.238  -2.589 -33.939  1.00  0.00    -0.532 OA
ENDBRANCH  22  23
ENDBRANCH  10  11
ENDBRANCH   9  10
ENDBRANCH   5   9
BRANCH   1  26
HETATM   26  C   UNL     1      -1.664   6.118 -32.875  1.00  0.00     0.273 C 
BRANCH  26  27
HETATM   27  C   UNL     1      -1.011   5.991 -31.528  1.00  0.00    -0.030 A 
HETATM   28  C   UNL     1       0.164   5.215 -31.378  1.00  0.00     0.012 A 
HETATM   29  C   UNL     1       0.800   5.103 -30.137  1.00  0.00     0.040 A 
HETATM   30  C   UNL     1       0.241   5.764 -29.067  1.00  0.00     0.105 A 
HETATM   31  C   UNL     1      -0.903   6.510 -29.200  1.00  0.00     0.105 A 
HETATM   32  O   UNL     1       0.716   5.764 -27.796  1.00  0.00    -0.323 OA
HETATM   33  C   UNL     1      -1.554   6.645 -30.409  1.00  0.00     0.048 A 
HETATM   34  O   UNL     1      -1.293   7.074 -28.028  1.00  0.00    -0.323 OA
HETATM   35  C   UNL     1      -0.292   6.549 -27.122  1.00  0.00     0.352 A 
ENDBRANCH  26  27
ENDBRANCH   1  26
TORSDOF 6
ENDMDL
MODEL 8
REMARK VINA RESULT:      -8.5      3.183      8.443
REMARK  6 active torsions:
REMARK  status: ('A' for Active; 'I' for Inactive)
REMARK    1  A    between atoms: C_2  and  C_3 
REMARK    2  A    between atoms: C_3  and  N_4 
REMARK    3  A    between atoms: N_8  and  C_10 
REMARK    4  A    between atoms: C_10  and  C_11 
REMARK    5  A    between atoms: C_11  and  C_12 
REMARK    6  A    between atoms: C_20  and  N_21 
ROOT
HETATM    1  N   UNL     1      -6.580   5.627 -31.374  1.00  0.00    -0.064 N 
HETATM    2  H   UNL     1      -5.841   6.305 -31.126  1.00  0.00     0.280 HD
HETATM    3  C   UNL     1      -6.348   4.389 -30.521  1.00  0.00     0.263 C 
HETATM    4  C   UNL     1      -7.520   3.375 -30.634  1.00  0.00     0.262 C 
HETATM    5  N   UNL     1      -8.891   4.022 -30.403  1.00  0.00    -0.068 N 
HETATM    6  H   UNL     1      -8.982   4.235 -29.396  1.00  0.00     0.280 HD
HETATM    7  C   UNL     1      -9.091   5.341 -31.172  1.00  0.00     0.262 C 
HETATM    8  C   UNL     1      -7.895   6.300 -31.003  1.00  0.00     0.263 C 
ENDROOT
BRANCH   5   9
HETATM    9  C   UNL     1     -10.061   3.080 -30.730  1.00  0.00     0.238 C 
BRANCH   9  10
HETATM   10  C   UNL     1     -10.333   3.019 -32.227  1.00  0.00     0.070 C 
BRANCH  10  11
HETATM   11  C   UNL     1     -10.402   1.557 -32.712  1.00  0.00     0.222 C 
HETATM   12  O   UNL     1      -9.334   0.861 -32.091  1.00  0.00    -0.334 OA
HETATM   13  C   UNL     1      -8.340   0.433 -32.923  1.00  0.00     0.099 A 
HETATM   14  C   UNL     1      -8.405   0.491 -34.318  1.00  0.00     0.068 A 
HETATM   15  C   UNL     1      -7.211  -0.091 -32.296  1.00  0.00     0.075 A 
HETATM   16  N   UNL     1      -9.527   1.031 -34.945  1.00  0.00    -0.323 N 
HETATM   17  C   UNL     1      -7.344   0.022 -35.094  1.00  0.00     0.035 A 
HETATM   18  C   UNL     1     -10.558   1.573 -34.239  1.00  0.00     0.251 C 
HETATM   19  H   UNL     1      -9.599   1.046 -35.958  1.00  0.00     0.169 HD
HETATM   20  O   UNL     1     -11.519   2.112 -34.781  1.00  0.00    -0.270 OA
HETATM   21  C   UNL     1      -6.199  -0.491 -34.473  1.00  0.00     0.038 A 
HETATM   22  C   UNL     1      -6.136  -0.540 -33.075  1.00  0.00     0.105 A 
BRANCH  22  23
HETATM   23  N   UNL     1      -4.927  -1.034 -32.409  1.00  0.00    -0.116 N 
HETATM   24  O   UNL     1      -4.541  -0.415 -31.406  1.00  0.00    -0.532 OA
HETATM   25  O   UNL     1      -4.357  -2.014 -32.902  1.00  0.00    -0.532 OA
ENDBRANCH  22  23
ENDBRANCH  10  11
ENDBRANCH   9  10
ENDBRANCH   5   9
BRANCH   1  26
HETATM   26  C   UNL     1      -6.350   5.368 -32.862  1.00  0.00     0.273 C 
BRANCH  26  27
HETATM   27  C   UNL     1      -4.946   5.630 -33.324  1.00  0.00    -0.030 A 
HETATM   28  C   UNL     1      -4.489   5.091 -34.552  1.00  0.00     0.012 A 
HETATM   29  C   UNL     1      -3.191   5.342 -35.010  1.00  0.00     0.040 A 
HETATM   30  C   UNL     1      -2.373   6.122 -34.225  1.00  0.00     0.105 A 
HETATM   31  C   UNL     1      -2.802   6.640 -33.029  1.00  0.00     0.105 A 
HETATM   32  O   UNL     1      -1.091   6.463 -34.508  1.00  0.00    -0.323 OA
HETATM   33  C   UNL     1      -4.075   6.415 -32.548  1.00  0.00     0.048 A 
HETATM   34  O   UNL     1      -1.843   7.373 -32.408  1.00  0.00    -0.323 OA
HETATM   35  C   UNL     1      -0.734   7.210 -33.324  1.00  0.00     0.352 A 
ENDBRANCH  26  27
ENDBRANCH   1  26
TORSDOF 6
ENDMDL
MODEL 9
REMARK VINA RESULT:      -8.5      3.027      4.902
REMARK  6 active torsions:
REMARK  status: ('A' for Active; 'I' for Inactive)
REMARK    1  A    between atoms: C_2  and  C_3 
REMARK    2  A    between atoms: C_3  and  N_4 
REMARK    3  A    between atoms: N_8  and  C_10 
REMARK    4  A    between atoms: C_10  and  C_11 
REMARK    5  A    between atoms: C_11  and  C_12 
REMARK    6  A    between atoms: C_20  and  N_21 
ROOT
HETATM    1  N   UNL     1      -7.408  -0.161 -32.847  1.00  0.00    -0.064 N 
HETATM    2  H   UNL     1      -7.953  -0.915 -33.294  1.00  0.00     0.280 HD
HETATM    3  C   UNL     1      -6.198  -0.815 -32.196  1.00  0.00     0.263 C 
HETATM    4  C   UNL     1      -5.176   0.233 -31.677  1.00  0.00     0.262 C 
HETATM    5  N   UNL     1      -4.804   1.277 -32.737  1.00  0.00    -0.068 N 
HETATM    6  H   UNL     1      -4.197   0.821 -33.439  1.00  0.00     0.280 HD
HETATM    7  C   UNL     1      -6.016   1.860 -33.485  1.00  0.00     0.262 C 
HETATM    8  C   UNL     1      -6.978   0.761 -33.981  1.00  0.00     0.263 C 
ENDROOT
BRANCH   5   9
HETATM    9  C   UNL     1      -3.972   2.438 -32.168  1.00  0.00     0.238 C 
BRANCH   9  10
HETATM   10  C   UNL     1      -4.142   3.708 -32.990  1.00  0.00     0.070 C 
BRANCH  10  11
HETATM   11  C   UNL     1      -2.783   4.199 -33.528  1.00  0.00     0.222 C 
HETATM   12  O   UNL     1      -1.863   4.144 -32.450  1.00  0.00    -0.334 OA
HETATM   13  C   UNL     1      -1.410   5.348 -31.993  1.00  0.00     0.099 A 
HETATM   14  C   UNL     1      -1.662   6.571 -32.622  1.00  0.00     0.068 A 
HETATM   15  C   UNL     1      -0.650   5.304 -30.827  1.00  0.00     0.075 A 
HETATM   16  N   UNL     1      -2.437   6.616 -33.780  1.00  0.00    -0.323 N 
HETATM   17  C   UNL     1      -1.151   7.756 -32.090  1.00  0.00     0.035 A 
HETATM   18  C   UNL     1      -3.024   5.503 -34.301  1.00  0.00     0.251 C 
HETATM   19  H   UNL     1      -2.597   7.494 -34.264  1.00  0.00     0.169 HD
HETATM   20  O   UNL     1      -3.764   5.541 -35.280  1.00  0.00    -0.270 OA
HETATM   21  C   UNL     1      -0.400   7.723 -30.910  1.00  0.00     0.038 A 
HETATM   22  C   UNL     1      -0.157   6.496 -30.280  1.00  0.00     0.105 A 
BRANCH  22  23
HETATM   23  N   UNL     1       0.591   6.451 -29.020  1.00  0.00    -0.116 N 
HETATM   24  O   UNL     1       0.895   7.538 -28.504  1.00  0.00    -0.532 OA
HETATM   25  O   UNL     1       0.892   5.341 -28.568  1.00  0.00    -0.532 OA
ENDBRANCH  22  23
ENDBRANCH  10  11
ENDBRANCH   9  10
ENDBRANCH   5   9
BRANCH   1  26
HETATM   26  C   UNL     1      -8.377   0.432 -31.826  1.00  0.00     0.273 C 
BRANCH  26  27
HETATM   27  C   UNL     1      -9.542   1.159 -32.432  1.00  0.00    -0.030 A 
HETATM   28  C   UNL     1      -9.663   2.562 -32.278  1.00  0.00     0.012 A 
HETATM   29  C   UNL     1     -10.730   3.261 -32.853  1.00  0.00     0.040 A 
HETATM   30  C   UNL     1     -11.661   2.540 -33.565  1.00  0.00     0.105 A 
HETATM   31  C   UNL     1     -11.558   1.179 -33.711  1.00  0.00     0.105 A 
HETATM   32  O   UNL     1     -12.756   3.047 -34.184  1.00  0.00    -0.323 OA
HETATM   33  C   UNL     1     -10.519   0.459 -33.160  1.00  0.00     0.048 A 
HETATM   34  O   UNL     1     -12.578   0.658 -34.442  1.00  0.00    -0.323 OA
HETATM   35  C   UNL     1     -13.372   1.843 -34.692  1.00  0.00     0.352 A 
ENDBRANCH  26  27
ENDBRANCH   1  26
TORSDOF 6
ENDMDL
MODEL 10
REMARK VINA RESULT:      -8.4      3.087     10.767
REMARK  6 active torsions:
REMARK  status: ('A' for Active; 'I' for Inactive)
REMARK    1  A    between atoms: C_2  and  C_3 
REMARK    2  A    between atoms: C_3  and  N_4 
REMARK    3  A    between atoms: N_8  and  C_10 
REMARK    4  A    between atoms: C_10  and  C_11 
REMARK    5  A    between atoms: C_11  and  C_12 
REMARK    6  A    between atoms: C_20  and  N_21 
ROOT
HETATM    1  N   UNL     1      -1.243   7.228 -30.634  1.00  0.00    -0.064 N 
HETATM    2  H   UNL     1      -1.012   8.224 -30.490  1.00  0.00     0.280 HD
HETATM    3  C   UNL     1      -2.760   7.116 -30.598  1.00  0.00     0.263 C 
HETATM    4  C   UNL     1      -3.251   5.705 -31.022  1.00  0.00     0.262 C 
HETATM    5  N   UNL     1      -2.639   5.236 -32.348  1.00  0.00    -0.068 N 
HETATM    6  H   UNL     1      -3.077   5.775 -33.114  1.00  0.00     0.280 HD
HETATM    7  C   UNL     1      -1.119   5.454 -32.441  1.00  0.00     0.262 C 
HETATM    8  C   UNL     1      -0.708   6.879 -32.017  1.00  0.00     0.263 C 
ENDROOT
BRANCH   5   9
HETATM    9  C   UNL     1      -2.945   3.761 -32.660  1.00  0.00     0.238 C 
BRANCH   9  10
HETATM   10  C   UNL     1      -4.419   3.547 -32.977  1.00  0.00     0.070 C 
BRANCH  10  11
HETATM   11  C   UNL     1      -5.043   2.520 -32.012  1.00  0.00     0.222 C 
HETATM   12  O   UNL     1      -4.494   1.254 -32.338  1.00  0.00    -0.334 OA
HETATM   13  C   UNL     1      -5.365   0.347 -32.871  1.00  0.00     0.099 A 
HETATM   14  C   UNL     1      -6.747   0.537 -32.945  1.00  0.00     0.068 A 
HETATM   15  C   UNL     1      -4.793  -0.828 -33.355  1.00  0.00     0.075 A 
HETATM   16  N   UNL     1      -7.317   1.720 -32.476  1.00  0.00    -0.323 N 
HETATM   17  C   UNL     1      -7.567  -0.447 -33.498  1.00  0.00     0.035 A 
HETATM   18  C   UNL     1      -6.561   2.746 -31.997  1.00  0.00     0.251 C 
HETATM   19  H   UNL     1      -8.324   1.854 -32.493  1.00  0.00     0.169 HD
HETATM   20  O   UNL     1      -7.046   3.819 -31.646  1.00  0.00    -0.270 OA
HETATM   21  C   UNL     1      -7.000  -1.624 -34.001  1.00  0.00     0.038 A 
HETATM   22  C   UNL     1      -5.613  -1.807 -33.931  1.00  0.00     0.105 A 
BRANCH  22  23
HETATM   23  N   UNL     1      -5.000  -3.014 -34.493  1.00  0.00    -0.116 N 
HETATM   24  O   UNL     1      -5.438  -3.416 -35.582  1.00  0.00    -0.532 OA
HETATM   25  O   UNL     1      -4.109  -3.567 -33.838  1.00  0.00    -0.532 OA
ENDBRANCH  22  23
ENDBRANCH  10  11
ENDBRANCH   9  10
ENDBRANCH   5   9
BRANCH   1  26
HETATM   26  C   UNL     1      -0.573   6.526 -29.454  1.00  0.00     0.273 C 
BRANCH  26  27
HETATM   27  C   UNL     1      -0.137   7.449 -28.354  1.00  0.00    -0.030 A 
HETATM   28  C   UNL     1       1.139   8.063 -28.404  1.00  0.00     0.012 A 
HETATM   29  C   UNL     1       1.555   8.944 -27.400  1.00  0.00     0.040 A 
HETATM   30  C   UNL     1       0.688   9.187 -26.359  1.00  0.00     0.105 A 
HETATM   31  C   UNL     1      -0.546   8.589 -26.296  1.00  0.00     0.105 A 
HETATM   32  O   UNL     1       0.924  10.003 -25.302  1.00  0.00    -0.323 OA
HETATM   33  C   UNL     1      -0.989   7.718 -27.269  1.00  0.00     0.048 A 
HETATM   34  O   UNL     1      -1.242   8.956 -25.189  1.00  0.00    -0.323 OA
HETATM   35  C   UNL     1      -0.280   9.812 -24.527  1.00  0.00     0.352 A 
ENDBRANCH  26  27
ENDBRANCH   1  26
TORSDOF 6
ENDMDL
