MODEL 1
REMARK VINA RESULT:      -9.2      0.000      0.000
REMARK  6 active torsions:
REMARK  status: ('A' for Active; 'I' for Inactive)
REMARK    1  A    between atoms: C_3  and  C_4 
REMARK    2  A    between atoms: C_4  and  N_5 
REMARK    3  A    between atoms: C_4  and  C_9 
REMARK       I    between atoms: N_5  and  C_6 
REMARK       I    between atoms: C_6  and  N_7 
REMARK    4  A    between atoms: C_9  and  C_10 
REMARK       I    between atoms: C_10  and  N_11 
REMARK    5  A    between atoms: N_11  and  N_12 
REMARK       I    between atoms: N_12  and  C_13 
REMARK    6  A    between atoms: C_13  and  C_14 
ROOT
HETATM    1  C   UNL     1      -8.432   0.327 -34.259  1.00  0.00     0.238 C 
HETATM    2  N   UNL     1      -9.181   1.325 -34.848  1.00  0.00    -0.267 N 
HETATM    3  O   UNL     1      -8.911  -0.462 -33.445  1.00  0.00    -0.272 OA
HETATM    4  H   UNL     1      -8.855   1.859 -35.654  1.00  0.00     0.190 HD
ENDROOT
BRANCH   1   5
HETATM    5  C   UNL     1      -6.976   0.351 -34.666  1.00  0.00     0.134 C 
BRANCH   5   6
HETATM    6  C   UNL     1      -6.079  -0.296 -33.597  1.00  0.00     0.129 C 
BRANCH   6   7
HETATM    7  C   UNL     1      -5.690  -1.733 -33.934  1.00  0.00    -0.013 A 
HETATM    8  C   UNL     1      -6.572  -2.550 -34.669  1.00  0.00     0.011 A 
HETATM    9  C   UNL     1      -6.246  -3.870 -34.996  1.00  0.00     0.001 A 
HETATM   10  C   UNL     1      -5.029  -4.405 -34.596  1.00  0.00     0.002 A 
HETATM   11  C   UNL     1      -4.141  -3.623 -33.860  1.00  0.00     0.024 A 
HETATM   12  C   UNL     1      -4.467  -2.302 -33.525  1.00  0.00     0.042 A 
HETATM   13 CL   UNL     1      -3.295  -1.432 -32.597  1.00  0.00    -0.084 Cl
ENDBRANCH   6   7
BRANCH   6  14
HETATM   14  N   UNL     1      -6.587  -0.191 -32.227  1.00  0.00    -0.339 N 
HETATM   15  C   UNL     1      -6.099   0.647 -31.276  1.00  0.00     0.292 C 
HETATM   16  N   UNL     1      -6.728   0.485 -30.084  1.00  0.00    -0.254 NA
HETATM   17  O   UNL     1      -5.196   1.458 -31.411  1.00  0.00    -0.254 OA
HETATM   18  H   UNL     1      -7.719   0.292 -30.124  1.00  0.00     0.128 HD
HETATM   19  H   UNL     1      -6.459   1.174 -29.394  1.00  0.00     0.128 HD
HETATM   20  H   UNL     1      -6.962  -1.051 -31.851  1.00  0.00     0.164 HD
ENDBRANCH   6  14
ENDBRANCH   5   6
ENDBRANCH   1   5
BRANCH   2  21
HETATM   21  N   UNL     1     -10.563   1.302 -34.649  1.00  0.00    -0.263 N 
HETATM   22  C   UNL     1     -11.093   2.052 -33.622  1.00  0.00     0.270 C 
HETATM   23  O   UNL     1     -10.398   2.725 -32.865  1.00  0.00    -0.266 OA
HETATM   24  H   UNL     1     -11.091   0.660 -35.237  1.00  0.00     0.190 HD
BRANCH  22  25
HETATM   25  C   UNL     1     -12.569   1.991 -33.448  1.00  0.00     0.036 A 
HETATM   26  C   UNL     1     -13.262   2.927 -32.666  1.00  0.00     0.057 A 
HETATM   27  C   UNL     1     -14.630   2.783 -32.561  1.00  0.00     0.106 A 
HETATM   28  C   UNL     1     -15.308   1.763 -33.188  1.00  0.00     0.105 A 
HETATM   29  O   UNL     1     -15.456   3.594 -31.848  1.00  0.00    -0.323 OA
HETATM   30  O   UNL     1     -16.646   1.809 -32.950  1.00  0.00    -0.323 OA
HETATM   31  C   UNL     1     -14.657   0.822 -33.952  1.00  0.00     0.041 A 
HETATM   32  C   UNL     1     -16.733   2.968 -32.096  1.00  0.00     0.352 A 
HETATM   33  C   UNL     1     -13.268   0.936 -34.078  1.00  0.00     0.020 A 
ENDBRANCH  22  25
ENDBRANCH   2  21
TORSDOF 6
ENDMDL
MODEL 2
REMARK VINA RESULT:      -8.9      6.938     10.297
REMARK  6 active torsions:
REMARK  status: ('A' for Active; 'I' for Inactive)
REMARK    1  A    between atoms: C_3  and  C_4 
REMARK    2  A    between atoms: C_4  and  N_5 
REMARK    3  A    between atoms: C_4  and  C_9 
REMARK       I    between atoms: N_5  and  C_6 
REMARK       I    between atoms: C_6  and  N_7 
REMARK    4  A    between atoms: C_9  and  C_10 
REMARK       I    between atoms: C_10  and  N_11 
REMARK    5  A    between atoms: N_11  and  N_12 
REMARK       I    between atoms: N_12  and  C_13 
REMARK    6  A    between atoms: C_13  and  C_14 
ROOT
HETATM    1  C   UNL     1      -3.489   3.800 -31.745  1.00  0.00     0.238 C 
HETATM    2  N   UNL     1      -3.928   2.703 -31.032  1.00  0.00    -0.267 N 
HETATM    3  O   UNL     1      -3.230   3.744 -32.948  1.00  0.00    -0.272 OA
HETATM    4  H   UNL     1      -4.323   2.776 -30.094  1.00  0.00     0.190 HD
ENDROOT
BRANCH   1   5
HETATM    5  C   UNL     1      -3.303   5.034 -30.892  1.00  0.00     0.134 C 
BRANCH   5   6
HETATM    6  C   UNL     1      -2.035   5.812 -31.290  1.00  0.00     0.129 C 
BRANCH   6   7
HETATM    7  C   UNL     1      -1.298   6.404 -30.091  1.00  0.00    -0.013 A 
HETATM    8  C   UNL     1      -1.959   7.302 -29.229  1.00  0.00     0.011 A 
HETATM    9  C   UNL     1      -1.314   7.861 -28.122  1.00  0.00     0.001 A 
HETATM   10  C   UNL     1       0.008   7.536 -27.850  1.00  0.00     0.002 A 
HETATM   11  C   UNL     1       0.688   6.658 -28.690  1.00  0.00     0.024 A 
HETATM   12  C   UNL     1       0.047   6.100 -29.805  1.00  0.00     0.042 A 
HETATM   13 CL   UNL     1       0.994   5.034 -30.784  1.00  0.00    -0.084 Cl
ENDBRANCH   6   7
BRANCH   6  14
HETATM   14  N   UNL     1      -2.237   6.814 -32.338  1.00  0.00    -0.339 N 
HETATM   15  C   UNL     1      -1.714   6.749 -33.591  1.00  0.00     0.292 C 
HETATM   16  N   UNL     1      -2.020   7.847 -34.327  1.00  0.00    -0.254 NA
HETATM   17  O   UNL     1      -1.030   5.848 -34.051  1.00  0.00    -0.254 OA
HETATM   18  H   UNL     1      -2.941   8.237 -34.186  1.00  0.00     0.128 HD
HETATM   19  H   UNL     1      -1.738   7.770 -35.295  1.00  0.00     0.128 HD
HETATM   20  H   UNL     1      -2.352   7.759 -31.999  1.00  0.00     0.164 HD
ENDBRANCH   6  14
ENDBRANCH   5   6
ENDBRANCH   1   5
BRANCH   2  21
HETATM   21  N   UNL     1      -4.267   1.556 -31.752  1.00  0.00    -0.263 N 
HETATM   22  C   UNL     1      -3.500   0.423 -31.584  1.00  0.00     0.270 C 
HETATM   23  O   UNL     1      -2.522   0.388 -30.842  1.00  0.00    -0.266 OA
HETATM   24  H   UNL     1      -5.026   1.654 -32.424  1.00  0.00     0.190 HD
BRANCH  22  25
HETATM   25  C   UNL     1      -3.899  -0.772 -32.375  1.00  0.00     0.036 A 
HETATM   26  C   UNL     1      -3.282  -2.019 -32.196  1.00  0.00     0.057 A 
HETATM   27  C   UNL     1      -3.719  -3.066 -32.981  1.00  0.00     0.106 A 
HETATM   28  C   UNL     1      -4.716  -2.913 -33.915  1.00  0.00     0.105 A 
HETATM   29  O   UNL     1      -3.234  -4.336 -32.942  1.00  0.00    -0.323 OA
HETATM   30  O   UNL     1      -4.987  -4.069 -34.576  1.00  0.00    -0.323 OA
HETATM   31  C   UNL     1      -5.334  -1.701 -34.124  1.00  0.00     0.041 A 
HETATM   32  C   UNL     1      -4.041  -4.967 -33.959  1.00  0.00     0.352 A 
HETATM   33  C   UNL     1      -4.914  -0.616 -33.346  1.00  0.00     0.020 A 
ENDBRANCH  22  25
ENDBRANCH   2  21
TORSDOF 6
ENDMDL
MODEL 3
REMARK VINA RESULT:      -8.8      5.382      8.953
REMARK  6 active torsions:
REMARK  status: ('A' for Active; 'I' for Inactive)
REMARK    1  A    between atoms: C_3  and  C_4 
REMARK    2  A    between atoms: C_4  and  N_5 
REMARK    3  A    between atoms: C_4  and  C_9 
REMARK       I    between atoms: N_5  and  C_6 
REMARK       I    between atoms: C_6  and  N_7 
REMARK    4  A    between atoms: C_9  and  C_10 
REMARK       I    between atoms: C_10  and  N_11 
REMARK    5  A    between atoms: N_11  and  N_12 
REMARK       I    between atoms: N_12  and  C_13 
REMARK    6  A    between atoms: C_13  and  C_14 
ROOT
HETATM    1  C   UNL     1      -4.947   2.638 -31.307  1.00  0.00     0.238 C 
HETATM    2  N   UNL     1      -4.956   2.248 -32.631  1.00  0.00    -0.267 N 
HETATM    3  O   UNL     1      -5.030   1.830 -30.382  1.00  0.00    -0.272 OA
HETATM    4  H   UNL     1      -4.701   2.876 -33.394  1.00  0.00     0.190 HD
ENDROOT
BRANCH   1   5
HETATM    5  C   UNL     1      -4.891   4.137 -31.124  1.00  0.00     0.134 C 
BRANCH   5   6
HETATM    6  C   UNL     1      -4.878   4.872 -32.477  1.00  0.00     0.129 C 
BRANCH   6   7
HETATM    7  C   UNL     1      -3.683   5.810 -32.634  1.00  0.00    -0.013 A 
HETATM    8  C   UNL     1      -3.154   6.475 -31.511  1.00  0.00     0.011 A 
HETATM    9  C   UNL     1      -2.060   7.338 -31.620  1.00  0.00     0.001 A 
HETATM   10  C   UNL     1      -1.468   7.559 -32.857  1.00  0.00     0.002 A 
HETATM   11  C   UNL     1      -1.977   6.921 -33.986  1.00  0.00     0.024 A 
HETATM   12  C   UNL     1      -3.077   6.060 -33.881  1.00  0.00     0.042 A 
HETATM   13 CL   UNL     1      -3.630   5.336 -35.352  1.00  0.00    -0.084 Cl
ENDBRANCH   6   7
BRANCH   6  14
HETATM   14  N   UNL     1      -6.132   5.548 -32.818  1.00  0.00    -0.339 N 
HETATM   15  C   UNL     1      -7.056   5.079 -33.697  1.00  0.00     0.292 C 
HETATM   16  N   UNL     1      -8.088   5.945 -33.858  1.00  0.00    -0.254 NA
HETATM   17  O   UNL     1      -7.011   4.025 -34.312  1.00  0.00    -0.254 OA
HETATM   18  H   UNL     1      -8.388   6.442 -33.031  1.00  0.00     0.128 HD
HETATM   19  H   UNL     1      -8.841   5.568 -34.419  1.00  0.00     0.128 HD
HETATM   20  H   UNL     1      -6.090   6.557 -32.778  1.00  0.00     0.164 HD
ENDBRANCH   6  14
ENDBRANCH   5   6
ENDBRANCH   1   5
BRANCH   2  21
HETATM   21  N   UNL     1      -4.861   0.882 -32.905  1.00  0.00    -0.263 N 
HETATM   22  C   UNL     1      -5.853   0.292 -33.659  1.00  0.00     0.270 C 
HETATM   23  O   UNL     1      -6.823   0.915 -34.084  1.00  0.00    -0.266 OA
HETATM   24  H   UNL     1      -4.093   0.386 -32.457  1.00  0.00     0.190 HD
BRANCH  22  25
HETATM   25  C   UNL     1      -5.709  -1.165 -33.921  1.00  0.00     0.036 A 
HETATM   26  C   UNL     1      -4.560  -1.876 -33.547  1.00  0.00     0.057 A 
HETATM   27  C   UNL     1      -4.520  -3.223 -33.839  1.00  0.00     0.106 A 
HETATM   28  C   UNL     1      -5.555  -3.865 -34.479  1.00  0.00     0.105 A 
HETATM   29  O   UNL     1      -3.488  -4.062 -33.552  1.00  0.00    -0.323 OA
HETATM   30  O   UNL     1      -5.306  -5.188 -34.668  1.00  0.00    -0.323 OA
HETATM   31  C   UNL     1      -6.692  -3.195 -34.870  1.00  0.00     0.041 A 
HETATM   32  C   UNL     1      -3.992  -5.306 -34.083  1.00  0.00     0.352 A 
HETATM   33  C   UNL     1      -6.765  -1.825 -34.591  1.00  0.00     0.020 A 
ENDBRANCH  22  25
ENDBRANCH   2  21
TORSDOF 6
ENDMDL
MODEL 4
REMARK VINA RESULT:      -8.7      5.137      9.336
REMARK  6 active torsions:
REMARK  status: ('A' for Active; 'I' for Inactive)
REMARK    1  A    between atoms: C_3  and  C_4 
REMARK    2  A    between atoms: C_4  and  N_5 
REMARK    3  A    between atoms: C_4  and  C_9 
REMARK       I    between atoms: N_5  and  C_6 
REMARK       I    between atoms: C_6  and  N_7 
REMARK    4  A    between atoms: C_9  and  C_10 
REMARK       I    between atoms: C_10  and  N_11 
REMARK    5  A    between atoms: N_11  and  N_12 
REMARK       I    between atoms: N_12  and  C_13 
REMARK    6  A    between atoms: C_13  and  C_14 
ROOT
HETATM    1  C   UNL     1      -5.290   2.677 -32.464  1.00  0.00     0.238 C 
HETATM    2  N   UNL     1      -3.913   2.617 -32.541  1.00  0.00    -0.267 N 
HETATM    3  O   UNL     1      -5.874   3.352 -31.616  1.00  0.00    -0.272 OA
HETATM    4  H   UNL     1      -3.421   2.221 -33.343  1.00  0.00     0.190 HD
ENDROOT
BRANCH   1   5
HETATM    5  C   UNL     1      -5.986   1.793 -33.474  1.00  0.00     0.134 C 
BRANCH   5   6
HETATM    6  C   UNL     1      -6.509   0.498 -32.827  1.00  0.00     0.129 C 
BRANCH   6   7
HETATM    7  C   UNL     1      -5.778  -0.750 -33.313  1.00  0.00    -0.013 A 
HETATM    8  C   UNL     1      -6.248  -1.451 -34.441  1.00  0.00     0.011 A 
HETATM    9  C   UNL     1      -5.601  -2.596 -34.913  1.00  0.00     0.001 A 
HETATM   10  C   UNL     1      -4.466  -3.070 -34.268  1.00  0.00     0.002 A 
HETATM   11  C   UNL     1      -3.983  -2.402 -33.145  1.00  0.00     0.024 A 
HETATM   12  C   UNL     1      -4.634  -1.257 -32.665  1.00  0.00     0.042 A 
HETATM   13 CL   UNL     1      -3.953  -0.519 -31.255  1.00  0.00    -0.084 Cl
ENDBRANCH   6   7
BRANCH   6  14
HETATM   14  N   UNL     1      -7.962   0.324 -32.897  1.00  0.00    -0.339 N 
HETATM   15  C   UNL     1      -8.858   0.895 -32.051  1.00  0.00     0.292 C 
HETATM   16  N   UNL     1     -10.130   0.507 -32.321  1.00  0.00    -0.254 NA
HETATM   17  O   UNL     1      -8.610   1.658 -31.130  1.00  0.00    -0.254 OA
HETATM   18  H   UNL     1     -10.364   0.390 -33.297  1.00  0.00     0.128 HD
HETATM   19  H   UNL     1     -10.823   1.006 -31.778  1.00  0.00     0.128 HD
HETATM   20  H   UNL     1      -8.260  -0.574 -33.253  1.00  0.00     0.164 HD
ENDBRANCH   6  14
ENDBRANCH   5   6
ENDBRANCH   1   5
BRANCH   2  21
HETATM   21  N   UNL     1      -3.181   3.503 -31.750  1.00  0.00    -0.263 N 
HETATM   22  C   UNL     1      -2.310   4.373 -32.370  1.00  0.00     0.270 C 
HETATM   23  O   UNL     1      -2.139   4.387 -33.586  1.00  0.00    -0.266 OA
HETATM   24  H   UNL     1      -3.282   3.396 -30.742  1.00  0.00     0.190 HD
BRANCH  22  25
HETATM   25  C   UNL     1      -1.550   5.296 -31.484  1.00  0.00     0.036 A 
HETATM   26  C   UNL     1      -2.194   6.153 -30.580  1.00  0.00     0.057 A 
HETATM   27  C   UNL     1      -1.401   6.975 -29.806  1.00  0.00     0.106 A 
HETATM   28  C   UNL     1      -0.030   6.976 -29.906  1.00  0.00     0.105 A 
HETATM   29  O   UNL     1      -1.854   7.866 -28.883  1.00  0.00    -0.323 OA
HETATM   30  O   UNL     1       0.551   7.862 -29.054  1.00  0.00    -0.323 OA
HETATM   31  C   UNL     1       0.633   6.156 -30.791  1.00  0.00     0.041 A 
HETATM   32  C   UNL     1      -0.611   8.427 -28.412  1.00  0.00     0.352 A 
HETATM   33  C   UNL     1      -0.140   5.309 -31.594  1.00  0.00     0.020 A 
ENDBRANCH  22  25
ENDBRANCH   2  21
TORSDOF 6
ENDMDL
MODEL 5
REMARK VINA RESULT:      -8.7      6.569     10.945
REMARK  6 active torsions:
REMARK  status: ('A' for Active; 'I' for Inactive)
REMARK    1  A    between atoms: C_3  and  C_4 
REMARK    2  A    between atoms: C_4  and  N_5 
REMARK    3  A    between atoms: C_4  and  C_9 
REMARK       I    between atoms: N_5  and  C_6 
REMARK       I    between atoms: C_6  and  N_7 
REMARK    4  A    between atoms: C_9  and  C_10 
REMARK       I    between atoms: C_10  and  N_11 
REMARK    5  A    between atoms: N_11  and  N_12 
REMARK       I    between atoms: N_12  and  C_13 
REMARK    6  A    between atoms: C_13  and  C_14 
ROOT
HETATM    1  C   UNL     1      -3.603   4.093 -31.757  1.00  0.00     0.238 C 
HETATM    2  N   UNL     1      -2.324   4.084 -31.239  1.00  0.00    -0.267 N 
HETATM    3  O   UNL     1      -4.445   4.925 -31.419  1.00  0.00    -0.272 OA
HETATM    4  H   UNL     1      -1.568   3.530 -31.642  1.00  0.00     0.190 HD
ENDROOT
BRANCH   1   5
HETATM    5  C   UNL     1      -3.869   2.957 -32.719  1.00  0.00     0.134 C 
BRANCH   5   6
HETATM    6  C   UNL     1      -4.785   1.890 -32.094  1.00  0.00     0.129 C 
BRANCH   6   7
HETATM    7  C   UNL     1      -5.484   1.020 -33.135  1.00  0.00    -0.013 A 
HETATM    8  C   UNL     1      -6.385   1.599 -34.050  1.00  0.00     0.011 A 
HETATM    9  C   UNL     1      -7.041   0.831 -35.017  1.00  0.00     0.001 A 
HETATM   10  C   UNL     1      -6.810  -0.536 -35.093  1.00  0.00     0.002 A 
HETATM   11  C   UNL     1      -5.931  -1.137 -34.195  1.00  0.00     0.024 A 
HETATM   12  C   UNL     1      -5.277  -0.371 -33.221  1.00  0.00     0.042 A 
HETATM   13 CL   UNL     1      -4.220  -1.227 -32.151  1.00  0.00    -0.084 Cl
ENDBRANCH   6   7
BRANCH   6  14
HETATM   14  N   UNL     1      -5.737   2.404 -31.106  1.00  0.00    -0.339 N 
HETATM   15  C   UNL     1      -6.124   1.748 -29.981  1.00  0.00     0.292 C 
HETATM   16  N   UNL     1      -7.060   2.442 -29.285  1.00  0.00    -0.254 NA
HETATM   17  O   UNL     1      -5.728   0.658 -29.598  1.00  0.00    -0.254 OA
HETATM   18  H   UNL     1      -6.952   3.446 -29.270  1.00  0.00     0.128 HD
HETATM   19  H   UNL     1      -7.279   2.027 -28.389  1.00  0.00     0.128 HD
HETATM   20  H   UNL     1      -6.453   3.007 -31.487  1.00  0.00     0.164 HD
ENDBRANCH   6  14
ENDBRANCH   5   6
ENDBRANCH   1   5
BRANCH   2  21
HETATM   21  N   UNL     1      -1.935   5.171 -30.455  1.00  0.00    -0.263 N 
HETATM   22  C   UNL     1      -0.621   5.250 -30.045  1.00  0.00     0.270 C 
HETATM   23  O   UNL     1       0.214   4.396 -30.328  1.00  0.00    -0.266 OA
HETATM   24  H   UNL     1      -2.677   5.806 -30.166  1.00  0.00     0.190 HD
BRANCH  22  25
HETATM   25  C   UNL     1      -0.256   6.426 -29.209  1.00  0.00     0.036 A 
HETATM   26  C   UNL     1       0.736   6.352 -28.220  1.00  0.00     0.057 A 
HETATM   27  C   UNL     1       0.999   7.495 -27.494  1.00  0.00     0.106 A 
HETATM   28  C   UNL     1       0.321   8.672 -27.711  1.00  0.00     0.105 A 
HETATM   29  O   UNL     1       1.922   7.604 -26.501  1.00  0.00    -0.323 OA
HETATM   30  O   UNL     1       0.736   9.668 -26.884  1.00  0.00    -0.323 OA
HETATM   31  C   UNL     1      -0.667   8.775 -28.664  1.00  0.00     0.041 A 
HETATM   32  C   UNL     1       1.748   8.984 -26.117  1.00  0.00     0.352 A 
HETATM   33  C   UNL     1      -0.961   7.633 -29.419  1.00  0.00     0.020 A 
ENDBRANCH  22  25
ENDBRANCH   2  21
TORSDOF 6
ENDMDL
MODEL 6
REMARK VINA RESULT:      -8.7      5.859      9.539
REMARK  6 active torsions:
REMARK  status: ('A' for Active; 'I' for Inactive)
REMARK    1  A    between atoms: C_3  and  C_4 
REMARK    2  A    between atoms: C_4  and  N_5 
REMARK    3  A    between atoms: C_4  and  C_9 
REMARK       I    between atoms: N_5  and  C_6 
REMARK       I    between atoms: C_6  and  N_7 
REMARK    4  A    between atoms: C_9  and  C_10 
REMARK       I    between atoms: C_10  and  N_11 
REMARK    5  A    between atoms: N_11  and  N_12 
REMARK       I    between atoms: N_12  and  C_13 
REMARK    6  A    between atoms: C_13  and  C_14 
ROOT
HETATM    1  C   UNL     1      -3.983   2.852 -32.018  1.00  0.00     0.238 C 
HETATM    2  N   UNL     1      -5.122   2.231 -32.489  1.00  0.00    -0.267 N 
HETATM    3  O   UNL     1      -2.989   2.221 -31.658  1.00  0.00    -0.272 OA
HETATM    4  H   UNL     1      -5.871   2.735 -32.963  1.00  0.00     0.190 HD
ENDROOT
BRANCH   1   5
HETATM    5  C   UNL     1      -4.112   4.356 -31.935  1.00  0.00     0.134 C 
BRANCH   5   6
HETATM    6  C   UNL     1      -2.734   5.043 -31.935  1.00  0.00     0.129 C 
BRANCH   6   7
HETATM    7  C   UNL     1      -2.797   6.507 -31.507  1.00  0.00    -0.013 A 
HETATM    8  C   UNL     1      -4.028   7.193 -31.516  1.00  0.00     0.011 A 
HETATM    9  C   UNL     1      -4.121   8.533 -31.129  1.00  0.00     0.001 A 
HETATM   10  C   UNL     1      -2.984   9.220 -30.723  1.00  0.00     0.002 A 
HETATM   11  C   UNL     1      -1.753   8.569 -30.713  1.00  0.00     0.024 A 
HETATM   12  C   UNL     1      -1.655   7.228 -31.106  1.00  0.00     0.042 A 
HETATM   13 CL   UNL     1      -0.073   6.528 -31.067  1.00  0.00    -0.084 Cl
ENDBRANCH   6   7
BRANCH   6  14
HETATM   14  N   UNL     1      -1.971   4.884 -33.175  1.00  0.00    -0.339 N 
HETATM   15  C   UNL     1      -2.357   5.347 -34.393  1.00  0.00     0.292 C 
HETATM   16  N   UNL     1      -1.480   5.001 -35.369  1.00  0.00    -0.254 NA
HETATM   17  O   UNL     1      -3.367   5.985 -34.645  1.00  0.00    -0.254 OA
HETATM   18  H   UNL     1      -0.502   5.009 -35.114  1.00  0.00     0.128 HD
HETATM   19  H   UNL     1      -1.688   5.429 -36.262  1.00  0.00     0.128 HD
HETATM   20  H   UNL     1      -1.417   4.040 -33.222  1.00  0.00     0.164 HD
ENDBRANCH   6  14
ENDBRANCH   5   6
ENDBRANCH   1   5
BRANCH   2  21
HETATM   21  N   UNL     1      -5.055   0.859 -32.737  1.00  0.00    -0.263 N 
HETATM   22  C   UNL     1      -5.793   0.343 -33.781  1.00  0.00     0.270 C 
HETATM   23  O   UNL     1      -6.518   1.038 -34.489  1.00  0.00    -0.266 OA
HETATM   24  H   UNL     1      -4.518   0.306 -32.072  1.00  0.00     0.190 HD
BRANCH  22  25
HETATM   25  C   UNL     1      -5.692  -1.125 -34.005  1.00  0.00     0.036 A 
HETATM   26  C   UNL     1      -4.538  -1.847 -33.669  1.00  0.00     0.057 A 
HETATM   27  C   UNL     1      -4.539  -3.204 -33.920  1.00  0.00     0.106 A 
HETATM   28  C   UNL     1      -5.619  -3.843 -34.484  1.00  0.00     0.105 A 
HETATM   29  O   UNL     1      -3.511  -4.055 -33.660  1.00  0.00    -0.323 OA
HETATM   30  O   UNL     1      -5.405  -5.176 -34.645  1.00  0.00    -0.323 OA
HETATM   31  C   UNL     1      -6.762  -3.161 -34.837  1.00  0.00     0.041 A 
HETATM   32  C   UNL     1      -4.066  -5.303 -34.125  1.00  0.00     0.352 A 
HETATM   33  C   UNL     1      -6.794  -1.783 -34.598  1.00  0.00     0.020 A 
ENDBRANCH  22  25
ENDBRANCH   2  21
TORSDOF 6
ENDMDL
MODEL 7
REMARK VINA RESULT:      -8.4      5.611      9.687
REMARK  6 active torsions:
REMARK  status: ('A' for Active; 'I' for Inactive)
REMARK    1  A    between atoms: C_3  and  C_4 
REMARK    2  A    between atoms: C_4  and  N_5 
REMARK    3  A    between atoms: C_4  and  C_9 
REMARK       I    between atoms: N_5  and  C_6 
REMARK       I    between atoms: C_6  and  N_7 
REMARK    4  A    between atoms: C_9  and  C_10 
REMARK       I    between atoms: C_10  and  N_11 
REMARK    5  A    between atoms: N_11  and  N_12 
REMARK       I    between atoms: N_12  and  C_13 
REMARK    6  A    between atoms: C_13  and  C_14 
ROOT
HETATM    1  C   UNL     1      -4.353   2.949 -32.453  1.00  0.00     0.238 C 
HETATM    2  N   UNL     1      -4.626   4.116 -31.768  1.00  0.00    -0.267 N 
HETATM    3  O   UNL     1      -3.211   2.505 -32.569  1.00  0.00    -0.272 OA
HETATM    4  H   UNL     1      -5.571   4.393 -31.503  1.00  0.00     0.190 HD
ENDROOT
BRANCH   1   5
HETATM    5  C   UNL     1      -5.577   2.324 -33.084  1.00  0.00     0.134 C 
BRANCH   5   6
HETATM    6  C   UNL     1      -6.041   1.079 -32.307  1.00  0.00     0.129 C 
BRANCH   6   7
HETATM    7  C   UNL     1      -5.712  -0.228 -33.024  1.00  0.00    -0.013 A 
HETATM    8  C   UNL     1      -6.533  -0.685 -34.073  1.00  0.00     0.011 A 
HETATM    9  C   UNL     1      -6.259  -1.876 -34.751  1.00  0.00     0.001 A 
HETATM   10  C   UNL     1      -5.156  -2.641 -34.396  1.00  0.00     0.002 A 
HETATM   11  C   UNL     1      -4.331  -2.218 -33.356  1.00  0.00     0.024 A 
HETATM   12  C   UNL     1      -4.607  -1.027 -32.670  1.00  0.00     0.042 A 
HETATM   13 CL   UNL     1      -3.522  -0.609 -31.388  1.00  0.00    -0.084 Cl
ENDBRANCH   6   7
BRANCH   6  14
HETATM   14  N   UNL     1      -7.441   1.112 -31.879  1.00  0.00    -0.339 N 
HETATM   15  C   UNL     1      -7.969   2.008 -31.005  1.00  0.00     0.292 C 
HETATM   16  N   UNL     1      -9.279   1.760 -30.752  1.00  0.00    -0.254 NA
HETATM   17  O   UNL     1      -7.384   2.935 -30.466  1.00  0.00    -0.254 OA
HETATM   18  H   UNL     1      -9.831   1.433 -31.532  1.00  0.00     0.128 HD
HETATM   19  H   UNL     1      -9.720   2.479 -30.193  1.00  0.00     0.128 HD
HETATM   20  H   UNL     1      -7.893   0.208 -31.851  1.00  0.00     0.164 HD
ENDBRANCH   6  14
ENDBRANCH   5   6
ENDBRANCH   1   5
BRANCH   2  21
HETATM   21  N   UNL     1      -3.590   4.691 -31.030  1.00  0.00    -0.263 N 
HETATM   22  C   UNL     1      -2.998   5.839 -31.512  1.00  0.00     0.270 C 
HETATM   23  O   UNL     1      -3.334   6.365 -32.569  1.00  0.00    -0.266 OA
HETATM   24  H   UNL     1      -3.280   4.173 -30.209  1.00  0.00     0.190 HD
BRANCH  22  25
HETATM   25  C   UNL     1      -1.897   6.413 -30.692  1.00  0.00     0.036 A 
HETATM   26  C   UNL     1      -2.131   6.991 -29.436  1.00  0.00     0.057 A 
HETATM   27  C   UNL     1      -1.045   7.501 -28.756  1.00  0.00     0.106 A 
HETATM   28  C   UNL     1       0.229   7.459 -29.273  1.00  0.00     0.105 A 
HETATM   29  O   UNL     1      -1.089   8.096 -27.533  1.00  0.00    -0.323 OA
HETATM   30  O   UNL     1       1.145   8.017 -28.439  1.00  0.00    -0.323 OA
HETATM   31  C   UNL     1       0.492   6.909 -30.507  1.00  0.00     0.041 A 
HETATM   32  C   UNL     1       0.303   8.424 -27.340  1.00  0.00     0.352 A 
HETATM   33  C   UNL     1      -0.588   6.384 -31.227  1.00  0.00     0.020 A 
ENDBRANCH  22  25
ENDBRANCH   2  21
TORSDOF 6
ENDMDL
MODEL 8
REMARK VINA RESULT:      -8.4     14.881     18.513
REMARK  6 active torsions:
REMARK  status: ('A' for Active; 'I' for Inactive)
REMARK    1  A    between atoms: C_3  and  C_4 
REMARK    2  A    between atoms: C_4  and  N_5 
REMARK    3  A    between atoms: C_4  and  C_9 
REMARK       I    between atoms: N_5  and  C_6 
REMARK       I    between atoms: C_6  and  N_7 
REMARK    4  A    between atoms: C_9  and  C_10 
REMARK       I    between atoms: C_10  and  N_11 
REMARK    5  A    between atoms: N_11  and  N_12 
REMARK       I    between atoms: N_12  and  C_13 
REMARK    6  A    between atoms: C_13  and  C_14 
ROOT
HETATM    1  C   UNL     1      -4.781 -13.153 -38.953  1.00  0.00     0.238 C 
HETATM    2  N   UNL     1      -4.082 -13.241 -37.766  1.00  0.00    -0.267 N 
HETATM    3  O   UNL     1      -4.352 -13.622 -40.007  1.00  0.00    -0.272 OA
HETATM    4  H   UNL     1      -4.501 -13.031 -36.860  1.00  0.00     0.190 HD
ENDROOT
BRANCH   1   5
HETATM    5  C   UNL     1      -6.073 -12.378 -38.830  1.00  0.00     0.134 C 
BRANCH   5   6
HETATM    6  C   UNL     1      -7.172 -13.215 -38.150  1.00  0.00     0.129 C 
BRANCH   6   7
HETATM    7  C   UNL     1      -8.468 -13.264 -38.955  1.00  0.00    -0.013 A 
HETATM    8  C   UNL     1      -8.999 -12.084 -39.512  1.00  0.00     0.011 A 
HETATM    9  C   UNL     1     -10.183 -12.094 -40.255  1.00  0.00     0.001 A 
HETATM   10  C   UNL     1     -10.866 -13.286 -40.460  1.00  0.00     0.002 A 
HETATM   11  C   UNL     1     -10.369 -14.466 -39.913  1.00  0.00     0.024 A 
HETATM   12  C   UNL     1      -9.185 -14.459 -39.162  1.00  0.00     0.042 A 
HETATM   13 CL   UNL     1      -8.671 -15.981 -38.520  1.00  0.00    -0.084 Cl
ENDBRANCH   6   7
BRANCH   6  14
HETATM   14  N   UNL     1      -7.428 -12.866 -36.751  1.00  0.00    -0.339 N 
HETATM   15  C   UNL     1      -6.926 -13.529 -35.677  1.00  0.00     0.292 C 
HETATM   16  N   UNL     1      -7.380 -13.017 -34.505  1.00  0.00    -0.254 NA
HETATM   17  O   UNL     1      -6.168 -14.486 -35.698  1.00  0.00    -0.254 OA
HETATM   18  H   UNL     1      -7.492 -12.013 -34.470  1.00  0.00     0.128 HD
HETATM   19  H   UNL     1      -6.933 -13.421 -33.693  1.00  0.00     0.128 HD
HETATM   20  H   UNL     1      -8.335 -12.452 -36.581  1.00  0.00     0.164 HD
ENDBRANCH   6  14
ENDBRANCH   5   6
ENDBRANCH   1   5
BRANCH   2  21
HETATM   21  N   UNL     1      -2.949 -14.057 -37.741  1.00  0.00    -0.263 N 
HETATM   22  C   UNL     1      -1.712 -13.471 -37.903  1.00  0.00     0.270 C 
HETATM   23  O   UNL     1      -1.568 -12.264 -38.084  1.00  0.00    -0.266 OA
HETATM   24  H   UNL     1      -3.118 -15.060 -37.682  1.00  0.00     0.190 HD
BRANCH  22  25
HETATM   25  C   UNL     1      -0.536 -14.381 -37.872  1.00  0.00     0.036 A 
HETATM   26  C   UNL     1      -0.442 -15.440 -36.956  1.00  0.00     0.057 A 
HETATM   27  C   UNL     1       0.691 -16.225 -37.004  1.00  0.00     0.106 A 
HETATM   28  C   UNL     1       1.706 -15.993 -37.903  1.00  0.00     0.105 A 
HETATM   29  O   UNL     1       0.949 -17.287 -36.194  1.00  0.00    -0.323 OA
HETATM   30  O   UNL     1       2.726 -16.883 -37.774  1.00  0.00    -0.323 OA
HETATM   31  C   UNL     1       1.651 -14.956 -38.806  1.00  0.00     0.041 A 
HETATM   32  C   UNL     1       2.242 -17.698 -36.686  1.00  0.00     0.352 A 
HETATM   33  C   UNL     1       0.516 -14.137 -38.785  1.00  0.00     0.020 A 
ENDBRANCH  22  25
ENDBRANCH   2  21
TORSDOF 6
ENDMDL
MODEL 9
REMARK VINA RESULT:      -8.2      5.549      9.006
REMARK  6 active torsions:
REMARK  status: ('A' for Active; 'I' for Inactive)
REMARK    1  A    between atoms: C_3  and  C_4 
REMARK    2  A    between atoms: C_4  and  N_5 
REMARK    3  A    between atoms: C_4  and  C_9 
REMARK       I    between atoms: N_5  and  C_6 
REMARK       I    between atoms: C_6  and  N_7 
REMARK    4  A    between atoms: C_9  and  C_10 
REMARK       I    between atoms: C_10  and  N_11 
REMARK    5  A    between atoms: N_11  and  N_12 
REMARK       I    between atoms: N_12  and  C_13 
REMARK    6  A    between atoms: C_13  and  C_14 
ROOT
HETATM    1  C   UNL     1      -5.696   4.206 -31.191  1.00  0.00     0.238 C 
HETATM    2  N   UNL     1      -5.768   3.830 -32.517  1.00  0.00    -0.267 N 
HETATM    3  O   UNL     1      -5.465   3.400 -30.290  1.00  0.00    -0.272 OA
HETATM    4  H   UNL     1      -5.769   4.503 -33.284  1.00  0.00     0.190 HD
ENDROOT
BRANCH   1   5
HETATM    5  C   UNL     1      -5.988   5.672 -30.968  1.00  0.00     0.134 C 
BRANCH   5   6
HETATM    6  C   UNL     1      -4.933   6.327 -30.059  1.00  0.00     0.129 C 
BRANCH   6   7
HETATM    7  C   UNL     1      -3.632   6.649 -30.790  1.00  0.00    -0.013 A 
HETATM    8  C   UNL     1      -2.656   5.649 -30.969  1.00  0.00     0.011 A 
HETATM    9  C   UNL     1      -1.455   5.910 -31.635  1.00  0.00     0.001 A 
HETATM   10  C   UNL     1      -1.201   7.178 -32.139  1.00  0.00     0.002 A 
HETATM   11  C   UNL     1      -2.144   8.189 -31.968  1.00  0.00     0.024 A 
HETATM   12  C   UNL     1      -3.346   7.932 -31.295  1.00  0.00     0.042 A 
HETATM   13 CL   UNL     1      -4.436   9.267 -31.131  1.00  0.00    -0.084 Cl
ENDBRANCH   6   7
BRANCH   6  14
HETATM   14  N   UNL     1      -4.676   5.611 -28.807  1.00  0.00    -0.339 N 
HETATM   15  C   UNL     1      -5.275   5.879 -27.618  1.00  0.00     0.292 C 
HETATM   16  N   UNL     1      -4.797   5.094 -26.620  1.00  0.00    -0.254 NA
HETATM   17  O   UNL     1      -6.132   6.722 -27.405  1.00  0.00    -0.254 OA
HETATM   18  H   UNL     1      -4.576   4.140 -26.868  1.00  0.00     0.128 HD
HETATM   19  H   UNL     1      -5.306   5.197 -25.752  1.00  0.00     0.128 HD
HETATM   20  H   UNL     1      -3.734   5.256 -28.713  1.00  0.00     0.164 HD
ENDBRANCH   6  14
ENDBRANCH   5   6
ENDBRANCH   1   5
BRANCH   2  21
HETATM   21  N   UNL     1      -5.375   2.530 -32.844  1.00  0.00    -0.263 N 
HETATM   22  C   UNL     1      -6.352   1.589 -33.087  1.00  0.00     0.270 C 
HETATM   23  O   UNL     1      -7.551   1.842 -33.011  1.00  0.00    -0.266 OA
HETATM   24  H   UNL     1      -4.376   2.340 -32.806  1.00  0.00     0.190 HD
BRANCH  22  25
HETATM   25  C   UNL     1      -5.883   0.219 -33.429  1.00  0.00     0.036 A 
HETATM   26  C   UNL     1      -6.733  -0.730 -34.017  1.00  0.00     0.057 A 
HETATM   27  C   UNL     1      -6.206  -1.975 -34.290  1.00  0.00     0.106 A 
HETATM   28  C   UNL     1      -4.901  -2.298 -34.000  1.00  0.00     0.105 A 
HETATM   29  O   UNL     1      -6.883  -3.011 -34.855  1.00  0.00    -0.323 OA
HETATM   30  O   UNL     1      -4.593  -3.575 -34.350  1.00  0.00    -0.323 OA
HETATM   31  C   UNL     1      -4.044  -1.394 -33.412  1.00  0.00     0.041 A 
HETATM   32  C   UNL     1      -5.855  -4.023 -34.887  1.00  0.00     0.352 A 
HETATM   33  C   UNL     1      -4.546  -0.121 -33.119  1.00  0.00     0.020 A 
ENDBRANCH  22  25
ENDBRANCH   2  21
TORSDOF 6
ENDMDL
MODEL 10
REMARK VINA RESULT:      -8.1      2.545      3.417
REMARK  6 active torsions:
REMARK  status: ('A' for Active; 'I' for Inactive)
REMARK    1  A    between atoms: C_3  and  C_4 
REMARK    2  A    between atoms: C_4  and  N_5 
REMARK    3  A    between atoms: C_4  and  C_9 
REMARK       I    between atoms: N_5  and  C_6 
REMARK       I    between atoms: C_6  and  N_7 
REMARK    4  A    between atoms: C_9  and  C_10 
REMARK       I    between atoms: C_10  and  N_11 
REMARK    5  A    between atoms: N_11  and  N_12 
REMARK       I    between atoms: N_12  and  C_13 
REMARK    6  A    between atoms: C_13  and  C_14 
ROOT
HETATM    1  C   UNL     1      -7.816   2.723 -31.289  1.00  0.00     0.238 C 
HETATM    2  N   UNL     1      -8.358   2.536 -32.544  1.00  0.00    -0.267 N 
HETATM    3  O   UNL     1      -8.506   2.740 -30.269  1.00  0.00    -0.272 OA
HETATM    4  H   UNL     1      -7.790   2.332 -33.367  1.00  0.00     0.190 HD
ENDROOT
BRANCH   1   5
HETATM    5  C   UNL     1      -6.323   2.963 -31.310  1.00  0.00     0.134 C 
BRANCH   5   6
HETATM    6  C   UNL     1      -5.687   2.450 -32.614  1.00  0.00     0.129 C 
BRANCH   6   7
HETATM    7  C   UNL     1      -4.826   1.205 -32.408  1.00  0.00    -0.013 A 
HETATM    8  C   UNL     1      -3.809   1.203 -31.433  1.00  0.00     0.011 A 
HETATM    9  C   UNL     1      -3.005   0.080 -31.218  1.00  0.00     0.001 A 
HETATM   10  C   UNL     1      -3.198  -1.069 -31.974  1.00  0.00     0.002 A 
HETATM   11  C   UNL     1      -4.190  -1.092 -32.951  1.00  0.00     0.024 A 
HETATM   12  C   UNL     1      -4.995   0.035 -33.173  1.00  0.00     0.042 A 
HETATM   13 CL   UNL     1      -6.184  -0.104 -34.422  1.00  0.00    -0.084 Cl
ENDBRANCH   6   7
BRANCH   6  14
HETATM   14  N   UNL     1      -4.972   3.468 -33.387  1.00  0.00    -0.339 N 
HETATM   15  C   UNL     1      -5.562   4.446 -34.122  1.00  0.00     0.292 C 
HETATM   16  N   UNL     1      -4.651   5.208 -34.779  1.00  0.00    -0.254 NA
HETATM   17  O   UNL     1      -6.760   4.655 -34.233  1.00  0.00    -0.254 OA
HETATM   18  H   UNL     1      -3.790   5.399 -34.286  1.00  0.00     0.128 HD
HETATM   19  H   UNL     1      -5.060   6.010 -35.241  1.00  0.00     0.128 HD
HETATM   20  H   UNL     1      -4.083   3.164 -33.761  1.00  0.00     0.164 HD
ENDBRANCH   6  14
ENDBRANCH   5   6
ENDBRANCH   1   5
BRANCH   2  21
HETATM   21  N   UNL     1      -9.702   2.165 -32.620  1.00  0.00    -0.263 N 
HETATM   22  C   UNL     1     -10.590   3.031 -33.220  1.00  0.00     0.270 C 
HETATM   23  O   UNL     1     -10.251   4.121 -33.674  1.00  0.00    -0.266 OA
HETATM   24  H   UNL     1      -9.957   1.298 -32.151  1.00  0.00     0.190 HD
BRANCH  22  25
HETATM   25  C   UNL     1     -12.011   2.593 -33.275  1.00  0.00     0.036 A 
HETATM   26  C   UNL     1     -13.002   3.191 -32.483  1.00  0.00     0.057 A 
HETATM   27  C   UNL     1     -14.290   2.710 -32.602  1.00  0.00     0.106 A 
HETATM   28  C   UNL     1     -14.610   1.680 -33.454  1.00  0.00     0.105 A 
HETATM   29  O   UNL     1     -15.369   3.169 -31.913  1.00  0.00    -0.323 OA
HETATM   30  O   UNL     1     -15.932   1.365 -33.411  1.00  0.00    -0.323 OA
HETATM   31  C   UNL     1     -13.660   1.063 -34.236  1.00  0.00     0.041 A 
HETATM   32  C   UNL     1     -16.407   2.309 -32.429  1.00  0.00     0.352 A 
HETATM   33  C   UNL     1     -12.342   1.524 -34.139  1.00  0.00     0.020 A 
ENDBRANCH  22  25
ENDBRANCH   2  21
TORSDOF 6
ENDMDL
