MODEL 1
REMARK VINA RESULT:      -8.4      0.000      0.000
REMARK  9 active torsions:
REMARK  status: ('A' for Active; 'I' for Inactive)
REMARK    1  A    between atoms: C_2  and  O_3 
REMARK    2  A    between atoms: O_3  and  C_4 
REMARK    3  A    between atoms: C_4  and  C_5 
REMARK    4  A    between atoms: C_8  and  N_9 
REMARK       I    between atoms: N_9  and  C_10 
REMARK    5  A    between atoms: C_10  and  C_11 
REMARK       I    between atoms: C_11  and  N_12 
REMARK    6  A    between atoms: N_12  and  C_13 
REMARK    7  A    between atoms: C_13  and  C_14 
REMARK    8  A    between atoms: C_14  and  C_15 
REMARK    9  A    between atoms: C_18  and  O_19 
ROOT
HETATM    1  C   UNL     1      -5.164   3.837 -30.207  1.00  0.00     0.309 C 
HETATM    2  N   UNL     1      -4.072   4.422 -30.802  1.00  0.00    -0.352 N 
HETATM    3  O   UNL     1      -6.014   4.401 -29.531  1.00  0.00    -0.262 OA
HETATM    4  H   UNL     1      -3.451   3.800 -31.317  1.00  0.00     0.162 HD
ENDROOT
BRANCH   1   5
HETATM    5  C   UNL     1      -5.245   2.309 -30.413  1.00  0.00     0.313 C 
HETATM    6  N   UNL     1      -4.302   1.868 -31.317  1.00  0.00    -0.319 N 
HETATM    7  H   UNL     1      -3.692   2.603 -31.673  1.00  0.00     0.169 HD
HETATM    8  O   UNL     1      -6.099   1.677 -29.809  1.00  0.00    -0.262 OA
BRANCH   6   9
HETATM    9  C   UNL     1      -4.129   0.570 -31.822  1.00  0.00     0.035 A 
HETATM   10  C   UNL     1      -3.151  -0.315 -31.365  1.00  0.00     0.030 A 
HETATM   11  C   UNL     1      -3.065  -1.609 -31.894  1.00  0.00     0.020 A 
HETATM   12  C   UNL     1      -3.955  -2.033 -32.888  1.00  0.00     0.039 A 
HETATM   13  C   UNL     1      -4.927  -1.142 -33.356  1.00  0.00     0.020 A 
HETATM   14  C   UNL     1      -5.011   0.151 -32.824  1.00  0.00     0.030 A 
BRANCH  12  15
HETATM   15  C   UNL     1      -3.834  -3.427 -33.394  1.00  0.00     0.293 C 
HETATM   16  O   UNL     1      -3.226  -4.307 -32.806  1.00  0.00    -0.259 OA
BRANCH  15  17
HETATM   17  O   UNL     1      -4.494  -3.564 -34.571  1.00  0.00    -0.318 OA
BRANCH  17  18
HETATM   18  C   UNL     1      -5.318  -4.734 -34.690  1.00  0.00     0.174 C 
HETATM   19  C   UNL     1      -6.720  -4.349 -35.124  1.00  0.00     0.034 C 
ENDBRANCH  17  18
ENDBRANCH  15  17
ENDBRANCH  12  15
ENDBRANCH   6   9
ENDBRANCH   1   5
BRANCH   2  20
HETATM   20  C   UNL     1      -3.739   5.822 -30.641  1.00  0.00     0.137 C 
BRANCH  20  21
HETATM   21  C   UNL     1      -2.451   6.281 -31.375  1.00  0.00     0.003 C 
HETATM   22  C   UNL     1      -1.947   5.275 -32.443  1.00  0.00     0.016 C 
HETATM   23  C   UNL     1      -1.007   6.091 -33.332  1.00  0.00     0.001 C 
HETATM   24  C   UNL     1      -1.524   7.527 -33.264  1.00  0.00     0.001 C 
HETATM   25  C   UNL     1      -2.722   7.487 -32.314  1.00  0.00     0.016 C 
BRANCH  21  26
HETATM   26  C   UNL     1      -1.387   6.552 -30.288  1.00  0.00    -0.048 A 
HETATM   27  C   UNL     1      -0.446   5.563 -29.950  1.00  0.00     0.011 A 
HETATM   28  C   UNL     1       0.514   5.779 -28.956  1.00  0.00     0.037 A 
HETATM   29  C   UNL     1       0.553   6.979 -28.252  1.00  0.00     0.068 A 
HETATM   30  C   UNL     1      -0.388   7.961 -28.549  1.00  0.00     0.037 A 
HETATM   31  C   UNL     1      -1.348   7.747 -29.549  1.00  0.00     0.011 A 
BRANCH  29  32
HETATM   32  O   UNL     1       1.537   7.062 -27.308  1.00  0.00    -0.356 OA
HETATM   33  C   UNL     1       1.286   7.902 -26.190  1.00  0.00     0.210 C 
ENDBRANCH  29  32
ENDBRANCH  21  26
ENDBRANCH  20  21
ENDBRANCH   2  20
TORSDOF 9
ENDMDL
MODEL 2
REMARK VINA RESULT:      -8.2      2.568      9.785
REMARK  9 active torsions:
REMARK  status: ('A' for Active; 'I' for Inactive)
REMARK    1  A    between atoms: C_2  and  O_3 
REMARK    2  A    between atoms: O_3  and  C_4 
REMARK    3  A    between atoms: C_4  and  C_5 
REMARK    4  A    between atoms: C_8  and  N_9 
REMARK       I    between atoms: N_9  and  C_10 
REMARK    5  A    between atoms: C_10  and  C_11 
REMARK       I    between atoms: C_11  and  N_12 
REMARK    6  A    between atoms: N_12  and  C_13 
REMARK    7  A    between atoms: C_13  and  C_14 
REMARK    8  A    between atoms: C_14  and  C_15 
REMARK    9  A    between atoms: C_18  and  O_19 
ROOT
HETATM    1  C   UNL     1      -5.896   4.335 -33.999  1.00  0.00     0.309 C 
HETATM    2  N   UNL     1      -5.742   2.972 -34.090  1.00  0.00    -0.352 N 
HETATM    3  O   UNL     1      -6.905   4.973 -34.265  1.00  0.00    -0.262 OA
HETATM    4  H   UNL     1      -4.825   2.603 -33.847  1.00  0.00     0.162 HD
ENDROOT
BRANCH   1   5
HETATM    5  C   UNL     1      -4.618   5.079 -33.553  1.00  0.00     0.313 C 
HETATM    6  N   UNL     1      -4.254   4.735 -32.269  1.00  0.00    -0.319 N 
HETATM    7  H   UNL     1      -4.855   4.033 -31.840  1.00  0.00     0.169 HD
HETATM    8  O   UNL     1      -4.097   5.870 -34.325  1.00  0.00    -0.262 OA
BRANCH   6   9
HETATM    9  C   UNL     1      -3.209   5.266 -31.496  1.00  0.00     0.035 A 
HETATM   10  C   UNL     1      -3.372   6.317 -30.591  1.00  0.00     0.030 A 
HETATM   11  C   UNL     1      -2.288   6.767 -29.828  1.00  0.00     0.020 A 
HETATM   12  C   UNL     1      -1.027   6.173 -29.961  1.00  0.00     0.039 A 
HETATM   13  C   UNL     1      -0.860   5.129 -30.877  1.00  0.00     0.020 A 
HETATM   14  C   UNL     1      -1.946   4.681 -31.638  1.00  0.00     0.030 A 
BRANCH  12  15
HETATM   15  C   UNL     1       0.083   6.675 -29.105  1.00  0.00     0.293 C 
HETATM   16  O   UNL     1       0.804   7.609 -29.417  1.00  0.00    -0.259 OA
BRANCH  15  17
HETATM   17  O   UNL     1       0.157   5.960 -27.955  1.00  0.00    -0.318 OA
BRANCH  17  18
HETATM   18  C   UNL     1      -0.066   6.700 -26.745  1.00  0.00     0.174 C 
HETATM   19  C   UNL     1      -1.426   6.362 -26.164  1.00  0.00     0.034 C 
ENDBRANCH  17  18
ENDBRANCH  15  17
ENDBRANCH  12  15
ENDBRANCH   6   9
ENDBRANCH   1   5
BRANCH   2  20
HETATM   20  C   UNL     1      -6.775   2.093 -34.598  1.00  0.00     0.137 C 
BRANCH  20  21
HETATM   21  C   UNL     1      -7.317   1.055 -33.579  1.00  0.00     0.003 C 
HETATM   22  C   UNL     1      -7.253   1.534 -32.105  1.00  0.00     0.016 C 
HETATM   23  C   UNL     1      -8.223   0.619 -31.356  1.00  0.00     0.001 C 
HETATM   24  C   UNL     1      -9.277   0.213 -32.385  1.00  0.00     0.001 C 
HETATM   25  C   UNL     1      -8.855   0.886 -33.692  1.00  0.00     0.016 C 
BRANCH  21  26
HETATM   26  C   UNL     1      -6.518  -0.249 -33.798  1.00  0.00    -0.048 A 
HETATM   27  C   UNL     1      -5.248  -0.413 -33.216  1.00  0.00     0.011 A 
HETATM   28  C   UNL     1      -4.499  -1.577 -33.417  1.00  0.00     0.037 A 
HETATM   29  C   UNL     1      -4.982  -2.605 -34.221  1.00  0.00     0.068 A 
HETATM   30  C   UNL     1      -6.223  -2.451 -34.832  1.00  0.00     0.037 A 
HETATM   31  C   UNL     1      -6.977  -1.286 -34.628  1.00  0.00     0.011 A 
BRANCH  29  32
HETATM   32  O   UNL     1      -4.153  -3.685 -34.336  1.00  0.00    -0.356 OA
HETATM   33  C   UNL     1      -4.761  -4.969 -34.298  1.00  0.00     0.210 C 
ENDBRANCH  29  32
ENDBRANCH  21  26
ENDBRANCH  20  21
ENDBRANCH   2  20
TORSDOF 9
ENDMDL
MODEL 3
REMARK VINA RESULT:      -8.1      2.650      9.816
REMARK  9 active torsions:
REMARK  status: ('A' for Active; 'I' for Inactive)
REMARK    1  A    between atoms: C_2  and  O_3 
REMARK    2  A    between atoms: O_3  and  C_4 
REMARK    3  A    between atoms: C_4  and  C_5 
REMARK    4  A    between atoms: C_8  and  N_9 
REMARK       I    between atoms: N_9  and  C_10 
REMARK    5  A    between atoms: C_10  and  C_11 
REMARK       I    between atoms: C_11  and  N_12 
REMARK    6  A    between atoms: N_12  and  C_13 
REMARK    7  A    between atoms: C_13  and  C_14 
REMARK    8  A    between atoms: C_14  and  C_15 
REMARK    9  A    between atoms: C_18  and  O_19 
ROOT
HETATM    1  C   UNL     1      -3.876   5.317 -34.445  1.00  0.00     0.309 C 
HETATM    2  N   UNL     1      -4.703   4.592 -33.621  1.00  0.00    -0.352 N 
HETATM    3  O   UNL     1      -3.938   5.383 -35.665  1.00  0.00    -0.262 OA
HETATM    4  H   UNL     1      -4.499   4.634 -32.625  1.00  0.00     0.162 HD
ENDROOT
BRANCH   1   5
HETATM    5  C   UNL     1      -2.750   6.066 -33.698  1.00  0.00     0.313 C 
HETATM    6  N   UNL     1      -2.662   5.667 -32.382  1.00  0.00    -0.319 N 
HETATM    7  H   UNL     1      -3.319   4.930 -32.126  1.00  0.00     0.169 HD
HETATM    8  O   UNL     1      -2.100   6.907 -34.302  1.00  0.00    -0.262 OA
BRANCH   6   9
HETATM    9  C   UNL     1      -1.828   6.181 -31.377  1.00  0.00     0.035 A 
HETATM   10  C   UNL     1      -1.936   7.477 -30.868  1.00  0.00     0.030 A 
HETATM   11  C   UNL     1      -1.090   7.905 -29.838  1.00  0.00     0.020 A 
HETATM   12  C   UNL     1      -0.124   7.043 -29.304  1.00  0.00     0.039 A 
HETATM   13  C   UNL     1      -0.006   5.749 -29.823  1.00  0.00     0.020 A 
HETATM   14  C   UNL     1      -0.854   5.324 -30.852  1.00  0.00     0.030 A 
BRANCH  12  15
HETATM   15  C   UNL     1       0.730   7.543 -28.193  1.00  0.00     0.293 C 
HETATM   16  O   UNL     1       1.564   8.425 -28.328  1.00  0.00    -0.259 OA
BRANCH  15  17
HETATM   17  O   UNL     1       0.438   6.892 -27.039  1.00  0.00    -0.318 OA
BRANCH  17  18
HETATM   18  C   UNL     1      -0.586   7.489 -26.229  1.00  0.00     0.174 C 
HETATM   19  C   UNL     1      -1.737   6.520 -26.036  1.00  0.00     0.034 C 
ENDBRANCH  17  18
ENDBRANCH  15  17
ENDBRANCH  12  15
ENDBRANCH   6   9
ENDBRANCH   1   5
BRANCH   2  20
HETATM   20  C   UNL     1      -5.751   3.725 -34.119  1.00  0.00     0.137 C 
BRANCH  20  21
HETATM   21  C   UNL     1      -6.415   2.815 -33.052  1.00  0.00     0.003 C 
HETATM   22  C   UNL     1      -5.763   2.919 -31.647  1.00  0.00     0.016 C 
HETATM   23  C   UNL     1      -6.809   2.346 -30.690  1.00  0.00     0.001 C 
HETATM   24  C   UNL     1      -8.160   2.619 -31.351  1.00  0.00     0.001 C 
HETATM   25  C   UNL     1      -7.837   3.310 -32.676  1.00  0.00     0.016 C 
BRANCH  21  26
HETATM   26  C   UNL     1      -6.373   1.372 -33.603  1.00  0.00    -0.048 A 
HETATM   27  C   UNL     1      -5.344   0.492 -33.218  1.00  0.00     0.011 A 
HETATM   28  C   UNL     1      -5.275  -0.812 -33.719  1.00  0.00     0.037 A 
HETATM   29  C   UNL     1      -6.215  -1.273 -34.636  1.00  0.00     0.068 A 
HETATM   30  C   UNL     1      -7.224  -0.410 -35.054  1.00  0.00     0.037 A 
HETATM   31  C   UNL     1      -7.297   0.896 -34.548  1.00  0.00     0.011 A 
BRANCH  29  32
HETATM   32  O   UNL     1      -6.034  -2.564 -35.048  1.00  0.00    -0.356 OA
HETATM   33  C   UNL     1      -4.834  -3.206 -34.639  1.00  0.00     0.210 C 
ENDBRANCH  29  32
ENDBRANCH  21  26
ENDBRANCH  20  21
ENDBRANCH   2  20
TORSDOF 9
ENDMDL
MODEL 4
REMARK VINA RESULT:      -8.0      2.387      4.251
REMARK  9 active torsions:
REMARK  status: ('A' for Active; 'I' for Inactive)
REMARK    1  A    between atoms: C_2  and  O_3 
REMARK    2  A    between atoms: O_3  and  C_4 
REMARK    3  A    between atoms: C_4  and  C_5 
REMARK    4  A    between atoms: C_8  and  N_9 
REMARK       I    between atoms: N_9  and  C_10 
REMARK    5  A    between atoms: C_10  and  C_11 
REMARK       I    between atoms: C_11  and  N_12 
REMARK    6  A    between atoms: N_12  and  C_13 
REMARK    7  A    between atoms: C_13  and  C_14 
REMARK    8  A    between atoms: C_14  and  C_15 
REMARK    9  A    between atoms: C_18  and  O_19 
ROOT
HETATM    1  C   UNL     1      -5.046   6.304 -28.870  1.00  0.00     0.309 C 
HETATM    2  N   UNL     1      -3.688   6.392 -29.063  1.00  0.00    -0.352 N 
HETATM    3  O   UNL     1      -5.737   7.060 -28.201  1.00  0.00    -0.262 OA
HETATM    4  H   UNL     1      -3.264   5.665 -29.637  1.00  0.00     0.162 HD
ENDROOT
BRANCH   1   5
HETATM    5  C   UNL     1      -5.697   5.084 -29.558  1.00  0.00     0.313 C 
HETATM    6  N   UNL     1      -4.782   4.076 -29.775  1.00  0.00    -0.319 N 
HETATM    7  H   UNL     1      -3.847   4.280 -29.424  1.00  0.00     0.169 HD
HETATM    8  O   UNL     1      -6.883   5.134 -29.847  1.00  0.00    -0.262 OA
BRANCH   6   9
HETATM    9  C   UNL     1      -4.978   2.861 -30.450  1.00  0.00     0.035 A 
HETATM   10  C   UNL     1      -5.699   1.789 -29.921  1.00  0.00     0.030 A 
HETATM   11  C   UNL     1      -5.883   0.621 -30.671  1.00  0.00     0.020 A 
HETATM   12  C   UNL     1      -5.347   0.511 -31.960  1.00  0.00     0.039 A 
HETATM   13  C   UNL     1      -4.614   1.579 -32.486  1.00  0.00     0.020 A 
HETATM   14  C   UNL     1      -4.432   2.746 -31.733  1.00  0.00     0.030 A 
BRANCH  12  15
HETATM   15  C   UNL     1      -5.596  -0.743 -32.722  1.00  0.00     0.293 C 
HETATM   16  O   UNL     1      -4.736  -1.581 -32.940  1.00  0.00    -0.259 OA
BRANCH  15  17
HETATM   17  O   UNL     1      -6.892  -0.811 -33.116  1.00  0.00    -0.318 OA
BRANCH  17  18
HETATM   18  C   UNL     1      -7.107  -1.031 -34.518  1.00  0.00     0.174 C 
HETATM   19  C   UNL     1      -7.062   0.286 -35.271  1.00  0.00     0.034 C 
ENDBRANCH  17  18
ENDBRANCH  15  17
ENDBRANCH  12  15
ENDBRANCH   6   9
ENDBRANCH   1   5
BRANCH   2  20
HETATM   20  C   UNL     1      -2.861   7.389 -28.415  1.00  0.00     0.137 C 
BRANCH  20  21
HETATM   21  C   UNL     1      -1.349   7.315 -28.759  1.00  0.00     0.003 C 
HETATM   22  C   UNL     1      -0.552   8.584 -28.355  1.00  0.00     0.016 C 
HETATM   23  C   UNL     1       0.910   8.136 -28.338  1.00  0.00     0.001 C 
HETATM   24  C   UNL     1       0.876   6.646 -27.999  1.00  0.00     0.001 C 
HETATM   25  C   UNL     1      -0.605   6.289 -27.865  1.00  0.00     0.016 C 
BRANCH  21  26
HETATM   26  C   UNL     1      -1.247   7.027 -30.273  1.00  0.00    -0.048 A 
HETATM   27  C   UNL     1      -1.567   8.025 -31.212  1.00  0.00     0.011 A 
HETATM   28  C   UNL     1      -1.500   7.780 -32.588  1.00  0.00     0.037 A 
HETATM   29  C   UNL     1      -1.134   6.528 -33.071  1.00  0.00     0.068 A 
HETATM   30  C   UNL     1      -0.842   5.516 -32.160  1.00  0.00     0.037 A 
HETATM   31  C   UNL     1      -0.905   5.762 -30.781  1.00  0.00     0.011 A 
BRANCH  29  32
HETATM   32  O   UNL     1      -1.109   6.420 -34.434  1.00  0.00    -0.356 OA
HETATM   33  C   UNL     1      -1.524   5.179 -34.988  1.00  0.00     0.210 C 
ENDBRANCH  29  32
ENDBRANCH  21  26
ENDBRANCH  20  21
ENDBRANCH   2  20
TORSDOF 9
ENDMDL
MODEL 5
REMARK VINA RESULT:      -8.0      6.340     10.260
REMARK  9 active torsions:
REMARK  status: ('A' for Active; 'I' for Inactive)
REMARK    1  A    between atoms: C_2  and  O_3 
REMARK    2  A    between atoms: O_3  and  C_4 
REMARK    3  A    between atoms: C_4  and  C_5 
REMARK    4  A    between atoms: C_8  and  N_9 
REMARK       I    between atoms: N_9  and  C_10 
REMARK    5  A    between atoms: C_10  and  C_11 
REMARK       I    between atoms: C_11  and  N_12 
REMARK    6  A    between atoms: N_12  and  C_13 
REMARK    7  A    between atoms: C_13  and  C_14 
REMARK    8  A    between atoms: C_14  and  C_15 
REMARK    9  A    between atoms: C_18  and  O_19 
ROOT
HETATM    1  C   UNL     1      -7.853   3.738 -33.923  1.00  0.00     0.309 C 
HETATM    2  N   UNL     1      -7.434   2.438 -33.763  1.00  0.00    -0.352 N 
HETATM    3  O   UNL     1      -7.139   4.729 -33.997  1.00  0.00    -0.262 OA
HETATM    4  H   UNL     1      -8.165   1.732 -33.701  1.00  0.00     0.162 HD
ENDROOT
BRANCH   1   5
HETATM    5  C   UNL     1      -9.388   3.899 -33.962  1.00  0.00     0.313 C 
HETATM    6  N   UNL     1     -10.019   2.930 -33.212  1.00  0.00    -0.319 N 
HETATM    7  H   UNL     1      -9.383   2.295 -32.733  1.00  0.00     0.169 HD
HETATM    8  O   UNL     1      -9.869   4.802 -34.631  1.00  0.00    -0.262 OA
BRANCH   6   9
HETATM    9  C   UNL     1     -11.398   2.701 -33.080  1.00  0.00     0.035 A 
HETATM   10  C   UNL     1     -12.255   3.527 -32.350  1.00  0.00     0.030 A 
HETATM   11  C   UNL     1     -13.627   3.252 -32.296  1.00  0.00     0.020 A 
HETATM   12  C   UNL     1     -14.159   2.147 -32.971  1.00  0.00     0.039 A 
HETATM   13  C   UNL     1     -13.299   1.311 -33.691  1.00  0.00     0.020 A 
HETATM   14  C   UNL     1     -11.928   1.589 -33.744  1.00  0.00     0.030 A 
BRANCH  12  15
HETATM   15  C   UNL     1     -15.628   1.918 -32.900  1.00  0.00     0.293 C 
HETATM   16  O   UNL     1     -16.250   1.275 -33.731  1.00  0.00    -0.259 OA
BRANCH  15  17
HETATM   17  O   UNL     1     -16.149   2.509 -31.796  1.00  0.00    -0.318 OA
BRANCH  17  18
HETATM   18  C   UNL     1     -17.570   2.712 -31.811  1.00  0.00     0.174 C 
HETATM   19  C   UNL     1     -17.894   4.148 -32.179  1.00  0.00     0.034 C 
ENDBRANCH  17  18
ENDBRANCH  15  17
ENDBRANCH  12  15
ENDBRANCH   6   9
ENDBRANCH   1   5
BRANCH   2  20
HETATM   20  C   UNL     1      -6.044   2.072 -33.586  1.00  0.00     0.137 C 
BRANCH  20  21
HETATM   21  C   UNL     1      -5.779   1.001 -32.495  1.00  0.00     0.003 C 
HETATM   22  C   UNL     1      -4.559   1.317 -31.590  1.00  0.00     0.016 C 
HETATM   23  C   UNL     1      -4.755   0.440 -30.352  1.00  0.00     0.001 C 
HETATM   24  C   UNL     1      -6.267   0.257 -30.217  1.00  0.00     0.001 C 
HETATM   25  C   UNL     1      -6.878   1.010 -31.400  1.00  0.00     0.016 C 
BRANCH  21  26
HETATM   26  C   UNL     1      -5.623  -0.353 -33.224  1.00  0.00    -0.048 A 
HETATM   27  C   UNL     1      -6.758  -1.074 -33.637  1.00  0.00     0.011 A 
HETATM   28  C   UNL     1      -6.641  -2.310 -34.281  1.00  0.00     0.037 A 
HETATM   29  C   UNL     1      -5.392  -2.877 -34.514  1.00  0.00     0.068 A 
HETATM   30  C   UNL     1      -4.256  -2.195 -34.087  1.00  0.00     0.037 A 
HETATM   31  C   UNL     1      -4.372  -0.953 -33.444  1.00  0.00     0.011 A 
BRANCH  29  32
HETATM   32  O   UNL     1      -5.416  -4.086 -35.150  1.00  0.00    -0.356 OA
HETATM   33  C   UNL     1      -6.694  -4.618 -35.470  1.00  0.00     0.210 C 
ENDBRANCH  29  32
ENDBRANCH  21  26
ENDBRANCH  20  21
ENDBRANCH   2  20
TORSDOF 9
ENDMDL
MODEL 6
REMARK VINA RESULT:      -7.9      2.341     10.616
REMARK  9 active torsions:
REMARK  status: ('A' for Active; 'I' for Inactive)
REMARK    1  A    between atoms: C_2  and  O_3 
REMARK    2  A    between atoms: O_3  and  C_4 
REMARK    3  A    between atoms: C_4  and  C_5 
REMARK    4  A    between atoms: C_8  and  N_9 
REMARK       I    between atoms: N_9  and  C_10 
REMARK    5  A    between atoms: C_10  and  C_11 
REMARK       I    between atoms: C_11  and  N_12 
REMARK    6  A    between atoms: N_12  and  C_13 
REMARK    7  A    between atoms: C_13  and  C_14 
REMARK    8  A    between atoms: C_14  and  C_15 
REMARK    9  A    between atoms: C_18  and  O_19 
ROOT
HETATM    1  C   UNL     1      -2.032   4.699 -31.523  1.00  0.00     0.309 C 
HETATM    2  N   UNL     1      -3.026   3.928 -30.969  1.00  0.00    -0.352 N 
HETATM    3  O   UNL     1      -1.451   4.488 -32.580  1.00  0.00    -0.262 OA
HETATM    4  H   UNL     1      -3.390   4.238 -30.070  1.00  0.00     0.162 HD
ENDROOT
BRANCH   1   5
HETATM    5  C   UNL     1      -1.624   5.911 -30.658  1.00  0.00     0.313 C 
HETATM    6  N   UNL     1      -0.550   5.615 -29.846  1.00  0.00    -0.319 N 
HETATM    7  H   UNL     1      -0.183   4.672 -29.968  1.00  0.00     0.169 HD
HETATM    8  O   UNL     1      -2.266   6.946 -30.752  1.00  0.00    -0.262 OA
BRANCH   6   9
HETATM    9  C   UNL     1       0.042   6.427 -28.865  1.00  0.00     0.035 A 
HETATM   10  C   UNL     1       0.765   7.586 -29.153  1.00  0.00     0.030 A 
HETATM   11  C   UNL     1       1.294   8.365 -28.116  1.00  0.00     0.020 A 
HETATM   12  C   UNL     1       1.108   7.993 -26.779  1.00  0.00     0.039 A 
HETATM   13  C   UNL     1       0.396   6.824 -26.491  1.00  0.00     0.020 A 
HETATM   14  C   UNL     1      -0.133   6.049 -27.530  1.00  0.00     0.030 A 
BRANCH  12  15
HETATM   15  C   UNL     1       1.670   8.872 -25.718  1.00  0.00     0.293 C 
HETATM   16  O   UNL     1       2.704   8.626 -25.117  1.00  0.00    -0.259 OA
BRANCH  15  17
HETATM   17  O   UNL     1       0.883   9.961 -25.536  1.00  0.00    -0.318 OA
BRANCH  17  18
HETATM   18  C   UNL     1      -0.023   9.896 -24.425  1.00  0.00     0.174 C 
HETATM   19  C   UNL     1      -1.458   9.844 -24.916  1.00  0.00     0.034 C 
ENDBRANCH  17  18
ENDBRANCH  15  17
ENDBRANCH  12  15
ENDBRANCH   6   9
ENDBRANCH   1   5
BRANCH   2  20
HETATM   20  C   UNL     1      -3.481   2.684 -31.554  1.00  0.00     0.137 C 
BRANCH  20  21
HETATM   21  C   UNL     1      -5.010   2.434 -31.464  1.00  0.00     0.003 C 
HETATM   22  C   UNL     1      -5.523   2.205 -30.018  1.00  0.00     0.016 C 
HETATM   23  C   UNL     1      -7.030   2.448 -30.097  1.00  0.00     0.001 C 
HETATM   24  C   UNL     1      -7.224   3.446 -31.238  1.00  0.00     0.001 C 
HETATM   25  C   UNL     1      -5.823   3.714 -31.790  1.00  0.00     0.016 C 
BRANCH  21  26
HETATM   26  C   UNL     1      -5.323   1.233 -32.385  1.00  0.00    -0.048 A 
HETATM   27  C   UNL     1      -6.055   1.419 -33.573  1.00  0.00     0.011 A 
HETATM   28  C   UNL     1      -6.367   0.343 -34.411  1.00  0.00     0.037 A 
HETATM   29  C   UNL     1      -5.979  -0.952 -34.083  1.00  0.00     0.068 A 
HETATM   30  C   UNL     1      -5.280  -1.163 -32.898  1.00  0.00     0.037 A 
HETATM   31  C   UNL     1      -4.963  -0.085 -32.059  1.00  0.00     0.011 A 
BRANCH  29  32
HETATM   32  O   UNL     1      -6.347  -1.910 -34.986  1.00  0.00    -0.356 OA
HETATM   33  C   UNL     1      -5.660  -3.153 -34.920  1.00  0.00     0.210 C 
ENDBRANCH  29  32
ENDBRANCH  21  26
ENDBRANCH  20  21
ENDBRANCH   2  20
TORSDOF 9
ENDMDL
MODEL 7
REMARK VINA RESULT:      -7.8      2.233     10.343
REMARK  9 active torsions:
REMARK  status: ('A' for Active; 'I' for Inactive)
REMARK    1  A    between atoms: C_2  and  O_3 
REMARK    2  A    between atoms: O_3  and  C_4 
REMARK    3  A    between atoms: C_4  and  C_5 
REMARK    4  A    between atoms: C_8  and  N_9 
REMARK       I    between atoms: N_9  and  C_10 
REMARK    5  A    between atoms: C_10  and  C_11 
REMARK       I    between atoms: C_11  and  N_12 
REMARK    6  A    between atoms: N_12  and  C_13 
REMARK    7  A    between atoms: C_13  and  C_14 
REMARK    8  A    between atoms: C_14  and  C_15 
REMARK    9  A    between atoms: C_18  and  O_19 
ROOT
HETATM    1  C   UNL     1      -4.610   4.530 -33.878  1.00  0.00     0.309 C 
HETATM    2  N   UNL     1      -4.809   3.436 -33.071  1.00  0.00    -0.352 N 
HETATM    3  O   UNL     1      -5.099   4.718 -34.984  1.00  0.00    -0.262 OA
HETATM    4  H   UNL     1      -4.308   3.430 -32.184  1.00  0.00     0.162 HD
ENDROOT
BRANCH   1   5
HETATM    5  C   UNL     1      -3.628   5.568 -33.293  1.00  0.00     0.313 C 
HETATM    6  N   UNL     1      -3.332   5.299 -31.973  1.00  0.00    -0.319 N 
HETATM    7  H   UNL     1      -3.775   4.455 -31.612  1.00  0.00     0.169 HD
HETATM    8  O   UNL     1      -3.246   6.486 -34.004  1.00  0.00    -0.262 OA
BRANCH   6   9
HETATM    9  C   UNL     1      -2.555   6.063 -31.088  1.00  0.00     0.035 A 
HETATM   10  C   UNL     1      -1.173   6.223 -31.212  1.00  0.00     0.030 A 
HETATM   11  C   UNL     1      -0.472   7.032 -30.309  1.00  0.00     0.020 A 
HETATM   12  C   UNL     1      -1.144   7.690 -29.271  1.00  0.00     0.039 A 
HETATM   13  C   UNL     1      -2.525   7.518 -29.138  1.00  0.00     0.020 A 
HETATM   14  C   UNL     1      -3.224   6.709 -30.043  1.00  0.00     0.030 A 
BRANCH  12  15
HETATM   15  C   UNL     1      -0.352   8.558 -28.358  1.00  0.00     0.293 C 
HETATM   16  O   UNL     1      -0.758   9.622 -27.920  1.00  0.00    -0.259 OA
BRANCH  15  17
HETATM   17  O   UNL     1       0.851   7.992 -28.089  1.00  0.00    -0.318 OA
BRANCH  17  18
HETATM   18  C   UNL     1       1.813   8.848 -27.454  1.00  0.00     0.174 C 
HETATM   19  C   UNL     1       2.054   8.401 -26.024  1.00  0.00     0.034 C 
ENDBRANCH  17  18
ENDBRANCH  15  17
ENDBRANCH  12  15
ENDBRANCH   6   9
ENDBRANCH   1   5
BRANCH   2  20
HETATM   20  C   UNL     1      -5.599   2.290 -33.473  1.00  0.00     0.137 C 
BRANCH  20  21
HETATM   21  C   UNL     1      -5.696   1.154 -32.420  1.00  0.00     0.003 C 
HETATM   22  C   UNL     1      -4.534   1.154 -31.391  1.00  0.00     0.016 C 
HETATM   23  C   UNL     1      -5.048   0.309 -30.224  1.00  0.00     0.001 C 
HETATM   24  C   UNL     1      -6.568   0.474 -30.240  1.00  0.00     0.001 C 
HETATM   25  C   UNL     1      -6.870   1.382 -31.432  1.00  0.00     0.016 C 
BRANCH  21  26
HETATM   26  C   UNL     1      -5.775  -0.177 -33.201  1.00  0.00    -0.048 A 
HETATM   27  C   UNL     1      -4.623  -0.963 -33.388  1.00  0.00     0.011 A 
HETATM   28  C   UNL     1      -4.668  -2.161 -34.108  1.00  0.00     0.037 A 
HETATM   29  C   UNL     1      -5.856  -2.603 -34.683  1.00  0.00     0.068 A 
HETATM   30  C   UNL     1      -7.001  -1.826 -34.537  1.00  0.00     0.037 A 
HETATM   31  C   UNL     1      -6.958  -0.626 -33.811  1.00  0.00     0.011 A 
BRANCH  29  32
HETATM   32  O   UNL     1      -5.763  -3.786 -35.361  1.00  0.00    -0.356 OA
HETATM   33  C   UNL     1      -5.218  -4.891 -34.653  1.00  0.00     0.210 C 
ENDBRANCH  29  32
ENDBRANCH  21  26
ENDBRANCH  20  21
ENDBRANCH   2  20
TORSDOF 9
ENDMDL
MODEL 8
REMARK VINA RESULT:      -7.7      3.082      5.398
REMARK  9 active torsions:
REMARK  status: ('A' for Active; 'I' for Inactive)
REMARK    1  A    between atoms: C_2  and  O_3 
REMARK    2  A    between atoms: O_3  and  C_4 
REMARK    3  A    between atoms: C_4  and  C_5 
REMARK    4  A    between atoms: C_8  and  N_9 
REMARK       I    between atoms: N_9  and  C_10 
REMARK    5  A    between atoms: C_10  and  C_11 
REMARK       I    between atoms: C_11  and  N_12 
REMARK    6  A    between atoms: N_12  and  C_13 
REMARK    7  A    between atoms: C_13  and  C_14 
REMARK    8  A    between atoms: C_14  and  C_15 
REMARK    9  A    between atoms: C_18  and  O_19 
ROOT
HETATM    1  C   UNL     1       0.012   4.988 -30.574  1.00  0.00     0.309 C 
HETATM    2  N   UNL     1      -0.349   5.395 -29.312  1.00  0.00    -0.352 N 
HETATM    3  O   UNL     1       1.150   4.772 -30.972  1.00  0.00    -0.262 OA
HETATM    4  H   UNL     1      -1.343   5.548 -29.154  1.00  0.00     0.162 HD
ENDROOT
BRANCH   1   5
HETATM    5  C   UNL     1      -1.176   4.849 -31.550  1.00  0.00     0.313 C 
HETATM    6  N   UNL     1      -2.187   4.083 -31.012  1.00  0.00    -0.319 N 
HETATM    7  H   UNL     1      -2.007   3.764 -30.061  1.00  0.00     0.169 HD
HETATM    8  O   UNL     1      -1.102   5.381 -32.648  1.00  0.00    -0.262 OA
BRANCH   6   9
HETATM    9  C   UNL     1      -3.377   3.665 -31.629  1.00  0.00     0.035 A 
HETATM   10  C   UNL     1      -4.432   4.526 -31.941  1.00  0.00     0.030 A 
HETATM   11  C   UNL     1      -5.573   4.040 -32.591  1.00  0.00     0.020 A 
HETATM   12  C   UNL     1      -5.674   2.687 -32.936  1.00  0.00     0.039 A 
HETATM   13  C   UNL     1      -4.625   1.822 -32.612  1.00  0.00     0.020 A 
HETATM   14  C   UNL     1      -3.484   2.311 -31.963  1.00  0.00     0.030 A 
BRANCH  12  15
HETATM   15  C   UNL     1      -6.899   2.232 -33.649  1.00  0.00     0.293 C 
HETATM   16  O   UNL     1      -8.032   2.453 -33.251  1.00  0.00    -0.259 OA
BRANCH  15  17
HETATM   17  O   UNL     1      -6.568   1.561 -34.780  1.00  0.00    -0.318 OA
BRANCH  17  18
HETATM   18  C   UNL     1      -7.414   0.450 -35.115  1.00  0.00     0.174 C 
HETATM   19  C   UNL     1      -6.723  -0.858 -34.776  1.00  0.00     0.034 C 
ENDBRANCH  17  18
ENDBRANCH  15  17
ENDBRANCH  12  15
ENDBRANCH   6   9
ENDBRANCH   1   5
BRANCH   2  20
HETATM   20  C   UNL     1       0.615   5.699 -28.274  1.00  0.00     0.137 C 
BRANCH  20  21
HETATM   21  C   UNL     1       0.456   7.096 -27.617  1.00  0.00     0.003 C 
HETATM   22  C   UNL     1       1.271   7.269 -26.308  1.00  0.00     0.016 C 
HETATM   23  C   UNL     1       1.355   8.781 -26.099  1.00  0.00     0.001 C 
HETATM   24  C   UNL     1       1.291   9.391 -27.499  1.00  0.00     0.001 C 
HETATM   25  C   UNL     1       1.142   8.207 -28.455  1.00  0.00     0.016 C 
BRANCH  21  26
HETATM   26  C   UNL     1      -1.056   7.317 -27.390  1.00  0.00    -0.048 A 
HETATM   27  C   UNL     1      -1.703   6.736 -26.284  1.00  0.00     0.011 A 
HETATM   28  C   UNL     1      -3.074   6.906 -26.069  1.00  0.00     0.037 A 
HETATM   29  C   UNL     1      -3.849   7.642 -26.961  1.00  0.00     0.068 A 
HETATM   30  C   UNL     1      -3.236   8.201 -28.079  1.00  0.00     0.037 A 
HETATM   31  C   UNL     1      -1.860   8.034 -28.293  1.00  0.00     0.011 A 
BRANCH  29  32
HETATM   32  O   UNL     1      -5.174   7.731 -26.637  1.00  0.00    -0.356 OA
HETATM   33  C   UNL     1      -6.102   7.693 -27.712  1.00  0.00     0.210 C 
ENDBRANCH  29  32
ENDBRANCH  21  26
ENDBRANCH  20  21
ENDBRANCH   2  20
TORSDOF 9
ENDMDL
MODEL 9
REMARK VINA RESULT:      -7.6     18.172     20.021
REMARK  9 active torsions:
REMARK  status: ('A' for Active; 'I' for Inactive)
REMARK    1  A    between atoms: C_2  and  O_3 
REMARK    2  A    between atoms: O_3  and  C_4 
REMARK    3  A    between atoms: C_4  and  C_5 
REMARK    4  A    between atoms: C_8  and  N_9 
REMARK       I    between atoms: N_9  and  C_10 
REMARK    5  A    between atoms: C_10  and  C_11 
REMARK       I    between atoms: C_11  and  N_12 
REMARK    6  A    between atoms: N_12  and  C_13 
REMARK    7  A    between atoms: C_13  and  C_14 
REMARK    8  A    between atoms: C_14  and  C_15 
REMARK    9  A    between atoms: C_18  and  O_19 
ROOT
HETATM    1  C   UNL     1      -5.213 -12.553 -40.153  1.00  0.00     0.309 C 
HETATM    2  N   UNL     1      -5.912 -13.718 -40.361  1.00  0.00    -0.352 N 
HETATM    3  O   UNL     1      -5.556 -11.428 -40.489  1.00  0.00    -0.262 OA
HETATM    4  H   UNL     1      -5.472 -14.575 -40.032  1.00  0.00     0.162 HD
ENDROOT
BRANCH   1   5
HETATM    5  C   UNL     1      -3.849 -12.759 -39.458  1.00  0.00     0.313 C 
HETATM    6  N   UNL     1      -3.009 -13.547 -40.215  1.00  0.00    -0.319 N 
HETATM    7  H   UNL     1      -3.402 -13.835 -41.110  1.00  0.00     0.169 HD
HETATM    8  O   UNL     1      -3.663 -12.253 -38.362  1.00  0.00    -0.262 OA
BRANCH   6   9
HETATM    9  C   UNL     1      -1.732 -14.022 -39.877  1.00  0.00     0.035 A 
HETATM   10  C   UNL     1      -0.882 -13.384 -38.971  1.00  0.00     0.030 A 
HETATM   11  C   UNL     1       0.364 -13.940 -38.657  1.00  0.00     0.020 A 
HETATM   12  C   UNL     1       0.777 -15.141 -39.245  1.00  0.00     0.039 A 
HETATM   13  C   UNL     1      -0.068 -15.775 -40.163  1.00  0.00     0.020 A 
HETATM   14  C   UNL     1      -1.314 -15.216 -40.474  1.00  0.00     0.030 A 
BRANCH  12  15
HETATM   15  C   UNL     1       2.099 -15.700 -38.854  1.00  0.00     0.293 C 
HETATM   16  O   UNL     1       2.910 -16.137 -39.657  1.00  0.00    -0.259 OA
BRANCH  15  17
HETATM   17  O   UNL     1       2.262 -15.641 -37.510  1.00  0.00    -0.318 OA
BRANCH  17  18
HETATM   18  C   UNL     1       1.755 -16.762 -36.771  1.00  0.00     0.174 C 
HETATM   19  C   UNL     1       0.763 -16.297 -35.721  1.00  0.00     0.034 C 
ENDBRANCH  17  18
ENDBRANCH  15  17
ENDBRANCH  12  15
ENDBRANCH   6   9
ENDBRANCH   1   5
BRANCH   2  20
HETATM   20  C   UNL     1      -7.159 -13.770 -41.097  1.00  0.00     0.137 C 
BRANCH  20  21
HETATM   21  C   UNL     1      -8.439 -13.623 -40.232  1.00  0.00     0.003 C 
HETATM   22  C   UNL     1      -9.051 -12.197 -40.257  1.00  0.00     0.016 C 
HETATM   23  C   UNL     1     -10.487 -12.381 -39.764  1.00  0.00     0.001 C 
HETATM   24  C   UNL     1     -10.877 -13.803 -40.164  1.00  0.00     0.001 C 
HETATM   25  C   UNL     1      -9.640 -14.392 -40.844  1.00  0.00     0.016 C 
BRANCH  21  26
HETATM   26  C   UNL     1      -8.067 -14.067 -38.800  1.00  0.00    -0.048 A 
HETATM   27  C   UNL     1      -7.709 -13.114 -37.828  1.00  0.00     0.011 A 
HETATM   28  C   UNL     1      -7.350 -13.495 -36.531  1.00  0.00     0.037 A 
HETATM   29  C   UNL     1      -7.316 -14.838 -36.167  1.00  0.00     0.068 A 
HETATM   30  C   UNL     1      -7.637 -15.800 -37.120  1.00  0.00     0.037 A 
HETATM   31  C   UNL     1      -8.001 -15.418 -38.420  1.00  0.00     0.011 A 
BRANCH  29  32
HETATM   32  O   UNL     1      -6.948 -15.075 -34.872  1.00  0.00    -0.356 OA
HETATM   33  C   UNL     1      -7.015 -13.976 -33.974  1.00  0.00     0.210 C 
ENDBRANCH  29  32
ENDBRANCH  21  26
ENDBRANCH  20  21
ENDBRANCH   2  20
TORSDOF 9
ENDMDL
MODEL 10
REMARK VINA RESULT:      -7.4      2.377      4.076
REMARK  9 active torsions:
REMARK  status: ('A' for Active; 'I' for Inactive)
REMARK    1  A    between atoms: C_2  and  O_3 
REMARK    2  A    between atoms: O_3  and  C_4 
REMARK    3  A    between atoms: C_4  and  C_5 
REMARK    4  A    between atoms: C_8  and  N_9 
REMARK       I    between atoms: N_9  and  C_10 
REMARK    5  A    between atoms: C_10  and  C_11 
REMARK       I    between atoms: C_11  and  N_12 
REMARK    6  A    between atoms: N_12  and  C_13 
REMARK    7  A    between atoms: C_13  and  C_14 
REMARK    8  A    between atoms: C_14  and  C_15 
REMARK    9  A    between atoms: C_18  and  O_19 
ROOT
HETATM    1  C   UNL     1      -0.941   5.206 -31.230  1.00  0.00     0.309 C 
HETATM    2  N   UNL     1      -1.409   6.444 -30.858  1.00  0.00    -0.352 N 
HETATM    3  O   UNL     1       0.171   4.750 -31.001  1.00  0.00    -0.262 OA
HETATM    4  H   UNL     1      -2.358   6.674 -31.147  1.00  0.00     0.162 HD
ENDROOT
BRANCH   1   5
HETATM    5  C   UNL     1      -1.952   4.377 -32.051  1.00  0.00     0.313 C 
HETATM    6  N   UNL     1      -2.744   3.594 -31.239  1.00  0.00    -0.319 N 
HETATM    7  H   UNL     1      -2.562   3.710 -30.243  1.00  0.00     0.169 HD
HETATM    8  O   UNL     1      -1.940   4.470 -33.269  1.00  0.00    -0.262 OA
BRANCH   6   9
HETATM    9  C   UNL     1      -3.707   2.647 -31.623  1.00  0.00     0.035 A 
HETATM   10  C   UNL     1      -4.931   2.981 -32.207  1.00  0.00     0.030 A 
HETATM   11  C   UNL     1      -5.825   1.976 -32.598  1.00  0.00     0.020 A 
HETATM   12  C   UNL     1      -5.507   0.626 -32.408  1.00  0.00     0.039 A 
HETATM   13  C   UNL     1      -4.288   0.292 -31.810  1.00  0.00     0.020 A 
HETATM   14  C   UNL     1      -3.395   1.299 -31.422  1.00  0.00     0.030 A 
BRANCH  12  15
HETATM   15  C   UNL     1      -6.484  -0.399 -32.866  1.00  0.00     0.293 C 
HETATM   16  O   UNL     1      -7.691  -0.296 -32.711  1.00  0.00    -0.259 OA
BRANCH  15  17
HETATM   17  O   UNL     1      -5.843  -1.428 -33.473  1.00  0.00    -0.318 OA
BRANCH  17  18
HETATM   18  C   UNL     1      -6.388  -1.843 -34.735  1.00  0.00     0.174 C 
HETATM   19  C   UNL     1      -6.735  -3.320 -34.699  1.00  0.00     0.034 C 
ENDBRANCH  17  18
ENDBRANCH  15  17
ENDBRANCH  12  15
ENDBRANCH   6   9
ENDBRANCH   1   5
BRANCH   2  20
HETATM   20  C   UNL     1      -0.589   7.429 -30.182  1.00  0.00     0.137 C 
BRANCH  20  21
HETATM   21  C   UNL     1      -1.260   8.122 -28.967  1.00  0.00     0.003 C 
HETATM   22  C   UNL     1      -1.979   9.450 -29.321  1.00  0.00     0.016 C 
HETATM   23  C   UNL     1      -2.928   9.704 -28.149  1.00  0.00     0.001 C 
HETATM   24  C   UNL     1      -3.278   8.321 -27.600  1.00  0.00     0.001 C 
HETATM   25  C   UNL     1      -2.493   7.328 -28.459  1.00  0.00     0.016 C 
BRANCH  21  26
HETATM   26  C   UNL     1      -0.158   8.327 -27.903  1.00  0.00    -0.048 A 
HETATM   27  C   UNL     1       0.111   9.612 -27.396  1.00  0.00     0.011 A 
HETATM   28  C   UNL     1       1.117   9.825 -26.447  1.00  0.00     0.037 A 
HETATM   29  C   UNL     1       1.900   8.769 -25.990  1.00  0.00     0.068 A 
HETATM   30  C   UNL     1       1.671   7.494 -26.501  1.00  0.00     0.037 A 
HETATM   31  C   UNL     1       0.660   7.280 -27.449  1.00  0.00     0.011 A 
BRANCH  29  32
HETATM   32  O   UNL     1       2.847   9.111 -25.066  1.00  0.00    -0.356 OA
HETATM   33  C   UNL     1       2.636  10.318 -24.346  1.00  0.00     0.210 C 
ENDBRANCH  29  32
ENDBRANCH  21  26
ENDBRANCH  20  21
ENDBRANCH   2  20
TORSDOF 9
ENDMDL
