MODEL 1
REMARK VINA RESULT:      -8.6      0.000      0.000
REMARK  5 active torsions:
REMARK  status: ('A' for Active; 'I' for Inactive)
REMARK    1  A    between atoms: C_8  and  C_9 
REMARK    2  A    between atoms: C_9  and  N_10 
REMARK       I    between atoms: N_10  and  C_11 
REMARK    3  A    between atoms: C_11  and  C_12 
REMARK    4  A    between atoms: C_13  and  O_14 
REMARK    5  A    between atoms: O_14  and  C_15 
ROOT
HETATM    1  C   UNL     1      -4.458  -0.303 -32.852  1.00  0.00     0.066 A 
HETATM    2  C   UNL     1      -5.753  -0.033 -33.312  1.00  0.00     0.091 A 
HETATM    3  C   UNL     1      -6.508  -1.031 -33.937  1.00  0.00     0.050 A 
HETATM    4  C   UNL     1      -5.963  -2.305 -34.157  1.00  0.00    -0.023 A 
HETATM    5  C   UNL     1      -4.643  -2.577 -33.728  1.00  0.00    -0.025 A 
HETATM    6  C   UNL     1      -3.905  -1.571 -33.081  1.00  0.00     0.032 A 
HETATM    7  C   UNL     1      -6.700  -3.312 -34.798  1.00  0.00     0.012 A 
HETATM    8  C   UNL     1      -6.143  -4.573 -35.016  1.00  0.00     0.001 A 
HETATM    9  C   UNL     1      -4.844  -4.842 -34.595  1.00  0.00     0.001 A 
HETATM   10  C   UNL     1      -4.099  -3.852 -33.954  1.00  0.00     0.012 A 
ENDROOT
BRANCH   1  11
HETATM   11  C   UNL     1      -3.605   0.708 -32.165  1.00  0.00     0.254 C 
HETATM   12  N   UNL     1      -3.724   2.005 -32.602  1.00  0.00    -0.352 N 
HETATM   13  H   UNL     1      -4.456   2.236 -33.264  1.00  0.00     0.163 HD
HETATM   14  O   UNL     1      -2.848   0.356 -31.268  1.00  0.00    -0.268 OA
BRANCH  12  15
HETATM   15  C   UNL     1      -3.002   3.100 -31.998  1.00  0.00     0.165 C 
BRANCH  15  16
HETATM   16  C   UNL     1      -3.531   4.377 -32.547  1.00  0.00     0.009 A 
HETATM   17  C   UNL     1      -4.750   4.978 -32.286  1.00  0.00     0.034 A 
HETATM   18  C   UNL     1      -5.886   4.568 -31.428  1.00  0.00     0.070 C 
HETATM   19  N   UNL     1      -4.768   6.128 -33.021  1.00  0.00    -0.282 N 
HETATM   20  H   UNL     1      -5.505   6.823 -33.079  1.00  0.00     0.189 HD
HETATM   21  N   UNL     1      -3.654   6.327 -33.738  1.00  0.00    -0.179 NA
HETATM   22  C   UNL     1      -2.892   5.264 -33.460  1.00  0.00     0.060 A 
HETATM   23  C   UNL     1      -1.554   5.123 -34.087  1.00  0.00     0.073 C 
ENDBRANCH  15  16
ENDBRANCH  12  15
ENDBRANCH   1  11
BRANCH   2  24
HETATM   24  O   UNL     1      -6.345   1.189 -33.131  1.00  0.00    -0.289 OA
BRANCH  24  25
HETATM   25  C   UNL     1      -6.766   1.717 -34.388  1.00  0.00     0.505 C 
HETATM   26  F   UNL     1      -8.098   1.961 -34.326  1.00  0.00    -0.184 F 
HETATM   27  F   UNL     1      -6.154   2.919 -34.536  1.00  0.00    -0.184 F 
ENDBRANCH  24  25
ENDBRANCH   2  24
TORSDOF 5
ENDMDL
MODEL 2
REMARK VINA RESULT:      -8.5      4.131      5.853
REMARK  5 active torsions:
REMARK  status: ('A' for Active; 'I' for Inactive)
REMARK    1  A    between atoms: C_8  and  C_9 
REMARK    2  A    between atoms: C_9  and  N_10 
REMARK       I    between atoms: N_10  and  C_11 
REMARK    3  A    between atoms: C_11  and  C_12 
REMARK    4  A    between atoms: C_13  and  O_14 
REMARK    5  A    between atoms: O_14  and  C_15 
ROOT
HETATM    1  C   UNL     1      -7.627   0.101 -32.818  1.00  0.00     0.066 A 
HETATM    2  C   UNL     1      -6.347   0.484 -32.396  1.00  0.00     0.091 A 
HETATM    3  C   UNL     1      -5.223  -0.255 -32.779  1.00  0.00     0.050 A 
HETATM    4  C   UNL     1      -5.363  -1.419 -33.550  1.00  0.00    -0.023 A 
HETATM    5  C   UNL     1      -6.654  -1.833 -33.951  1.00  0.00    -0.025 A 
HETATM    6  C   UNL     1      -7.773  -1.068 -33.578  1.00  0.00     0.032 A 
HETATM    7  C   UNL     1      -4.247  -2.181 -33.927  1.00  0.00     0.012 A 
HETATM    8  C   UNL     1      -4.401  -3.341 -34.689  1.00  0.00     0.001 A 
HETATM    9  C   UNL     1      -5.672  -3.750 -35.084  1.00  0.00     0.001 A 
HETATM   10  C   UNL     1      -6.791  -3.001 -34.718  1.00  0.00     0.012 A 
ENDROOT
BRANCH   1  11
HETATM   11  C   UNL     1      -8.866   0.851 -32.461  1.00  0.00     0.254 C 
HETATM   12  N   UNL     1      -9.087   2.023 -33.142  1.00  0.00    -0.352 N 
HETATM   13  H   UNL     1      -8.487   2.259 -33.924  1.00  0.00     0.163 HD
HETATM   14  O   UNL     1      -9.615   0.410 -31.597  1.00  0.00    -0.268 OA
BRANCH  12  15
HETATM   15  C   UNL     1     -10.269   2.829 -32.943  1.00  0.00     0.165 C 
BRANCH  15  16
HETATM   16  C   UNL     1     -11.102   2.763 -34.172  1.00  0.00     0.009 A 
HETATM   17  C   UNL     1     -11.141   3.660 -35.226  1.00  0.00     0.034 A 
HETATM   18  C   UNL     1     -10.415   4.929 -35.465  1.00  0.00     0.070 C 
HETATM   19  N   UNL     1     -12.053   3.162 -36.111  1.00  0.00    -0.282 N 
HETATM   20  H   UNL     1     -12.342   3.556 -37.000  1.00  0.00     0.189 HD
HETATM   21  N   UNL     1     -12.610   2.008 -35.719  1.00  0.00    -0.179 NA
HETATM   22  C   UNL     1     -12.040   1.755 -34.537  1.00  0.00     0.060 A 
HETATM   23  C   UNL     1     -12.417   0.538 -33.775  1.00  0.00     0.073 C 
ENDBRANCH  15  16
ENDBRANCH  12  15
ENDBRANCH   1  11
BRANCH   2  24
HETATM   24  O   UNL     1      -6.140   1.608 -31.641  1.00  0.00    -0.289 OA
BRANCH  24  25
HETATM   25  C   UNL     1      -5.514   1.257 -30.408  1.00  0.00     0.505 C 
HETATM   26  F   UNL     1      -5.420   2.371 -29.642  1.00  0.00    -0.184 F 
HETATM   27  F   UNL     1      -6.358   0.410 -29.765  1.00  0.00    -0.184 F 
ENDBRANCH  24  25
ENDBRANCH   2  24
TORSDOF 5
ENDMDL
MODEL 3
REMARK VINA RESULT:      -8.5      1.250      1.923
REMARK  5 active torsions:
REMARK  status: ('A' for Active; 'I' for Inactive)
REMARK    1  A    between atoms: C_8  and  C_9 
REMARK    2  A    between atoms: C_9  and  N_10 
REMARK       I    between atoms: N_10  and  C_11 
REMARK    3  A    between atoms: C_11  and  C_12 
REMARK    4  A    between atoms: C_13  and  O_14 
REMARK    5  A    between atoms: O_14  and  C_15 
ROOT
HETATM    1  C   UNL     1      -4.711  -0.164 -32.851  1.00  0.00     0.066 A 
HETATM    2  C   UNL     1      -5.999   0.034 -33.367  1.00  0.00     0.091 A 
HETATM    3  C   UNL     1      -6.674  -1.008 -34.011  1.00  0.00     0.050 A 
HETATM    4  C   UNL     1      -6.054  -2.254 -34.194  1.00  0.00    -0.023 A 
HETATM    5  C   UNL     1      -4.741  -2.452 -33.709  1.00  0.00    -0.025 A 
HETATM    6  C   UNL     1      -4.084  -1.403 -33.043  1.00  0.00     0.032 A 
HETATM    7  C   UNL     1      -6.710  -3.304 -34.855  1.00  0.00     0.012 A 
HETATM    8  C   UNL     1      -6.080  -4.536 -35.036  1.00  0.00     0.001 A 
HETATM    9  C   UNL     1      -4.787  -4.732 -34.558  1.00  0.00     0.001 A 
HETATM   10  C   UNL     1      -4.122  -3.698 -33.898  1.00  0.00     0.012 A 
ENDROOT
BRANCH   1  11
HETATM   11  C   UNL     1      -3.942   0.896 -32.141  1.00  0.00     0.254 C 
HETATM   12  N   UNL     1      -4.109   2.182 -32.597  1.00  0.00    -0.352 N 
HETATM   13  H   UNL     1      -4.823   2.368 -33.292  1.00  0.00     0.163 HD
HETATM   14  O   UNL     1      -3.207   0.593 -31.208  1.00  0.00    -0.268 OA
BRANCH  12  15
HETATM   15  C   UNL     1      -3.471   3.319 -31.976  1.00  0.00     0.165 C 
BRANCH  15  16
HETATM   16  C   UNL     1      -3.276   4.374 -33.005  1.00  0.00     0.009 A 
HETATM   17  C   UNL     1      -2.153   5.152 -33.226  1.00  0.00     0.034 A 
HETATM   18  C   UNL     1      -0.840   5.203 -32.541  1.00  0.00     0.070 C 
HETATM   19  N   UNL     1      -2.460   5.967 -34.277  1.00  0.00    -0.282 N 
HETATM   20  H   UNL     1      -1.876   6.671 -34.715  1.00  0.00     0.189 HD
HETATM   21  N   UNL     1      -3.695   5.778 -34.763  1.00  0.00    -0.179 NA
HETATM   22  C   UNL     1      -4.204   4.811 -33.993  1.00  0.00     0.060 A 
HETATM   23  C   UNL     1      -5.588   4.326 -34.226  1.00  0.00     0.073 C 
ENDBRANCH  15  16
ENDBRANCH  12  15
ENDBRANCH   1  11
BRANCH   2  24
HETATM   24  O   UNL     1      -6.660   1.225 -33.224  1.00  0.00    -0.289 OA
BRANCH  24  25
HETATM   25  C   UNL     1      -7.753   1.068 -32.319  1.00  0.00     0.505 C 
HETATM   26  F   UNL     1      -7.254   0.853 -31.077  1.00  0.00    -0.184 F 
HETATM   27  F   UNL     1      -8.404   2.258 -32.279  1.00  0.00    -0.184 F 
ENDBRANCH  24  25
ENDBRANCH   2  24
TORSDOF 5
ENDMDL
MODEL 4
REMARK VINA RESULT:      -8.5      2.935      4.448
REMARK  5 active torsions:
REMARK  status: ('A' for Active; 'I' for Inactive)
REMARK    1  A    between atoms: C_8  and  C_9 
REMARK    2  A    between atoms: C_9  and  N_10 
REMARK       I    between atoms: N_10  and  C_11 
REMARK    3  A    between atoms: C_11  and  C_12 
REMARK    4  A    between atoms: C_13  and  O_14 
REMARK    5  A    between atoms: O_14  and  C_15 
ROOT
HETATM    1  C   UNL     1      -5.823  -0.224 -33.959  1.00  0.00     0.066 A 
HETATM    2  C   UNL     1      -4.607  -0.405 -33.286  1.00  0.00     0.091 A 
HETATM    3  C   UNL     1      -3.994  -1.662 -33.253  1.00  0.00     0.050 A 
HETATM    4  C   UNL     1      -4.610  -2.772 -33.850  1.00  0.00    -0.023 A 
HETATM    5  C   UNL     1      -5.855  -2.607 -34.500  1.00  0.00    -0.025 A 
HETATM    6  C   UNL     1      -6.448  -1.333 -34.545  1.00  0.00     0.032 A 
HETATM    7  C   UNL     1      -4.017  -4.043 -33.809  1.00  0.00     0.012 A 
HETATM    8  C   UNL     1      -4.644  -5.141 -34.402  1.00  0.00     0.001 A 
HETATM    9  C   UNL     1      -5.870  -4.979 -35.042  1.00  0.00     0.001 A 
HETATM   10  C   UNL     1      -6.471  -3.721 -35.092  1.00  0.00     0.012 A 
ENDROOT
BRANCH   1  11
HETATM   11  C   UNL     1      -6.522   1.089 -34.047  1.00  0.00     0.254 C 
HETATM   12  N   UNL     1      -6.474   1.883 -32.927  1.00  0.00    -0.352 N 
HETATM   13  H   UNL     1      -5.876   1.610 -32.155  1.00  0.00     0.163 HD
HETATM   14  O   UNL     1      -7.101   1.401 -35.081  1.00  0.00    -0.268 OA
BRANCH  12  15
HETATM   15  C   UNL     1      -7.059   3.203 -32.880  1.00  0.00     0.165 C 
BRANCH  15  16
HETATM   16  C   UNL     1      -8.340   3.128 -32.129  1.00  0.00     0.009 A 
HETATM   17  C   UNL     1      -9.617   2.958 -32.636  1.00  0.00     0.034 A 
HETATM   18  C   UNL     1     -10.114   2.813 -34.024  1.00  0.00     0.070 C 
HETATM   19  N   UNL     1     -10.453   2.950 -31.556  1.00  0.00    -0.282 N 
HETATM   20  H   UNL     1     -11.461   2.846 -31.546  1.00  0.00     0.189 HD
HETATM   21  N   UNL     1      -9.820   3.098 -30.384  1.00  0.00    -0.179 NA
HETATM   22  C   UNL     1      -8.531   3.210 -30.720  1.00  0.00     0.060 A 
HETATM   23  C   UNL     1      -7.502   3.399 -29.667  1.00  0.00     0.073 C 
ENDBRANCH  15  16
ENDBRANCH  12  15
ENDBRANCH   1  11
BRANCH   2  24
HETATM   24  O   UNL     1      -3.953   0.636 -32.682  1.00  0.00    -0.289 OA
BRANCH  24  25
HETATM   25  C   UNL     1      -3.568   0.266 -31.359  1.00  0.00     0.505 C 
HETATM   26  F   UNL     1      -2.787   1.248 -30.847  1.00  0.00    -0.184 F 
HETATM   27  F   UNL     1      -4.701   0.239 -30.612  1.00  0.00    -0.184 F 
ENDBRANCH  24  25
ENDBRANCH   2  24
TORSDOF 5
ENDMDL
MODEL 5
REMARK VINA RESULT:      -8.4      1.851      2.898
REMARK  5 active torsions:
REMARK  status: ('A' for Active; 'I' for Inactive)
REMARK    1  A    between atoms: C_8  and  C_9 
REMARK    2  A    between atoms: C_9  and  N_10 
REMARK       I    between atoms: N_10  and  C_11 
REMARK    3  A    between atoms: C_11  and  C_12 
REMARK    4  A    between atoms: C_13  and  O_14 
REMARK    5  A    between atoms: O_14  and  C_15 
ROOT
HETATM    1  C   UNL     1      -5.776   0.048 -33.512  1.00  0.00     0.066 A 
HETATM    2  C   UNL     1      -4.447  -0.250 -33.182  1.00  0.00     0.091 A 
HETATM    3  C   UNL     1      -3.925  -1.526 -33.418  1.00  0.00     0.050 A 
HETATM    4  C   UNL     1      -4.737  -2.542 -33.943  1.00  0.00    -0.023 A 
HETATM    5  C   UNL     1      -6.090  -2.262 -34.246  1.00  0.00    -0.025 A 
HETATM    6  C   UNL     1      -6.594  -0.969 -34.024  1.00  0.00     0.032 A 
HETATM    7  C   UNL     1      -4.234  -3.833 -34.168  1.00  0.00     0.012 A 
HETATM    8  C   UNL     1      -5.054  -4.837 -34.685  1.00  0.00     0.001 A 
HETATM    9  C   UNL     1      -6.386  -4.562 -34.983  1.00  0.00     0.001 A 
HETATM   10  C   UNL     1      -6.901  -3.283 -34.766  1.00  0.00     0.012 A 
ENDROOT
BRANCH   1  11
HETATM   11  C   UNL     1      -6.392   1.389 -33.302  1.00  0.00     0.254 C 
HETATM   12  N   UNL     1      -5.860   2.425 -34.031  1.00  0.00    -0.352 N 
HETATM   13  H   UNL     1      -5.179   2.220 -34.754  1.00  0.00     0.163 HD
HETATM   14  O   UNL     1      -7.316   1.516 -32.509  1.00  0.00    -0.268 OA
BRANCH  12  15
HETATM   15  C   UNL     1      -6.386   3.769 -33.974  1.00  0.00     0.165 C 
BRANCH  15  16
HETATM   16  C   UNL     1      -5.410   4.631 -33.259  1.00  0.00     0.009 A 
HETATM   17  C   UNL     1      -5.405   4.986 -31.921  1.00  0.00     0.034 A 
HETATM   18  C   UNL     1      -6.330   4.655 -30.812  1.00  0.00     0.070 C 
HETATM   19  N   UNL     1      -4.311   5.783 -31.746  1.00  0.00    -0.282 N 
HETATM   20  H   UNL     1      -3.990   6.228 -30.893  1.00  0.00     0.189 HD
HETATM   21  N   UNL     1      -3.597   5.972 -32.864  1.00  0.00    -0.179 NA
HETATM   22  C   UNL     1      -4.259   5.277 -33.795  1.00  0.00     0.060 A 
HETATM   23  C   UNL     1      -3.766   5.252 -35.195  1.00  0.00     0.073 C 
ENDBRANCH  15  16
ENDBRANCH  12  15
ENDBRANCH   1  11
BRANCH   2  24
HETATM   24  O   UNL     1      -3.601   0.696 -32.666  1.00  0.00    -0.289 OA
BRANCH  24  25
HETATM   25  C   UNL     1      -3.684   0.697 -31.241  1.00  0.00     0.505 C 
HETATM   26  F   UNL     1      -2.513   0.233 -30.742  1.00  0.00    -0.184 F 
HETATM   27  F   UNL     1      -3.788   1.994 -30.854  1.00  0.00    -0.184 F 
ENDBRANCH  24  25
ENDBRANCH   2  24
TORSDOF 5
ENDMDL
MODEL 6
REMARK VINA RESULT:      -8.4      2.023      3.367
REMARK  5 active torsions:
REMARK  status: ('A' for Active; 'I' for Inactive)
REMARK    1  A    between atoms: C_8  and  C_9 
REMARK    2  A    between atoms: C_9  and  N_10 
REMARK       I    between atoms: N_10  and  C_11 
REMARK    3  A    between atoms: C_11  and  C_12 
REMARK    4  A    between atoms: C_13  and  O_14 
REMARK    5  A    between atoms: O_14  and  C_15 
ROOT
HETATM    1  C   UNL     1      -5.703  -0.014 -33.753  1.00  0.00     0.066 A 
HETATM    2  C   UNL     1      -4.437  -0.303 -33.228  1.00  0.00     0.091 A 
HETATM    3  C   UNL     1      -3.914  -1.598 -33.304  1.00  0.00     0.050 A 
HETATM    4  C   UNL     1      -4.668  -2.639 -33.864  1.00  0.00    -0.023 A 
HETATM    5  C   UNL     1      -5.962  -2.366 -34.365  1.00  0.00    -0.025 A 
HETATM    6  C   UNL     1      -6.465  -1.055 -34.302  1.00  0.00     0.032 A 
HETATM    7  C   UNL     1      -4.165  -3.948 -33.931  1.00  0.00     0.012 A 
HETATM    8  C   UNL     1      -4.929  -4.977 -34.485  1.00  0.00     0.001 A 
HETATM    9  C   UNL     1      -6.203  -4.709 -34.978  1.00  0.00     0.001 A 
HETATM   10  C   UNL     1      -6.716  -3.413 -34.919  1.00  0.00     0.012 A 
ENDROOT
BRANCH   1  11
HETATM   11  C   UNL     1      -6.314   1.345 -33.720  1.00  0.00     0.254 C 
HETATM   12  N   UNL     1      -6.363   1.962 -32.493  1.00  0.00    -0.352 N 
HETATM   13  H   UNL     1      -5.881   1.537 -31.709  1.00  0.00     0.163 HD
HETATM   14  O   UNL     1      -6.742   1.844 -34.753  1.00  0.00    -0.268 OA
BRANCH  12  15
HETATM   15  C   UNL     1      -6.877   3.300 -32.313  1.00  0.00     0.165 C 
BRANCH  15  16
HETATM   16  C   UNL     1      -5.735   4.216 -32.058  1.00  0.00     0.009 A 
HETATM   17  C   UNL     1      -4.924   4.849 -32.985  1.00  0.00     0.034 A 
HETATM   18  C   UNL     1      -4.913   4.817 -34.466  1.00  0.00     0.070 C 
HETATM   19  N   UNL     1      -4.027   5.582 -32.263  1.00  0.00    -0.282 N 
HETATM   20  H   UNL     1      -3.280   6.174 -32.609  1.00  0.00     0.189 HD
HETATM   21  N   UNL     1      -4.192   5.482 -30.937  1.00  0.00    -0.179 NA
HETATM   22  C   UNL     1      -5.229   4.649 -30.799  1.00  0.00     0.060 A 
HETATM   23  C   UNL     1      -5.712   4.282 -29.444  1.00  0.00     0.073 C 
ENDBRANCH  15  16
ENDBRANCH  12  15
ENDBRANCH   1  11
BRANCH   2  24
HETATM   24  O   UNL     1      -3.648   0.668 -32.667  1.00  0.00    -0.289 OA
BRANCH  24  25
HETATM   25  C   UNL     1      -3.609   0.503 -31.250  1.00  0.00     0.505 C 
HETATM   26  F   UNL     1      -2.419  -0.054 -30.916  1.00  0.00    -0.184 F 
HETATM   27  F   UNL     1      -3.623   1.747 -30.708  1.00  0.00    -0.184 F 
ENDBRANCH  24  25
ENDBRANCH   2  24
TORSDOF 5
ENDMDL
MODEL 7
REMARK VINA RESULT:      -8.3      3.189      4.713
REMARK  5 active torsions:
REMARK  status: ('A' for Active; 'I' for Inactive)
REMARK    1  A    between atoms: C_8  and  C_9 
REMARK    2  A    between atoms: C_9  and  N_10 
REMARK       I    between atoms: N_10  and  C_11 
REMARK    3  A    between atoms: C_11  and  C_12 
REMARK    4  A    between atoms: C_13  and  O_14 
REMARK    5  A    between atoms: O_14  and  C_15 
ROOT
HETATM    1  C   UNL     1      -5.907   0.010 -33.708  1.00  0.00     0.066 A 
HETATM    2  C   UNL     1      -4.614  -0.221 -33.220  1.00  0.00     0.091 A 
HETATM    3  C   UNL     1      -4.026  -1.485 -33.334  1.00  0.00     0.050 A 
HETATM    4  C   UNL     1      -4.740  -2.555 -33.894  1.00  0.00    -0.023 A 
HETATM    5  C   UNL     1      -6.059  -2.342 -34.356  1.00  0.00    -0.025 A 
HETATM    6  C   UNL     1      -6.628  -1.060 -34.256  1.00  0.00     0.032 A 
HETATM    7  C   UNL     1      -4.172  -3.834 -33.998  1.00  0.00     0.012 A 
HETATM    8  C   UNL     1      -4.895  -4.892 -34.551  1.00  0.00     0.001 A 
HETATM    9  C   UNL     1      -6.194  -4.683 -35.007  1.00  0.00     0.001 A 
HETATM   10  C   UNL     1      -6.772  -3.416 -34.911  1.00  0.00     0.012 A 
ENDROOT
BRANCH   1  11
HETATM   11  C   UNL     1      -6.586   1.334 -33.634  1.00  0.00     0.254 C 
HETATM   12  N   UNL     1      -7.564   1.466 -32.677  1.00  0.00    -0.352 N 
HETATM   13  H   UNL     1      -7.690   0.724 -31.998  1.00  0.00     0.163 HD
HETATM   14  O   UNL     1      -6.263   2.228 -34.407  1.00  0.00    -0.268 OA
BRANCH  12  15
HETATM   15  C   UNL     1      -8.271   2.704 -32.451  1.00  0.00     0.165 C 
BRANCH  15  16
HETATM   16  C   UNL     1      -9.370   2.812 -33.447  1.00  0.00     0.009 A 
HETATM   17  C   UNL     1     -10.305   1.851 -33.793  1.00  0.00     0.034 A 
HETATM   18  C   UNL     1     -10.508   0.461 -33.322  1.00  0.00     0.070 C 
HETATM   19  N   UNL     1     -11.100   2.424 -34.744  1.00  0.00    -0.282 N 
HETATM   20  H   UNL     1     -11.891   2.014 -35.228  1.00  0.00     0.189 HD
HETATM   21  N   UNL     1     -10.759   3.685 -35.043  1.00  0.00    -0.179 NA
HETATM   22  C   UNL     1      -9.703   3.932 -34.260  1.00  0.00     0.060 A 
HETATM   23  C   UNL     1      -9.031   5.254 -34.316  1.00  0.00     0.073 C 
ENDBRANCH  15  16
ENDBRANCH  12  15
ENDBRANCH   1  11
BRANCH   2  24
HETATM   24  O   UNL     1      -3.862   0.780 -32.662  1.00  0.00    -0.289 OA
BRANCH  24  25
HETATM   25  C   UNL     1      -3.897   0.677 -31.239  1.00  0.00     0.505 C 
HETATM   26  F   UNL     1      -2.646   0.401 -30.797  1.00  0.00    -0.184 F 
HETATM   27  F   UNL     1      -4.217   1.908 -30.763  1.00  0.00    -0.184 F 
ENDBRANCH  24  25
ENDBRANCH   2  24
TORSDOF 5
ENDMDL
MODEL 8
REMARK VINA RESULT:      -8.1      1.256      1.459
REMARK  5 active torsions:
REMARK  status: ('A' for Active; 'I' for Inactive)
REMARK    1  A    between atoms: C_8  and  C_9 
REMARK    2  A    between atoms: C_9  and  N_10 
REMARK       I    between atoms: N_10  and  C_11 
REMARK    3  A    between atoms: C_11  and  C_12 
REMARK    4  A    between atoms: C_13  and  O_14 
REMARK    5  A    between atoms: O_14  and  C_15 
ROOT
HETATM    1  C   UNL     1      -5.113  -0.213 -33.164  1.00  0.00     0.066 A 
HETATM    2  C   UNL     1      -6.385  -0.163 -33.750  1.00  0.00     0.091 A 
HETATM    3  C   UNL     1      -6.940  -1.303 -34.342  1.00  0.00     0.050 A 
HETATM    4  C   UNL     1      -6.212  -2.501 -34.403  1.00  0.00    -0.023 A 
HETATM    5  C   UNL     1      -4.913  -2.551 -33.846  1.00  0.00    -0.025 A 
HETATM    6  C   UNL     1      -4.378  -1.405 -33.234  1.00  0.00     0.032 A 
HETATM    7  C   UNL     1      -6.746  -3.647 -35.011  1.00  0.00     0.012 A 
HETATM    8  C   UNL     1      -6.009  -4.831 -35.070  1.00  0.00     0.001 A 
HETATM    9  C   UNL     1      -4.730  -4.882 -34.522  1.00  0.00     0.001 A 
HETATM   10  C   UNL     1      -4.186  -3.750 -33.914  1.00  0.00     0.012 A 
ENDROOT
BRANCH   1  11
HETATM   11  C   UNL     1      -4.469   0.957 -32.503  1.00  0.00     0.254 C 
HETATM   12  N   UNL     1      -5.303   1.802 -31.810  1.00  0.00    -0.352 N 
HETATM   13  H   UNL     1      -6.271   1.535 -31.674  1.00  0.00     0.163 HD
HETATM   14  O   UNL     1      -3.259   1.121 -32.601  1.00  0.00    -0.268 OA
BRANCH  12  15
HETATM   15  C   UNL     1      -4.818   2.946 -31.075  1.00  0.00     0.165 C 
BRANCH  15  16
HETATM   16  C   UNL     1      -4.864   4.136 -31.965  1.00  0.00     0.009 A 
HETATM   17  C   UNL     1      -5.978   4.837 -32.397  1.00  0.00     0.034 A 
HETATM   18  C   UNL     1      -7.424   4.640 -32.142  1.00  0.00     0.070 C 
HETATM   19  N   UNL     1      -5.506   5.844 -33.188  1.00  0.00    -0.282 N 
HETATM   20  H   UNL     1      -6.037   6.556 -33.678  1.00  0.00     0.189 HD
HETATM   21  N   UNL     1      -4.171   5.858 -33.304  1.00  0.00    -0.179 NA
HETATM   22  C   UNL     1      -3.768   4.820 -32.565  1.00  0.00     0.060 A 
HETATM   23  C   UNL     1      -2.322   4.504 -32.453  1.00  0.00     0.073 C 
ENDBRANCH  15  16
ENDBRANCH  12  15
ENDBRANCH   1  11
BRANCH   2  24
HETATM   24  O   UNL     1      -7.148   0.974 -33.726  1.00  0.00    -0.289 OA
BRANCH  24  25
HETATM   25  C   UNL     1      -8.433   0.686 -33.177  1.00  0.00     0.505 C 
HETATM   26  F   UNL     1      -8.287   0.425 -31.855  1.00  0.00    -0.184 F 
HETATM   27  F   UNL     1      -9.167   1.825 -33.272  1.00  0.00    -0.184 F 
ENDBRANCH  24  25
ENDBRANCH   2  24
TORSDOF 5
ENDMDL
MODEL 9
REMARK VINA RESULT:      -7.5     14.888     16.430
REMARK  5 active torsions:
REMARK  status: ('A' for Active; 'I' for Inactive)
REMARK    1  A    between atoms: C_8  and  C_9 
REMARK    2  A    between atoms: C_9  and  N_10 
REMARK       I    between atoms: N_10  and  C_11 
REMARK    3  A    between atoms: C_11  and  C_12 
REMARK    4  A    between atoms: C_13  and  O_14 
REMARK    5  A    between atoms: O_14  and  C_15 
ROOT
HETATM    1  C   UNL     1      -4.904 -12.851 -37.978  1.00  0.00     0.066 A 
HETATM    2  C   UNL     1      -5.550 -13.544 -36.945  1.00  0.00     0.091 A 
HETATM    3  C   UNL     1      -6.919 -13.820 -37.022  1.00  0.00     0.050 A 
HETATM    4  C   UNL     1      -7.678 -13.364 -38.111  1.00  0.00    -0.023 A 
HETATM    5  C   UNL     1      -7.042 -12.632 -39.141  1.00  0.00    -0.025 A 
HETATM    6  C   UNL     1      -5.661 -12.383 -39.061  1.00  0.00     0.032 A 
HETATM    7  C   UNL     1      -9.056 -13.616 -38.194  1.00  0.00     0.012 A 
HETATM    8  C   UNL     1      -9.800 -13.151 -39.279  1.00  0.00     0.001 A 
HETATM    9  C   UNL     1      -9.176 -12.431 -40.294  1.00  0.00     0.001 A 
HETATM   10  C   UNL     1      -7.806 -12.173 -40.226  1.00  0.00     0.012 A 
ENDROOT
BRANCH   1  11
HETATM   11  C   UNL     1      -3.447 -12.537 -37.968  1.00  0.00     0.254 C 
HETATM   12  N   UNL     1      -2.611 -13.535 -37.528  1.00  0.00    -0.352 N 
HETATM   13  H   UNL     1      -2.994 -14.457 -37.356  1.00  0.00     0.163 HD
HETATM   14  O   UNL     1      -3.060 -11.435 -38.336  1.00  0.00    -0.268 OA
BRANCH  12  15
HETATM   15  C   UNL     1      -1.173 -13.398 -37.513  1.00  0.00     0.165 C 
BRANCH  15  16
HETATM   16  C   UNL     1      -0.580 -14.534 -38.265  1.00  0.00     0.009 A 
HETATM   17  C   UNL     1      -0.469 -14.685 -39.637  1.00  0.00     0.034 A 
HETATM   18  C   UNL     1      -0.893 -13.816 -40.759  1.00  0.00     0.070 C 
HETATM   19  N   UNL     1       0.148 -15.886 -39.835  1.00  0.00    -0.282 N 
HETATM   20  H   UNL     1       0.393 -16.326 -40.716  1.00  0.00     0.189 HD
HETATM   21  N   UNL     1       0.452 -16.530 -38.700  1.00  0.00    -0.179 NA
HETATM   22  C   UNL     1       0.011 -15.717 -37.735  1.00  0.00     0.060 A 
HETATM   23  C   UNL     1       0.166 -16.102 -36.310  1.00  0.00     0.073 C 
ENDBRANCH  15  16
ENDBRANCH  12  15
ENDBRANCH   1  11
BRANCH   2  24
HETATM   24  O   UNL     1      -4.868 -14.016 -35.854  1.00  0.00    -0.289 OA
BRANCH  24  25
HETATM   25  C   UNL     1      -5.410 -13.451 -34.661  1.00  0.00     0.505 C 
HETATM   26  F   UNL     1      -5.155 -14.295 -33.632  1.00  0.00    -0.184 F 
HETATM   27  F   UNL     1      -4.714 -12.312 -34.414  1.00  0.00    -0.184 F 
ENDBRANCH  24  25
ENDBRANCH   2  24
TORSDOF 5
ENDMDL
MODEL 10
REMARK VINA RESULT:      -7.5      2.788      3.988
REMARK  5 active torsions:
REMARK  status: ('A' for Active; 'I' for Inactive)
REMARK    1  A    between atoms: C_8  and  C_9 
REMARK    2  A    between atoms: C_9  and  N_10 
REMARK       I    between atoms: N_10  and  C_11 
REMARK    3  A    between atoms: C_11  and  C_12 
REMARK    4  A    between atoms: C_13  and  O_14 
REMARK    5  A    between atoms: O_14  and  C_15 
ROOT
HETATM    1  C   UNL     1      -6.720   0.175 -32.358  1.00  0.00     0.066 A 
HETATM    2  C   UNL     1      -5.372   0.119 -31.981  1.00  0.00     0.091 A 
HETATM    3  C   UNL     1      -4.527  -0.861 -32.510  1.00  0.00     0.050 A 
HETATM    4  C   UNL     1      -5.025  -1.835 -33.388  1.00  0.00    -0.023 A 
HETATM    5  C   UNL     1      -6.393  -1.809 -33.747  1.00  0.00    -0.025 A 
HETATM    6  C   UNL     1      -7.225  -0.804 -33.226  1.00  0.00     0.032 A 
HETATM    7  C   UNL     1      -4.194  -2.837 -33.913  1.00  0.00     0.012 A 
HETATM    8  C   UNL     1      -4.704  -3.803 -34.781  1.00  0.00     0.001 A 
HETATM    9  C   UNL     1      -6.050  -3.778 -35.136  1.00  0.00     0.001 A 
HETATM   10  C   UNL     1      -6.889  -2.788 -34.623  1.00  0.00     0.012 A 
ENDROOT
BRANCH   1  11
HETATM   11  C   UNL     1      -7.673   1.201 -31.846  1.00  0.00     0.254 C 
HETATM   12  N   UNL     1      -7.216   2.496 -31.815  1.00  0.00    -0.352 N 
HETATM   13  H   UNL     1      -6.325   2.714 -32.246  1.00  0.00     0.163 HD
HETATM   14  O   UNL     1      -8.792   0.862 -31.479  1.00  0.00    -0.268 OA
BRANCH  12  15
HETATM   15  C   UNL     1      -8.041   3.604 -31.395  1.00  0.00     0.165 C 
BRANCH  15  16
HETATM   16  C   UNL     1      -8.619   4.249 -32.603  1.00  0.00     0.009 A 
HETATM   17  C   UNL     1      -9.936   4.235 -33.030  1.00  0.00     0.034 A 
HETATM   18  C   UNL     1     -11.147   3.595 -32.464  1.00  0.00     0.070 C 
HETATM   19  N   UNL     1      -9.967   4.968 -34.181  1.00  0.00    -0.282 N 
HETATM   20  H   UNL     1     -10.766   5.172 -34.772  1.00  0.00     0.189 HD
HETATM   21  N   UNL     1      -8.774   5.463 -34.537  1.00  0.00    -0.179 NA
HETATM   22  C   UNL     1      -7.943   5.030 -33.584  1.00  0.00     0.060 A 
HETATM   23  C   UNL     1      -6.501   5.377 -33.641  1.00  0.00     0.073 C 
ENDBRANCH  15  16
ENDBRANCH  12  15
ENDBRANCH   1  11
BRANCH   2  24
HETATM   24  O   UNL     1      -4.822   1.038 -31.127  1.00  0.00    -0.289 OA
BRANCH  24  25
HETATM   25  C   UNL     1      -3.718   1.686 -31.756  1.00  0.00     0.505 C 
HETATM   26  F   UNL     1      -4.172   2.339 -32.854  1.00  0.00    -0.184 F 
HETATM   27  F   UNL     1      -3.274   2.635 -30.893  1.00  0.00    -0.184 F 
ENDBRANCH  24  25
ENDBRANCH   2  24
TORSDOF 5
ENDMDL
