MODEL 1
REMARK VINA RESULT:      -8.5      0.000      0.000
REMARK  5 active torsions:
REMARK  status: ('A' for Active; 'I' for Inactive)
REMARK    1  A    between atoms: C_6  and  O_7 
REMARK    2  A    between atoms: O_7  and  C_8 
REMARK    3  A    between atoms: C_8  and  C_9 
REMARK       I    between atoms: C_9  and  N_10 
REMARK    4  A    between atoms: N_10  and  N_11 
REMARK    5  A    between atoms: C_12  and  C_13 
ROOT
HETATM    1  C   UNL     1      -9.871   1.147 -32.815  1.00  0.00     0.261 C 
HETATM    2  N   UNL     1      -8.526   1.488 -32.786  1.00  0.00    -0.246 N 
HETATM    3  O   UNL     1     -10.313  -0.001 -32.800  1.00  0.00    -0.269 OA
HETATM    4  H   UNL     1      -8.255   2.466 -32.832  1.00  0.00     0.192 HD
ENDROOT
BRANCH   2   5
HETATM    5  N   UNL     1      -7.590   0.498 -32.734  1.00  0.00    -0.184 NA
HETATM    6  C   UNL     1      -6.771   0.414 -33.730  1.00  0.00     0.152 C 
BRANCH   6   7
HETATM    7  C   UNL     1      -5.751  -0.617 -33.707  1.00  0.00     0.011 A 
HETATM    8  C   UNL     1      -5.870  -1.988 -34.108  1.00  0.00     0.004 A 
HETATM    9  C   UNL     1      -4.622  -2.587 -33.917  1.00  0.00     0.043 A 
HETATM   10  C   UNL     1      -6.916  -2.780 -34.628  1.00  0.00     0.014 A 
HETATM   11  C   UNL     1      -4.369  -3.932 -34.216  1.00  0.00     0.030 A 
HETATM   12  N   UNL     1      -3.780  -1.623 -33.415  1.00  0.00    -0.364 N 
HETATM   13  C   UNL     1      -5.422  -4.691 -34.730  1.00  0.00     0.002 A 
HETATM   14  C   UNL     1      -6.678  -4.126 -34.935  1.00  0.00     0.001 A 
HETATM   15  H   UNL     1      -2.808  -1.772 -33.181  1.00  0.00     0.165 HD
HETATM   16  C   UNL     1      -4.445  -0.438 -33.288  1.00  0.00     0.102 A 
ENDBRANCH   6   7
ENDBRANCH   2   5
BRANCH   1  17
HETATM   17  C   UNL     1     -10.806   2.350 -32.757  1.00  0.00     0.280 C 
BRANCH  17  18
HETATM   18  O   UNL     1     -11.821   2.294 -33.757  1.00  0.00    -0.342 OA
BRANCH  18  19
HETATM   19  C   UNL     1     -13.099   2.452 -33.274  1.00  0.00     0.075 A 
HETATM   20  C   UNL     1     -13.987   1.382 -33.468  1.00  0.00    -0.028 A 
HETATM   21  C   UNL     1     -15.298   1.478 -32.967  1.00  0.00     0.016 A 
HETATM   22  C   UNL     1     -13.543   0.114 -34.141  1.00  0.00     0.051 C 
HETATM   23  C   UNL     1     -15.740   2.637 -32.316  1.00  0.00    -0.061 A 
HETATM   24  C   UNL     1     -17.126   2.723 -31.750  1.00  0.00     0.048 C 
HETATM   25  C   UNL     1     -14.851   3.702 -32.154  1.00  0.00     0.009 A 
HETATM   26  C   UNL     1     -13.543   3.614 -32.637  1.00  0.00     0.038 A 
ENDBRANCH  18  19
ENDBRANCH  17  18
ENDBRANCH   1  17
TORSDOF 5
ENDMDL
MODEL 2
REMARK VINA RESULT:      -8.5      6.876     10.141
REMARK  5 active torsions:
REMARK  status: ('A' for Active; 'I' for Inactive)
REMARK    1  A    between atoms: C_6  and  O_7 
REMARK    2  A    between atoms: O_7  and  C_8 
REMARK    3  A    between atoms: C_8  and  C_9 
REMARK       I    between atoms: C_9  and  N_10 
REMARK    4  A    between atoms: N_10  and  N_11 
REMARK    5  A    between atoms: C_12  and  C_13 
ROOT
HETATM    1  C   UNL     1      -2.652   4.305 -31.993  1.00  0.00     0.261 C 
HETATM    2  N   UNL     1      -3.086   3.353 -31.082  1.00  0.00    -0.246 N 
HETATM    3  O   UNL     1      -2.193   4.063 -33.109  1.00  0.00    -0.269 OA
HETATM    4  H   UNL     1      -3.422   3.647 -30.170  1.00  0.00     0.192 HD
ENDROOT
BRANCH   2   5
HETATM    5  N   UNL     1      -3.016   2.032 -31.415  1.00  0.00    -0.184 NA
HETATM    6  C   UNL     1      -4.065   1.508 -31.957  1.00  0.00     0.152 C 
BRANCH   6   7
HETATM    7  C   UNL     1      -4.026   0.110 -32.339  1.00  0.00     0.011 A 
HETATM    8  C   UNL     1      -4.883  -0.580 -33.258  1.00  0.00     0.004 A 
HETATM    9  C   UNL     1      -4.454  -1.909 -33.310  1.00  0.00     0.043 A 
HETATM   10  C   UNL     1      -5.979  -0.202 -34.063  1.00  0.00     0.014 A 
HETATM   11  C   UNL     1      -5.062  -2.874 -34.122  1.00  0.00     0.030 A 
HETATM   12  N   UNL     1      -3.384  -2.025 -32.454  1.00  0.00    -0.364 N 
HETATM   13  C   UNL     1      -6.143  -2.472 -34.909  1.00  0.00     0.002 A 
HETATM   14  C   UNL     1      -6.597  -1.156 -34.883  1.00  0.00     0.001 A 
HETATM   15  H   UNL     1      -2.868  -2.879 -32.290  1.00  0.00     0.165 HD
HETATM   16  C   UNL     1      -3.117  -0.821 -31.869  1.00  0.00     0.102 A 
ENDBRANCH   6   7
ENDBRANCH   2   5
BRANCH   1  17
HETATM   17  C   UNL     1      -2.892   5.739 -31.536  1.00  0.00     0.280 C 
BRANCH  17  18
HETATM   18  O   UNL     1      -1.785   6.591 -31.824  1.00  0.00    -0.342 OA
BRANCH  18  19
HETATM   19  C   UNL     1      -1.210   7.164 -30.714  1.00  0.00     0.075 A 
HETATM   20  C   UNL     1       0.020   6.635 -30.292  1.00  0.00    -0.028 A 
HETATM   21  C   UNL     1       0.666   7.203 -29.179  1.00  0.00     0.016 A 
HETATM   22  C   UNL     1       0.687   5.520 -31.046  1.00  0.00     0.051 C 
HETATM   23  C   UNL     1       0.083   8.257 -28.465  1.00  0.00    -0.061 A 
HETATM   24  C   UNL     1       0.791   8.886 -27.302  1.00  0.00     0.048 C 
HETATM   25  C   UNL     1      -1.154   8.755 -28.883  1.00  0.00     0.009 A 
HETATM   26  C   UNL     1      -1.800   8.206 -29.993  1.00  0.00     0.038 A 
ENDBRANCH  18  19
ENDBRANCH  17  18
ENDBRANCH   1  17
TORSDOF 5
ENDMDL
MODEL 3
REMARK VINA RESULT:      -8.3      5.280      9.176
REMARK  5 active torsions:
REMARK  status: ('A' for Active; 'I' for Inactive)
REMARK    1  A    between atoms: C_6  and  O_7 
REMARK    2  A    between atoms: O_7  and  C_8 
REMARK    3  A    between atoms: C_8  and  C_9 
REMARK       I    between atoms: C_9  and  N_10 
REMARK    4  A    between atoms: N_10  and  N_11 
REMARK    5  A    between atoms: C_12  and  C_13 
ROOT
HETATM    1  C   UNL     1      -6.001   2.764 -33.442  1.00  0.00     0.261 C 
HETATM    2  N   UNL     1      -4.918   2.745 -32.575  1.00  0.00    -0.246 N 
HETATM    3  O   UNL     1      -6.313   3.708 -34.168  1.00  0.00    -0.269 OA
HETATM    4  H   UNL     1      -4.755   1.930 -31.991  1.00  0.00     0.192 HD
ENDROOT
BRANCH   2   5
HETATM    5  N   UNL     1      -4.110   3.841 -32.495  1.00  0.00    -0.184 NA
HETATM    6  C   UNL     1      -2.962   3.766 -33.082  1.00  0.00     0.152 C 
BRANCH   6   7
HETATM    7  C   UNL     1      -2.079   4.916 -33.032  1.00  0.00     0.011 A 
HETATM    8  C   UNL     1      -1.225   5.329 -31.957  1.00  0.00     0.004 A 
HETATM    9  C   UNL     1      -0.558   6.483 -32.376  1.00  0.00     0.043 A 
HETATM   10  C   UNL     1      -0.942   4.827 -30.669  1.00  0.00     0.014 A 
HETATM   11  C   UNL     1       0.371   7.159 -31.575  1.00  0.00     0.030 A 
HETATM   12  N   UNL     1      -0.992   6.766 -33.650  1.00  0.00    -0.364 N 
HETATM   13  C   UNL     1       0.631   6.640 -30.305  1.00  0.00     0.002 A 
HETATM   14  C   UNL     1      -0.013   5.490 -29.856  1.00  0.00     0.001 A 
HETATM   15  H   UNL     1      -0.676   7.549 -34.206  1.00  0.00     0.165 HD
HETATM   16  C   UNL     1      -1.901   5.831 -34.054  1.00  0.00     0.102 A 
ENDBRANCH   6   7
ENDBRANCH   2   5
BRANCH   1  17
HETATM   17  C   UNL     1      -6.748   1.437 -33.514  1.00  0.00     0.280 C 
BRANCH  17  18
HETATM   18  O   UNL     1      -6.084   0.403 -32.789  1.00  0.00    -0.342 OA
BRANCH  18  19
HETATM   19  C   UNL     1      -6.061  -0.812 -33.432  1.00  0.00     0.075 A 
HETATM   20  C   UNL     1      -4.802  -1.396 -33.641  1.00  0.00    -0.028 A 
HETATM   21  C   UNL     1      -4.724  -2.652 -34.268  1.00  0.00     0.016 A 
HETATM   22  C   UNL     1      -3.546  -0.735 -33.148  1.00  0.00     0.051 C 
HETATM   23  C   UNL     1      -5.876  -3.308 -34.722  1.00  0.00    -0.061 A 
HETATM   24  C   UNL     1      -5.793  -4.664 -35.357  1.00  0.00     0.048 C 
HETATM   25  C   UNL     1      -7.119  -2.700 -34.529  1.00  0.00     0.009 A 
HETATM   26  C   UNL     1      -7.211  -1.457 -33.898  1.00  0.00     0.038 A 
ENDBRANCH  18  19
ENDBRANCH  17  18
ENDBRANCH   1  17
TORSDOF 5
ENDMDL
MODEL 4
REMARK VINA RESULT:      -7.9      1.275      1.967
REMARK  5 active torsions:
REMARK  status: ('A' for Active; 'I' for Inactive)
REMARK    1  A    between atoms: C_6  and  O_7 
REMARK    2  A    between atoms: O_7  and  C_8 
REMARK    3  A    between atoms: C_8  and  C_9 
REMARK       I    between atoms: C_9  and  N_10 
REMARK    4  A    between atoms: N_10  and  N_11 
REMARK    5  A    between atoms: C_12  and  C_13 
ROOT
HETATM    1  C   UNL     1      -9.163   2.339 -33.583  1.00  0.00     0.261 C 
HETATM    2  N   UNL     1      -8.435   1.691 -34.571  1.00  0.00    -0.246 N 
HETATM    3  O   UNL     1      -8.900   2.323 -32.380  1.00  0.00    -0.269 OA
HETATM    4  H   UNL     1      -8.747   1.736 -35.536  1.00  0.00     0.192 HD
ENDROOT
BRANCH   2   5
HETATM    5  N   UNL     1      -7.331   0.972 -34.220  1.00  0.00    -0.184 NA
HETATM    6  C   UNL     1      -7.271  -0.250 -34.636  1.00  0.00     0.152 C 
BRANCH   6   7
HETATM    7  C   UNL     1      -6.107  -1.044 -34.296  1.00  0.00     0.011 A 
HETATM    8  C   UNL     1      -5.920  -2.456 -34.462  1.00  0.00     0.004 A 
HETATM    9  C   UNL     1      -4.636  -2.763 -34.004  1.00  0.00     0.043 A 
HETATM   10  C   UNL     1      -6.714  -3.506 -34.969  1.00  0.00     0.014 A 
HETATM   11  C   UNL     1      -4.109  -4.060 -34.026  1.00  0.00     0.030 A 
HETATM   12  N   UNL     1      -4.066  -1.588 -33.572  1.00  0.00    -0.364 N 
HETATM   13  C   UNL     1      -4.917  -5.079 -34.534  1.00  0.00     0.002 A 
HETATM   14  C   UNL     1      -6.201  -4.810 -35.001  1.00  0.00     0.001 A 
HETATM   15  H   UNL     1      -3.134  -1.507 -33.188  1.00  0.00     0.165 HD
HETATM   16  C   UNL     1      -4.937  -0.552 -33.745  1.00  0.00     0.102 A 
ENDBRANCH   6   7
ENDBRANCH   2   5
BRANCH   1  17
HETATM   17  C   UNL     1     -10.302   3.195 -34.127  1.00  0.00     0.280 C 
BRANCH  17  18
HETATM   18  O   UNL     1     -10.996   3.890 -33.094  1.00  0.00    -0.342 OA
BRANCH  18  19
HETATM   19  C   UNL     1     -12.279   3.443 -32.876  1.00  0.00     0.075 A 
HETATM   20  C   UNL     1     -12.974   4.011 -31.797  1.00  0.00    -0.028 A 
HETATM   21  C   UNL     1     -14.299   3.611 -31.547  1.00  0.00     0.016 A 
HETATM   22  C   UNL     1     -12.352   5.082 -30.947  1.00  0.00     0.051 C 
HETATM   23  C   UNL     1     -14.918   2.630 -32.333  1.00  0.00    -0.061 A 
HETATM   24  C   UNL     1     -16.344   2.232 -32.088  1.00  0.00     0.048 C 
HETATM   25  C   UNL     1     -14.203   2.057 -33.387  1.00  0.00     0.009 A 
HETATM   26  C   UNL     1     -12.890   2.454 -33.652  1.00  0.00     0.038 A 
ENDBRANCH  18  19
ENDBRANCH  17  18
ENDBRANCH   1  17
TORSDOF 5
ENDMDL
MODEL 5
REMARK VINA RESULT:      -7.9      1.982      9.281
REMARK  5 active torsions:
REMARK  status: ('A' for Active; 'I' for Inactive)
REMARK    1  A    between atoms: C_6  and  O_7 
REMARK    2  A    between atoms: O_7  and  C_8 
REMARK    3  A    between atoms: C_8  and  C_9 
REMARK       I    between atoms: C_9  and  N_10 
REMARK    4  A    between atoms: N_10  and  N_11 
REMARK    5  A    between atoms: C_12  and  C_13 
ROOT
HETATM    1  C   UNL     1      -8.038   1.632 -33.373  1.00  0.00     0.261 C 
HETATM    2  N   UNL     1      -9.109   1.268 -34.176  1.00  0.00    -0.246 N 
HETATM    3  O   UNL     1      -8.099   1.856 -32.164  1.00  0.00    -0.269 OA
HETATM    4  H   UNL     1      -8.967   1.133 -35.172  1.00  0.00     0.192 HD
ENDROOT
BRANCH   2   5
HETATM    5  N   UNL     1     -10.345   1.135 -33.616  1.00  0.00    -0.184 NA
HETATM    6  C   UNL     1     -11.360   1.418 -34.363  1.00  0.00     0.152 C 
BRANCH   6   7
HETATM    7  C   UNL     1     -12.693   1.275 -33.809  1.00  0.00     0.011 A 
HETATM    8  C   UNL     1     -13.515   2.287 -33.212  1.00  0.00     0.004 A 
HETATM    9  C   UNL     1     -14.717   1.679 -32.839  1.00  0.00     0.043 A 
HETATM   10  C   UNL     1     -13.361   3.667 -32.961  1.00  0.00     0.014 A 
HETATM   11  C   UNL     1     -15.766   2.378 -32.229  1.00  0.00     0.030 A 
HETATM   12  N   UNL     1     -14.629   0.352 -33.189  1.00  0.00    -0.364 N 
HETATM   13  C   UNL     1     -15.586   3.742 -31.993  1.00  0.00     0.002 A 
HETATM   14  C   UNL     1     -14.402   4.381 -32.354  1.00  0.00     0.001 A 
HETATM   15  H   UNL     1     -15.357  -0.333 -33.039  1.00  0.00     0.165 HD
HETATM   16  C   UNL     1     -13.422   0.100 -33.774  1.00  0.00     0.102 A 
ENDBRANCH   6   7
ENDBRANCH   2   5
BRANCH   1  17
HETATM   17  C   UNL     1      -6.700   1.633 -34.105  1.00  0.00     0.280 C 
BRANCH  17  18
HETATM   18  O   UNL     1      -5.715   0.854 -33.430  1.00  0.00    -0.342 OA
BRANCH  18  19
HETATM   19  C   UNL     1      -5.691  -0.470 -33.802  1.00  0.00     0.075 A 
HETATM   20  C   UNL     1      -4.485  -1.163 -33.605  1.00  0.00    -0.028 A 
HETATM   21  C   UNL     1      -4.415  -2.527 -33.942  1.00  0.00     0.016 A 
HETATM   22  C   UNL     1      -3.294  -0.491 -32.983  1.00  0.00     0.051 C 
HETATM   23  C   UNL     1      -5.512  -3.191 -34.504  1.00  0.00    -0.061 A 
HETATM   24  C   UNL     1      -5.447  -4.654 -34.827  1.00  0.00     0.048 C 
HETATM   25  C   UNL     1      -6.696  -2.480 -34.717  1.00  0.00     0.009 A 
HETATM   26  C   UNL     1      -6.782  -1.127 -34.378  1.00  0.00     0.038 A 
ENDBRANCH  18  19
ENDBRANCH  17  18
ENDBRANCH   1  17
TORSDOF 5
ENDMDL
MODEL 6
REMARK VINA RESULT:      -7.9      5.498      9.407
REMARK  5 active torsions:
REMARK  status: ('A' for Active; 'I' for Inactive)
REMARK    1  A    between atoms: C_6  and  O_7 
REMARK    2  A    between atoms: O_7  and  C_8 
REMARK    3  A    between atoms: C_8  and  C_9 
REMARK       I    between atoms: C_9  and  N_10 
REMARK    4  A    between atoms: N_10  and  N_11 
REMARK    5  A    between atoms: C_12  and  C_13 
ROOT
HETATM    1  C   UNL     1      -5.790   1.498 -30.821  1.00  0.00     0.261 C 
HETATM    2  N   UNL     1      -5.142   2.482 -31.555  1.00  0.00    -0.246 N 
HETATM    3  O   UNL     1      -5.865   1.462 -29.593  1.00  0.00    -0.269 OA
HETATM    4  H   UNL     1      -5.107   2.412 -32.568  1.00  0.00     0.192 HD
ENDROOT
BRANCH   2   5
HETATM    5  N   UNL     1      -4.529   3.508 -30.898  1.00  0.00    -0.184 NA
HETATM    6  C   UNL     1      -4.035   4.455 -31.623  1.00  0.00     0.152 C 
BRANCH   6   7
HETATM    7  C   UNL     1      -3.387   5.572 -30.962  1.00  0.00     0.011 A 
HETATM    8  C   UNL     1      -1.983   5.838 -30.846  1.00  0.00     0.004 A 
HETATM    9  C   UNL     1      -1.843   7.033 -30.135  1.00  0.00     0.043 A 
HETATM   10  C   UNL     1      -0.813   5.186 -31.288  1.00  0.00     0.014 A 
HETATM   11  C   UNL     1      -0.599   7.604 -29.843  1.00  0.00     0.030 A 
HETATM   12  N   UNL     1      -3.109   7.473 -29.824  1.00  0.00    -0.364 N 
HETATM   13  C   UNL     1       0.542   6.938 -30.293  1.00  0.00     0.002 A 
HETATM   14  C   UNL     1       0.440   5.746 -31.007  1.00  0.00     0.001 A 
HETATM   15  H   UNL     1      -3.315   8.319 -29.312  1.00  0.00     0.165 HD
HETATM   16  C   UNL     1      -4.041   6.607 -30.318  1.00  0.00     0.102 A 
ENDBRANCH   6   7
ENDBRANCH   2   5
BRANCH   1  17
HETATM   17  C   UNL     1      -6.524   0.478 -31.684  1.00  0.00     0.280 C 
BRANCH  17  18
HETATM   18  O   UNL     1      -6.026   0.441 -33.020  1.00  0.00    -0.342 OA
BRANCH  18  19
HETATM   19  C   UNL     1      -6.000  -0.816 -33.577  1.00  0.00     0.075 A 
HETATM   20  C   UNL     1      -4.741  -1.420 -33.723  1.00  0.00    -0.028 A 
HETATM   21  C   UNL     1      -4.661  -2.717 -34.261  1.00  0.00     0.016 A 
HETATM   22  C   UNL     1      -3.490  -0.734 -33.255  1.00  0.00     0.051 C 
HETATM   23  C   UNL     1      -5.809  -3.395 -34.688  1.00  0.00    -0.061 A 
HETATM   24  C   UNL     1      -5.724  -4.793 -35.227  1.00  0.00     0.048 C 
HETATM   25  C   UNL     1      -7.052  -2.769 -34.560  1.00  0.00     0.009 A 
HETATM   26  C   UNL     1      -7.146  -1.485 -34.017  1.00  0.00     0.038 A 
ENDBRANCH  18  19
ENDBRANCH  17  18
ENDBRANCH   1  17
TORSDOF 5
ENDMDL
MODEL 7
REMARK VINA RESULT:      -7.8      6.656     10.173
REMARK  5 active torsions:
REMARK  status: ('A' for Active; 'I' for Inactive)
REMARK    1  A    between atoms: C_6  and  O_7 
REMARK    2  A    between atoms: O_7  and  C_8 
REMARK    3  A    between atoms: C_8  and  C_9 
REMARK       I    between atoms: C_9  and  N_10 
REMARK    4  A    between atoms: N_10  and  N_11 
REMARK    5  A    between atoms: C_12  and  C_13 
ROOT
HETATM    1  C   UNL     1      -3.048   4.126 -32.241  1.00  0.00     0.261 C 
HETATM    2  N   UNL     1      -4.158   3.346 -31.953  1.00  0.00    -0.246 N 
HETATM    3  O   UNL     1      -2.340   4.013 -33.241  1.00  0.00    -0.269 OA
HETATM    4  H   UNL     1      -4.666   3.493 -31.086  1.00  0.00     0.192 HD
ENDROOT
BRANCH   2   5
HETATM    5  N   UNL     1      -4.527   2.366 -32.827  1.00  0.00    -0.184 NA
HETATM    6  C   UNL     1      -5.638   1.753 -32.585  1.00  0.00     0.152 C 
BRANCH   6   7
HETATM    7  C   UNL     1      -6.073   0.713 -33.498  1.00  0.00     0.011 A 
HETATM    8  C   UNL     1      -5.517  -0.595 -33.678  1.00  0.00     0.004 A 
HETATM    9  C   UNL     1      -6.277  -1.240 -34.658  1.00  0.00     0.043 A 
HETATM   10  C   UNL     1      -4.444  -1.303 -33.095  1.00  0.00     0.014 A 
HETATM   11  C   UNL     1      -6.020  -2.549 -35.082  1.00  0.00     0.030 A 
HETATM   12  N   UNL     1      -7.253  -0.358 -35.062  1.00  0.00    -0.364 N 
HETATM   13  C   UNL     1      -4.954  -3.226 -34.488  1.00  0.00     0.002 A 
HETATM   14  C   UNL     1      -4.176  -2.615 -33.507  1.00  0.00     0.001 A 
HETATM   15  H   UNL     1      -7.953  -0.556 -35.763  1.00  0.00     0.165 HD
HETATM   16  C   UNL     1      -7.142   0.814 -34.371  1.00  0.00     0.102 A 
ENDBRANCH   6   7
ENDBRANCH   2   5
BRANCH   1  17
HETATM   17  C   UNL     1      -2.819   5.252 -31.238  1.00  0.00     0.280 C 
BRANCH  17  18
HETATM   18  O   UNL     1      -1.654   6.017 -31.542  1.00  0.00    -0.342 OA
BRANCH  18  19
HETATM   19  C   UNL     1      -0.885   6.332 -30.446  1.00  0.00     0.075 A 
HETATM   20  C   UNL     1      -0.985   7.644 -29.957  1.00  0.00    -0.028 A 
HETATM   21  C   UNL     1      -0.242   8.011 -28.821  1.00  0.00     0.016 A 
HETATM   22  C   UNL     1      -1.919   8.640 -30.584  1.00  0.00     0.051 C 
HETATM   23  C   UNL     1       0.623   7.103 -28.197  1.00  0.00    -0.061 A 
HETATM   24  C   UNL     1       1.386   7.486 -26.964  1.00  0.00     0.048 C 
HETATM   25  C   UNL     1       0.730   5.809 -28.713  1.00  0.00     0.009 A 
HETATM   26  C   UNL     1      -0.010   5.429 -29.835  1.00  0.00     0.038 A 
ENDBRANCH  18  19
ENDBRANCH  17  18
ENDBRANCH   1  17
TORSDOF 5
ENDMDL
MODEL 8
REMARK VINA RESULT:      -7.4      7.459     10.771
REMARK  5 active torsions:
REMARK  status: ('A' for Active; 'I' for Inactive)
REMARK    1  A    between atoms: C_6  and  O_7 
REMARK    2  A    between atoms: O_7  and  C_8 
REMARK    3  A    between atoms: C_8  and  C_9 
REMARK       I    between atoms: C_9  and  N_10 
REMARK    4  A    between atoms: N_10  and  N_11 
REMARK    5  A    between atoms: C_12  and  C_13 
ROOT
HETATM    1  C   UNL     1      -3.908   3.584 -31.430  1.00  0.00     0.261 C 
HETATM    2  N   UNL     1      -2.711   4.286 -31.448  1.00  0.00    -0.246 N 
HETATM    3  O   UNL     1      -4.923   3.924 -30.823  1.00  0.00    -0.269 OA
HETATM    4  H   UNL     1      -1.916   3.911 -31.955  1.00  0.00     0.192 HD
ENDROOT
BRANCH   2   5
HETATM    5  N   UNL     1      -2.615   5.454 -30.750  1.00  0.00    -0.184 NA
HETATM    6  C   UNL     1      -1.426   5.876 -30.475  1.00  0.00     0.152 C 
BRANCH   6   7
HETATM    7  C   UNL     1      -1.280   7.122 -29.747  1.00  0.00     0.011 A 
HETATM    8  C   UNL     1      -0.324   7.444 -28.728  1.00  0.00     0.004 A 
HETATM    9  C   UNL     1      -0.565   8.762 -28.333  1.00  0.00     0.043 A 
HETATM   10  C   UNL     1       0.736   6.747 -28.109  1.00  0.00     0.014 A 
HETATM   11  C   UNL     1       0.194   9.415 -27.353  1.00  0.00     0.030 A 
HETATM   12  N   UNL     1      -1.628   9.222 -29.074  1.00  0.00    -0.364 N 
HETATM   13  C   UNL     1       1.236   8.701 -26.759  1.00  0.00     0.002 A 
HETATM   14  C   UNL     1       1.506   7.386 -27.130  1.00  0.00     0.001 A 
HETATM   15  H   UNL     1      -2.023  10.149 -29.001  1.00  0.00     0.165 HD
HETATM   16  C   UNL     1      -2.062   8.248 -29.927  1.00  0.00     0.102 A 
ENDBRANCH   6   7
ENDBRANCH   2   5
BRANCH   1  17
HETATM   17  C   UNL     1      -3.910   2.361 -32.341  1.00  0.00     0.280 C 
BRANCH  17  18
HETATM   18  O   UNL     1      -5.230   1.923 -32.655  1.00  0.00    -0.342 OA
BRANCH  18  19
HETATM   19  C   UNL     1      -5.295   0.648 -33.168  1.00  0.00     0.075 A 
HETATM   20  C   UNL     1      -6.358   0.369 -34.040  1.00  0.00    -0.028 A 
HETATM   21  C   UNL     1      -6.455  -0.911 -34.616  1.00  0.00     0.016 A 
HETATM   22  C   UNL     1      -7.354   1.428 -34.419  1.00  0.00     0.051 C 
HETATM   23  C   UNL     1      -5.533  -1.917 -34.302  1.00  0.00    -0.061 A 
HETATM   24  C   UNL     1      -5.616  -3.269 -34.946  1.00  0.00     0.048 C 
HETATM   25  C   UNL     1      -4.495  -1.629 -33.412  1.00  0.00     0.009 A 
HETATM   26  C   UNL     1      -4.382  -0.359 -32.842  1.00  0.00     0.038 A 
ENDBRANCH  18  19
ENDBRANCH  17  18
ENDBRANCH   1  17
TORSDOF 5
ENDMDL
MODEL 9
REMARK VINA RESULT:      -7.4      1.613      1.989
REMARK  5 active torsions:
REMARK  status: ('A' for Active; 'I' for Inactive)
REMARK    1  A    between atoms: C_6  and  O_7 
REMARK    2  A    between atoms: O_7  and  C_8 
REMARK    3  A    between atoms: C_8  and  C_9 
REMARK       I    between atoms: C_9  and  N_10 
REMARK    4  A    between atoms: N_10  and  N_11 
REMARK    5  A    between atoms: C_12  and  C_13 
ROOT
HETATM    1  C   UNL     1      -8.756   1.931 -31.336  1.00  0.00     0.261 C 
HETATM    2  N   UNL     1      -7.508   1.773 -30.752  1.00  0.00    -0.246 N 
HETATM    3  O   UNL     1      -9.278   1.141 -32.123  1.00  0.00    -0.269 OA
HETATM    4  H   UNL     1      -7.147   2.495 -30.135  1.00  0.00     0.192 HD
ENDROOT
BRANCH   2   5
HETATM    5  N   UNL     1      -6.770   0.665 -31.048  1.00  0.00    -0.184 NA
HETATM    6  C   UNL     1      -5.791   0.817 -31.878  1.00  0.00     0.152 C 
BRANCH   6   7
HETATM    7  C   UNL     1      -4.973  -0.334 -32.208  1.00  0.00     0.011 A 
HETATM    8  C   UNL     1      -5.267  -1.392 -33.129  1.00  0.00     0.004 A 
HETATM    9  C   UNL     1      -4.177  -2.266 -33.121  1.00  0.00     0.043 A 
HETATM   10  C   UNL     1      -6.351  -1.689 -33.983  1.00  0.00     0.014 A 
HETATM   11  C   UNL     1      -4.116  -3.417 -33.916  1.00  0.00     0.030 A 
HETATM   12  N   UNL     1      -3.260  -1.764 -32.227  1.00  0.00    -0.364 N 
HETATM   13  C   UNL     1      -5.202  -3.685 -34.752  1.00  0.00     0.002 A 
HETATM   14  C   UNL     1      -6.305  -2.835 -34.787  1.00  0.00     0.001 A 
HETATM   15  H   UNL     1      -2.368  -2.191 -32.016  1.00  0.00     0.165 HD
HETATM   16  C   UNL     1      -3.726  -0.605 -31.677  1.00  0.00     0.102 A 
ENDBRANCH   6   7
ENDBRANCH   2   5
BRANCH   1  17
HETATM   17  C   UNL     1      -9.516   3.152 -30.830  1.00  0.00     0.280 C 
BRANCH  17  18
HETATM   18  O   UNL     1     -10.161   3.863 -31.885  1.00  0.00    -0.342 OA
BRANCH  18  19
HETATM   19  C   UNL     1     -11.532   3.747 -31.886  1.00  0.00     0.075 A 
HETATM   20  C   UNL     1     -12.126   3.252 -33.058  1.00  0.00    -0.028 A 
HETATM   21  C   UNL     1     -13.522   3.087 -33.103  1.00  0.00     0.016 A 
HETATM   22  C   UNL     1     -11.293   2.836 -34.237  1.00  0.00     0.051 C 
HETATM   23  C   UNL     1     -14.328   3.444 -32.015  1.00  0.00    -0.061 A 
HETATM   24  C   UNL     1     -15.812   3.232 -32.051  1.00  0.00     0.048 C 
HETATM   25  C   UNL     1     -13.723   3.960 -30.865  1.00  0.00     0.009 A 
HETATM   26  C   UNL     1     -12.336   4.119 -30.805  1.00  0.00     0.038 A 
ENDBRANCH  18  19
ENDBRANCH  17  18
ENDBRANCH   1  17
TORSDOF 5
ENDMDL
MODEL 10
REMARK VINA RESULT:      -7.2      2.900      3.479
REMARK  5 active torsions:
REMARK  status: ('A' for Active; 'I' for Inactive)
REMARK    1  A    between atoms: C_6  and  O_7 
REMARK    2  A    between atoms: O_7  and  C_8 
REMARK    3  A    between atoms: C_8  and  C_9 
REMARK       I    between atoms: C_9  and  N_10 
REMARK    4  A    between atoms: N_10  and  N_11 
REMARK    5  A    between atoms: C_12  and  C_13 
ROOT
HETATM    1  C   UNL     1      -7.647   3.582 -33.464  1.00  0.00     0.261 C 
HETATM    2  N   UNL     1      -7.865   2.224 -33.647  1.00  0.00    -0.246 N 
HETATM    3  O   UNL     1      -6.550   4.107 -33.280  1.00  0.00    -0.269 OA
HETATM    4  H   UNL     1      -8.812   1.877 -33.763  1.00  0.00     0.192 HD
ENDROOT
BRANCH   2   5
HETATM    5  N   UNL     1      -6.800   1.371 -33.629  1.00  0.00    -0.184 NA
HETATM    6  C   UNL     1      -7.052   0.117 -33.808  1.00  0.00     0.152 C 
BRANCH   6   7
HETATM    7  C   UNL     1      -5.946  -0.821 -33.810  1.00  0.00     0.011 A 
HETATM    8  C   UNL     1      -5.960  -2.205 -34.185  1.00  0.00     0.004 A 
HETATM    9  C   UNL     1      -4.658  -2.690 -34.035  1.00  0.00     0.043 A 
HETATM   10  C   UNL     1      -6.952  -3.094 -34.651  1.00  0.00     0.014 A 
HETATM   11  C   UNL     1      -4.300  -4.013 -34.324  1.00  0.00     0.030 A 
HETATM   12  N   UNL     1      -3.884  -1.648 -33.582  1.00  0.00    -0.364 N 
HETATM   13  C   UNL     1      -5.302  -4.870 -34.783  1.00  0.00     0.002 A 
HETATM   14  C   UNL     1      -6.610  -4.420 -34.947  1.00  0.00     0.001 A 
HETATM   15  H   UNL     1      -2.894  -1.708 -33.385  1.00  0.00     0.165 HD
HETATM   16  C   UNL     1      -4.645  -0.522 -33.447  1.00  0.00     0.102 A 
ENDBRANCH   6   7
ENDBRANCH   2   5
BRANCH   1  17
HETATM   17  C   UNL     1      -8.907   4.427 -33.621  1.00  0.00     0.280 C 
BRANCH  17  18
HETATM   18  O   UNL     1      -9.737   3.968 -34.685  1.00  0.00    -0.342 OA
BRANCH  18  19
HETATM   19  C   UNL     1     -10.670   4.885 -35.108  1.00  0.00     0.075 A 
HETATM   20  C   UNL     1     -11.962   4.401 -35.370  1.00  0.00    -0.028 A 
HETATM   21  C   UNL     1     -12.963   5.302 -35.778  1.00  0.00     0.016 A 
HETATM   22  C   UNL     1     -12.309   2.955 -35.160  1.00  0.00     0.051 C 
HETATM   23  C   UNL     1     -12.680   6.661 -35.963  1.00  0.00    -0.061 A 
HETATM   24  C   UNL     1     -13.758   7.625 -36.362  1.00  0.00     0.048 C 
HETATM   25  C   UNL     1     -11.383   7.121 -35.724  1.00  0.00     0.009 A 
HETATM   26  C   UNL     1     -10.383   6.239 -35.308  1.00  0.00     0.038 A 
ENDBRANCH  18  19
ENDBRANCH  17  18
ENDBRANCH   1  17
TORSDOF 5
ENDMDL
