MODEL 1
REMARK VINA RESULT:      -7.5      0.000      0.000
REMARK  4 active torsions:
REMARK  status: ('A' for Active; 'I' for Inactive)
REMARK    1  A    between atoms: C_2  and  C_3 
REMARK    2  A    between atoms: C_3  and  C_4 
REMARK    3  A    between atoms: C_4  and  C_5 
REMARK    4  A    between atoms: C_25  and  N_26 
ROOT
HETATM    1  C   UNL     1      -7.923   3.395 -30.880  1.00  0.00     0.067 A 
HETATM    2  N   UNL     1      -8.027   4.716 -30.652  1.00  0.00    -0.177 NA
HETATM    3  N   UNL     1      -6.764   5.174 -30.747  1.00  0.00    -0.256 N 
HETATM    4  H   UNL     1      -6.587   6.160 -30.586  1.00  0.00     0.191 HD
HETATM    5  C   UNL     1      -5.873   4.193 -31.032  1.00  0.00     0.176 A 
HETATM    6  C   UNL     1      -6.584   3.026 -31.168  1.00  0.00     0.049 A 
HETATM    7  C   UNL     1      -5.854   1.765 -31.484  1.00  0.00     0.144 A 
HETATM    8  C   UNL     1      -6.225   0.627 -30.494  1.00  0.00     0.246 A 
HETATM    9  O   UNL     1      -5.990   0.571 -29.298  1.00  0.00    -0.271 OA
HETATM   10  N   UNL     1      -6.867  -0.363 -31.229  1.00  0.00    -0.325 N 
HETATM   11  C   UNL     1      -6.965  -0.021 -32.570  1.00  0.00     0.043 A 
HETATM   12  C   UNL     1      -6.393   1.239 -32.804  1.00  0.00     0.003 A 
HETATM   13  C   UNL     1      -7.540  -0.786 -33.563  1.00  0.00     0.030 A 
HETATM   14  C   UNL     1      -7.539  -0.263 -34.853  1.00  0.00     0.003 A 
HETATM   15  C   UNL     1      -6.967   0.994 -35.117  1.00  0.00     0.007 A 
HETATM   16  C   UNL     1      -6.375   1.764 -34.098  1.00  0.00    -0.051 A 
HETATM   17  C   UNL     1      -5.780   3.098 -34.435  1.00  0.00     0.049 C 
HETATM   18  C   UNL     1      -4.348   1.986 -31.457  1.00  0.00     0.081 A 
HETATM   19  C   UNL     1      -3.464   0.752 -31.517  1.00  0.00     0.021 C 
HETATM   20  N   UNL     1      -2.731  -0.274 -31.567  1.00  0.00    -0.096 N 
HETATM   21  C   UNL     1      -3.780   3.211 -31.283  1.00  0.00     0.140 A 
HETATM   22  O   UNL     1      -4.559   4.371 -31.124  1.00  0.00    -0.279 OA
HETATM   23  H   UNL     1      -7.193  -1.226 -30.816  1.00  0.00     0.169 HD
ENDROOT
BRANCH  21  24
HETATM   24  N   UNL     1      -2.429   3.467 -31.226  1.00  0.00    -0.282 NA
HETATM   25  H   UNL     1      -1.914   2.953 -30.514  1.00  0.00     0.126 HD
HETATM   26  H   UNL     1      -2.234   4.465 -31.203  1.00  0.00     0.126 HD
ENDBRANCH  21  24
BRANCH   1  27
HETATM   27  C   UNL     1      -9.144   2.538 -30.774  1.00  0.00     0.062 C 
BRANCH  27  28
HETATM   28  C   UNL     1     -10.201   2.923 -31.814  1.00  0.00     0.006 C 
BRANCH  28  29
HETATM   29  C   UNL     1      -9.907   2.300 -33.177  1.00  0.00    -0.004 C 
HETATM   30  C   UNL     1     -10.738   1.046 -33.402  1.00  0.00     0.005 C 
ENDBRANCH  28  29
ENDBRANCH  27  28
ENDBRANCH   1  27
TORSDOF 4
ENDMDL
MODEL 2
REMARK VINA RESULT:      -7.4      1.864      4.467
REMARK  4 active torsions:
REMARK  status: ('A' for Active; 'I' for Inactive)
REMARK    1  A    between atoms: C_2  and  C_3 
REMARK    2  A    between atoms: C_3  and  C_4 
REMARK    3  A    between atoms: C_4  and  C_5 
REMARK    4  A    between atoms: C_25  and  N_26 
ROOT
HETATM    1  C   UNL     1      -5.842   0.836 -33.713  1.00  0.00     0.067 A 
HETATM    2  N   UNL     1      -5.114  -0.292 -33.625  1.00  0.00    -0.177 NA
HETATM    3  N   UNL     1      -4.045   0.055 -32.885  1.00  0.00    -0.256 N 
HETATM    4  H   UNL     1      -3.329  -0.640 -32.703  1.00  0.00     0.191 HD
HETATM    5  C   UNL     1      -4.075   1.354 -32.500  1.00  0.00     0.176 A 
HETATM    6  C   UNL     1      -5.244   1.892 -32.979  1.00  0.00     0.049 A 
HETATM    7  C   UNL     1      -5.549   3.326 -32.705  1.00  0.00     0.144 A 
HETATM    8  C   UNL     1      -5.908   4.092 -34.007  1.00  0.00     0.246 A 
HETATM    9  O   UNL     1      -5.182   4.332 -34.958  1.00  0.00    -0.271 OA
HETATM   10  N   UNL     1      -7.234   4.494 -33.894  1.00  0.00    -0.325 N 
HETATM   11  C   UNL     1      -7.788   4.091 -32.687  1.00  0.00     0.043 A 
HETATM   12  C   UNL     1      -6.851   3.379 -31.924  1.00  0.00     0.003 A 
HETATM   13  C   UNL     1      -9.078   4.336 -32.265  1.00  0.00     0.030 A 
HETATM   14  C   UNL     1      -9.444   3.845 -31.015  1.00  0.00     0.003 A 
HETATM   15  C   UNL     1      -8.523   3.134 -30.225  1.00  0.00     0.007 A 
HETATM   16  C   UNL     1      -7.205   2.896 -30.662  1.00  0.00    -0.051 A 
HETATM   17  C   UNL     1      -6.264   2.131 -29.781  1.00  0.00     0.049 C 
HETATM   18  C   UNL     1      -4.371   4.012 -32.025  1.00  0.00     0.081 A 
HETATM   19  C   UNL     1      -4.428   5.525 -31.900  1.00  0.00     0.021 C 
HETATM   20  N   UNL     1      -4.476   6.781 -31.798  1.00  0.00    -0.096 N 
HETATM   21  C   UNL     1      -3.253   3.346 -31.626  1.00  0.00     0.140 A 
HETATM   22  O   UNL     1      -3.114   1.959 -31.810  1.00  0.00    -0.279 OA
HETATM   23  H   UNL     1      -7.705   5.033 -34.608  1.00  0.00     0.169 HD
ENDROOT
BRANCH  21  24
HETATM   24  N   UNL     1      -2.152   3.917 -31.030  1.00  0.00    -0.282 NA
HETATM   25  H   UNL     1      -2.231   4.909 -30.820  1.00  0.00     0.126 HD
HETATM   26  H   UNL     1      -1.294   3.692 -31.528  1.00  0.00     0.126 HD
ENDBRANCH  21  24
BRANCH   1  27
HETATM   27  C   UNL     1      -7.085   0.840 -34.544  1.00  0.00     0.062 C 
BRANCH  27  28
HETATM   28  C   UNL     1      -8.099  -0.200 -34.056  1.00  0.00     0.006 C 
BRANCH  28  29
HETATM   29  C   UNL     1      -8.761   0.226 -32.747  1.00  0.00    -0.004 C 
HETATM   30  C   UNL     1     -10.156   0.780 -32.988  1.00  0.00     0.005 C 
ENDBRANCH  28  29
ENDBRANCH  27  28
ENDBRANCH   1  27
TORSDOF 4
ENDMDL
MODEL 3
REMARK VINA RESULT:      -7.3      2.395      5.109
REMARK  4 active torsions:
REMARK  status: ('A' for Active; 'I' for Inactive)
REMARK    1  A    between atoms: C_2  and  C_3 
REMARK    2  A    between atoms: C_3  and  C_4 
REMARK    3  A    between atoms: C_4  and  C_5 
REMARK    4  A    between atoms: C_25  and  N_26 
ROOT
HETATM    1  C   UNL     1      -6.412   0.087 -34.259  1.00  0.00     0.067 A 
HETATM    2  N   UNL     1      -7.151  -0.175 -35.352  1.00  0.00    -0.177 NA
HETATM    3  N   UNL     1      -8.224   0.630 -35.233  1.00  0.00    -0.256 N 
HETATM    4  H   UNL     1      -8.947   0.590 -35.942  1.00  0.00     0.191 HD
HETATM    5  C   UNL     1      -8.184   1.390 -34.111  1.00  0.00     0.176 A 
HETATM    6  C   UNL     1      -7.006   1.103 -33.468  1.00  0.00     0.049 A 
HETATM    7  C   UNL     1      -6.690   1.799 -32.187  1.00  0.00     0.144 A 
HETATM    8  C   UNL     1      -6.312   0.792 -31.068  1.00  0.00     0.246 A 
HETATM    9  O   UNL     1      -7.028  -0.046 -30.542  1.00  0.00    -0.271 OA
HETATM   10  N   UNL     1      -4.984   1.029 -30.733  1.00  0.00    -0.325 N 
HETATM   11  C   UNL     1      -4.444   2.060 -31.489  1.00  0.00     0.043 A 
HETATM   12  C   UNL     1      -5.394   2.568 -32.388  1.00  0.00     0.003 A 
HETATM   13  C   UNL     1      -3.156   2.544 -31.398  1.00  0.00     0.030 A 
HETATM   14  C   UNL     1      -2.805   3.589 -32.249  1.00  0.00     0.003 A 
HETATM   15  C   UNL     1      -3.740   4.121 -33.155  1.00  0.00     0.007 A 
HETATM   16  C   UNL     1      -5.056   3.625 -33.234  1.00  0.00    -0.051 A 
HETATM   17  C   UNL     1      -6.011   4.229 -34.219  1.00  0.00     0.049 C 
HETATM   18  C   UNL     1      -7.867   2.648 -31.725  1.00  0.00     0.081 A 
HETATM   19  C   UNL     1      -7.797   3.226 -30.322  1.00  0.00     0.021 C 
HETATM   20  N   UNL     1      -7.738   3.704 -29.156  1.00  0.00    -0.096 N 
HETATM   21  C   UNL     1      -8.995   2.821 -32.468  1.00  0.00     0.140 A 
HETATM   22  O   UNL     1      -9.146   2.225 -33.732  1.00  0.00    -0.279 OA
HETATM   23  H   UNL     1      -4.502   0.514 -30.010  1.00  0.00     0.169 HD
ENDROOT
BRANCH  21  24
HETATM   24  N   UNL     1     -10.096   3.557 -32.092  1.00  0.00    -0.282 NA
HETATM   25  H   UNL     1     -10.799   3.695 -32.814  1.00  0.00     0.126 HD
HETATM   26  H   UNL     1      -9.831   4.426 -31.635  1.00  0.00     0.126 HD
ENDBRANCH  21  24
BRANCH   1  27
HETATM   27  C   UNL     1      -5.162  -0.697 -34.018  1.00  0.00     0.062 C 
BRANCH  27  28
HETATM   28  C   UNL     1      -5.460  -2.174 -33.741  1.00  0.00     0.006 C 
BRANCH  28  29
HETATM   29  C   UNL     1      -5.283  -3.031 -34.993  1.00  0.00    -0.004 C 
HETATM   30  C   UNL     1      -6.372  -4.088 -35.098  1.00  0.00     0.005 C 
ENDBRANCH  28  29
ENDBRANCH  27  28
ENDBRANCH   1  27
TORSDOF 4
ENDMDL
MODEL 4
REMARK VINA RESULT:      -7.1     16.016     18.044
REMARK  4 active torsions:
REMARK  status: ('A' for Active; 'I' for Inactive)
REMARK    1  A    between atoms: C_2  and  C_3 
REMARK    2  A    between atoms: C_3  and  C_4 
REMARK    3  A    between atoms: C_4  and  C_5 
REMARK    4  A    between atoms: C_25  and  N_26 
ROOT
HETATM    1  C   UNL     1      -4.946 -13.292 -41.057  1.00  0.00     0.067 A 
HETATM    2  N   UNL     1      -4.694 -13.609 -42.339  1.00  0.00    -0.177 NA
HETATM    3  N   UNL     1      -3.600 -14.391 -42.284  1.00  0.00    -0.256 N 
HETATM    4  H   UNL     1      -3.201 -14.739 -43.149  1.00  0.00     0.191 HD
HETATM    5  C   UNL     1      -3.158 -14.582 -41.016  1.00  0.00     0.176 A 
HETATM    6  C   UNL     1      -4.026 -13.922 -40.181  1.00  0.00     0.049 A 
HETATM    7  C   UNL     1      -3.784 -13.958 -38.710  1.00  0.00     0.144 A 
HETATM    8  C   UNL     1      -3.785 -12.532 -38.096  1.00  0.00     0.246 A 
HETATM    9  O   UNL     1      -2.987 -11.630 -38.297  1.00  0.00    -0.271 OA
HETATM   10  N   UNL     1      -4.869 -12.459 -37.228  1.00  0.00    -0.325 N 
HETATM   11  C   UNL     1      -5.577 -13.652 -37.195  1.00  0.00     0.043 A 
HETATM   12  C   UNL     1      -5.000 -14.596 -38.059  1.00  0.00     0.003 A 
HETATM   13  C   UNL     1      -6.697 -13.910 -36.433  1.00  0.00     0.030 A 
HETATM   14  C   UNL     1      -7.265 -15.176 -36.542  1.00  0.00     0.003 A 
HETATM   15  C   UNL     1      -6.704 -16.143 -37.394  1.00  0.00     0.007 A 
HETATM   16  C   UNL     1      -5.555 -15.873 -38.162  1.00  0.00    -0.051 A 
HETATM   17  C   UNL     1      -4.999 -16.941 -39.056  1.00  0.00     0.049 C 
HETATM   18  C   UNL     1      -2.461 -14.643 -38.392  1.00  0.00     0.081 A 
HETATM   19  C   UNL     1      -1.956 -14.545 -36.962  1.00  0.00     0.021 C 
HETATM   20  N   UNL     1      -1.536 -14.462 -35.776  1.00  0.00    -0.096 N 
HETATM   21  C   UNL     1      -1.687 -15.238 -39.339  1.00  0.00     0.140 A 
HETATM   22  O   UNL     1      -2.067 -15.268 -40.693  1.00  0.00    -0.279 OA
HETATM   23  H   UNL     1      -5.079 -11.634 -36.684  1.00  0.00     0.169 HD
ENDROOT
BRANCH  21  24
HETATM   24  N   UNL     1      -0.474 -15.850 -39.114  1.00  0.00    -0.282 NA
HETATM   25  H   UNL     1      -0.399 -16.368 -38.241  1.00  0.00     0.126 HD
HETATM   26  H   UNL     1       0.303 -15.209 -39.254  1.00  0.00     0.126 HD
ENDBRANCH  21  24
BRANCH   1  27
HETATM   27  C   UNL     1      -6.067 -12.354 -40.743  1.00  0.00     0.062 C 
BRANCH  27  28
HETATM   28  C   UNL     1      -7.391 -13.097 -40.539  1.00  0.00     0.006 C 
BRANCH  28  29
HETATM   29  C   UNL     1      -8.249 -12.439 -39.460  1.00  0.00    -0.004 C 
HETATM   30  C   UNL     1      -9.383 -13.352 -39.022  1.00  0.00     0.005 C 
ENDBRANCH  28  29
ENDBRANCH  27  28
ENDBRANCH   1  27
TORSDOF 4
ENDMDL
MODEL 5
REMARK VINA RESULT:      -7.1      2.174      3.167
REMARK  4 active torsions:
REMARK  status: ('A' for Active; 'I' for Inactive)
REMARK    1  A    between atoms: C_2  and  C_3 
REMARK    2  A    between atoms: C_3  and  C_4 
REMARK    3  A    between atoms: C_4  and  C_5 
REMARK    4  A    between atoms: C_25  and  N_26 
ROOT
HETATM    1  C   UNL     1      -8.316   4.658 -31.928  1.00  0.00     0.067 A 
HETATM    2  N   UNL     1      -9.071   5.270 -32.857  1.00  0.00    -0.177 NA
HETATM    3  N   UNL     1      -8.196   5.648 -33.807  1.00  0.00    -0.256 N 
HETATM    4  H   UNL     1      -8.538   6.160 -34.613  1.00  0.00     0.191 HD
HETATM    5  C   UNL     1      -6.921   5.291 -33.515  1.00  0.00     0.176 A 
HETATM    6  C   UNL     1      -6.954   4.609 -32.324  1.00  0.00     0.049 A 
HETATM    7  C   UNL     1      -5.679   4.092 -31.748  1.00  0.00     0.144 A 
HETATM    8  C   UNL     1      -5.501   4.531 -30.270  1.00  0.00     0.246 A 
HETATM    9  O   UNL     1      -5.343   5.663 -29.839  1.00  0.00    -0.271 OA
HETATM   10  N   UNL     1      -5.524   3.378 -29.493  1.00  0.00    -0.325 N 
HETATM   11  C   UNL     1      -5.696   2.243 -30.272  1.00  0.00     0.043 A 
HETATM   12  C   UNL     1      -5.807   2.582 -31.629  1.00  0.00     0.003 A 
HETATM   13  C   UNL     1      -5.756   0.944 -29.811  1.00  0.00     0.030 A 
HETATM   14  C   UNL     1      -5.934  -0.061 -30.757  1.00  0.00     0.003 A 
HETATM   15  C   UNL     1      -6.041   0.250 -32.123  1.00  0.00     0.007 A 
HETATM   16  C   UNL     1      -5.970   1.579 -32.586  1.00  0.00    -0.051 A 
HETATM   17  C   UNL     1      -6.092   1.855 -34.054  1.00  0.00     0.049 C 
HETATM   18  C   UNL     1      -4.483   4.566 -32.563  1.00  0.00     0.081 A 
HETATM   19  C   UNL     1      -3.104   4.329 -31.972  1.00  0.00     0.021 C 
HETATM   20  N   UNL     1      -1.959   4.133 -31.480  1.00  0.00    -0.096 N 
HETATM   21  C   UNL     1      -4.606   5.265 -33.724  1.00  0.00     0.140 A 
HETATM   22  O   UNL     1      -5.864   5.594 -34.260  1.00  0.00    -0.279 OA
HETATM   23  H   UNL     1      -5.406   3.392 -28.490  1.00  0.00     0.169 HD
ENDROOT
BRANCH  21  24
HETATM   24  N   UNL     1      -3.563   5.738 -34.488  1.00  0.00    -0.282 NA
HETATM   25  H   UNL     1      -3.775   5.897 -35.471  1.00  0.00     0.126 HD
HETATM   26  H   UNL     1      -2.719   5.186 -34.358  1.00  0.00     0.126 HD
ENDBRANCH  21  24
BRANCH   1  27
HETATM   27  C   UNL     1      -8.958   4.169 -30.670  1.00  0.00     0.062 C 
BRANCH  27  28
HETATM   28  C   UNL     1      -9.244   2.665 -30.723  1.00  0.00     0.006 C 
BRANCH  28  29
HETATM   29  C   UNL     1      -9.629   2.212 -32.130  1.00  0.00    -0.004 C 
HETATM   30  C   UNL     1      -9.561   0.699 -32.262  1.00  0.00     0.005 C 
ENDBRANCH  28  29
ENDBRANCH  27  28
ENDBRANCH   1  27
TORSDOF 4
ENDMDL
MODEL 6
REMARK VINA RESULT:      -6.9      2.649      4.861
REMARK  4 active torsions:
REMARK  status: ('A' for Active; 'I' for Inactive)
REMARK    1  A    between atoms: C_2  and  C_3 
REMARK    2  A    between atoms: C_3  and  C_4 
REMARK    3  A    between atoms: C_4  and  C_5 
REMARK    4  A    between atoms: C_25  and  N_26 
ROOT
HETATM    1  C   UNL     1      -9.406   1.626 -33.270  1.00  0.00     0.067 A 
HETATM    2  N   UNL     1     -10.049   1.505 -34.445  1.00  0.00    -0.177 NA
HETATM    3  N   UNL     1     -10.120   2.762 -34.921  1.00  0.00    -0.256 N 
HETATM    4  H   UNL     1     -10.593   2.926 -35.802  1.00  0.00     0.191 HD
HETATM    5  C   UNL     1      -9.541   3.667 -34.093  1.00  0.00     0.176 A 
HETATM    6  C   UNL     1      -9.026   2.971 -33.028  1.00  0.00     0.049 A 
HETATM    7  C   UNL     1      -8.326   3.718 -31.944  1.00  0.00     0.144 A 
HETATM    8  C   UNL     1      -8.889   3.356 -30.543  1.00  0.00     0.246 A 
HETATM    9  O   UNL     1     -10.005   3.584 -30.104  1.00  0.00    -0.271 OA
HETATM   10  N   UNL     1      -7.867   2.730 -29.839  1.00  0.00    -0.325 N 
HETATM   11  C   UNL     1      -6.709   2.636 -30.597  1.00  0.00     0.043 A 
HETATM   12  C   UNL     1      -6.901   3.194 -31.870  1.00  0.00     0.003 A 
HETATM   13  C   UNL     1      -5.516   2.076 -30.190  1.00  0.00     0.030 A 
HETATM   14  C   UNL     1      -4.465   2.079 -31.103  1.00  0.00     0.003 A 
HETATM   15  C   UNL     1      -4.628   2.637 -32.383  1.00  0.00     0.007 A 
HETATM   16  C   UNL     1      -5.848   3.213 -32.787  1.00  0.00    -0.051 A 
HETATM   17  C   UNL     1      -5.968   3.794 -34.164  1.00  0.00     0.049 C 
HETATM   18  C   UNL     1      -8.438   5.222 -32.159  1.00  0.00     0.081 A 
HETATM   19  C   UNL     1      -7.989   6.121 -31.020  1.00  0.00     0.021 C 
HETATM   20  N   UNL     1      -7.616   6.866 -30.073  1.00  0.00    -0.096 N 
HETATM   21  C   UNL     1      -9.005   5.773 -33.267  1.00  0.00     0.140 A 
HETATM   22  O   UNL     1      -9.525   4.979 -34.305  1.00  0.00    -0.279 OA
HETATM   23  H   UNL     1      -7.975   2.413 -28.886  1.00  0.00     0.169 HD
ENDROOT
BRANCH  21  24
HETATM   24  N   UNL     1      -9.155   7.121 -33.503  1.00  0.00    -0.282 NA
HETATM   25  H   UNL     1      -8.705   7.471 -34.346  1.00  0.00     0.126 HD
HETATM   26  H   UNL     1      -8.927   7.676 -32.682  1.00  0.00     0.126 HD
ENDBRANCH  21  24
BRANCH   1  27
HETATM   27  C   UNL     1      -9.216   0.415 -32.413  1.00  0.00     0.062 C 
BRANCH  27  28
HETATM   28  C   UNL     1      -8.356  -0.645 -33.109  1.00  0.00     0.006 C 
BRANCH  28  29
HETATM   29  C   UNL     1      -6.864  -0.364 -32.937  1.00  0.00    -0.004 C 
HETATM   30  C   UNL     1      -6.175  -0.197 -34.282  1.00  0.00     0.005 C 
ENDBRANCH  28  29
ENDBRANCH  27  28
ENDBRANCH   1  27
TORSDOF 4
ENDMDL
MODEL 7
REMARK VINA RESULT:      -6.9     16.696     18.787
REMARK  4 active torsions:
REMARK  status: ('A' for Active; 'I' for Inactive)
REMARK    1  A    between atoms: C_2  and  C_3 
REMARK    2  A    between atoms: C_3  and  C_4 
REMARK    3  A    between atoms: C_4  and  C_5 
REMARK    4  A    between atoms: C_25  and  N_26 
ROOT
HETATM    1  C   UNL     1      -2.735 -14.347 -39.043  1.00  0.00     0.067 A 
HETATM    2  N   UNL     1      -1.597 -13.753 -39.442  1.00  0.00    -0.177 NA
HETATM    3  N   UNL     1      -1.771 -13.545 -40.761  1.00  0.00    -0.256 N 
HETATM    4  H   UNL     1      -1.019 -13.122 -41.294  1.00  0.00     0.191 HD
HETATM    5  C   UNL     1      -2.977 -13.980 -41.203  1.00  0.00     0.176 A 
HETATM    6  C   UNL     1      -3.655 -14.470 -40.115  1.00  0.00     0.049 A 
HETATM    7  C   UNL     1      -5.026 -15.025 -40.305  1.00  0.00     0.144 A 
HETATM    8  C   UNL     1      -5.158 -16.444 -39.690  1.00  0.00     0.246 A 
HETATM    9  O   UNL     1      -4.596 -17.469 -40.045  1.00  0.00    -0.271 OA
HETATM   10  N   UNL     1      -6.075 -16.357 -38.649  1.00  0.00    -0.325 N 
HETATM   11  C   UNL     1      -6.560 -15.065 -38.503  1.00  0.00     0.043 A 
HETATM   12  C   UNL     1      -5.976 -14.206 -39.446  1.00  0.00     0.003 A 
HETATM   13  C   UNL     1      -7.485 -14.647 -37.570  1.00  0.00     0.030 A 
HETATM   14  C   UNL     1      -7.843 -13.301 -37.585  1.00  0.00     0.003 A 
HETATM   15  C   UNL     1      -7.279 -12.420 -38.524  1.00  0.00     0.007 A 
HETATM   16  C   UNL     1      -6.341 -12.859 -39.479  1.00  0.00    -0.051 A 
HETATM   17  C   UNL     1      -5.771 -11.876 -40.456  1.00  0.00     0.049 C 
HETATM   18  C   UNL     1      -5.392 -15.079 -41.782  1.00  0.00     0.081 A 
HETATM   19  C   UNL     1      -6.652 -15.840 -42.157  1.00  0.00     0.021 C 
HETATM   20  N   UNL     1      -7.698 -16.473 -42.468  1.00  0.00    -0.096 N 
HETATM   21  C   UNL     1      -4.598 -14.569 -42.763  1.00  0.00     0.140 A 
HETATM   22  O   UNL     1      -3.373 -13.942 -42.471  1.00  0.00    -0.279 OA
HETATM   23  H   UNL     1      -6.354 -17.157 -38.097  1.00  0.00     0.169 HD
ENDROOT
BRANCH  21  24
HETATM   24  N   UNL     1      -4.865 -14.610 -44.112  1.00  0.00    -0.282 NA
HETATM   25  H   UNL     1      -4.312 -15.274 -44.650  1.00  0.00     0.126 HD
HETATM   26  H   UNL     1      -4.866 -13.680 -44.525  1.00  0.00     0.126 HD
ENDBRANCH  21  24
BRANCH   1  27
HETATM   27  C   UNL     1      -2.862 -14.799 -37.623  1.00  0.00     0.062 C 
BRANCH  27  28
HETATM   28  C   UNL     1      -2.772 -13.627 -36.642  1.00  0.00     0.006 C 
BRANCH  28  29
HETATM   29  C   UNL     1      -4.116 -12.919 -36.481  1.00  0.00    -0.004 C 
HETATM   30  C   UNL     1      -4.863 -13.424 -35.257  1.00  0.00     0.005 C 
ENDBRANCH  28  29
ENDBRANCH  27  28
ENDBRANCH   1  27
TORSDOF 4
ENDMDL
MODEL 8
REMARK VINA RESULT:      -6.9      2.712      5.614
REMARK  4 active torsions:
REMARK  status: ('A' for Active; 'I' for Inactive)
REMARK    1  A    between atoms: C_2  and  C_3 
REMARK    2  A    between atoms: C_3  and  C_4 
REMARK    3  A    between atoms: C_4  and  C_5 
REMARK    4  A    between atoms: C_25  and  N_26 
ROOT
HETATM    1  C   UNL     1      -5.279   1.668 -33.011  1.00  0.00     0.067 A 
HETATM    2  N   UNL     1      -5.981   0.902 -33.864  1.00  0.00    -0.177 NA
HETATM    3  N   UNL     1      -6.876   1.744 -34.413  1.00  0.00    -0.256 N 
HETATM    4  H   UNL     1      -7.545   1.381 -35.084  1.00  0.00     0.191 HD
HETATM    5  C   UNL     1      -6.759   3.011 -33.942  1.00  0.00     0.176 A 
HETATM    6  C   UNL     1      -5.708   3.019 -33.060  1.00  0.00     0.049 A 
HETATM    7  C   UNL     1      -5.344   4.294 -32.377  1.00  0.00     0.144 A 
HETATM    8  C   UNL     1      -5.251   4.112 -30.838  1.00  0.00     0.246 A 
HETATM    9  O   UNL     1      -6.153   3.846 -30.060  1.00  0.00    -0.271 OA
HETATM   10  N   UNL     1      -3.927   4.335 -30.478  1.00  0.00    -0.325 N 
HETATM   11  C   UNL     1      -3.142   4.640 -31.581  1.00  0.00     0.043 A 
HETATM   12  C   UNL     1      -3.910   4.627 -32.756  1.00  0.00     0.003 A 
HETATM   13  C   UNL     1      -1.792   4.920 -31.565  1.00  0.00     0.030 A 
HETATM   14  C   UNL     1      -1.184   5.203 -32.785  1.00  0.00     0.003 A 
HETATM   15  C   UNL     1      -1.931   5.203 -33.976  1.00  0.00     0.007 A 
HETATM   16  C   UNL     1      -3.311   4.924 -33.982  1.00  0.00    -0.051 A 
HETATM   17  C   UNL     1      -4.059   4.937 -35.280  1.00  0.00     0.049 C 
HETATM   18  C   UNL     1      -6.355   5.389 -32.695  1.00  0.00     0.081 A 
HETATM   19  C   UNL     1      -6.263   6.672 -31.887  1.00  0.00     0.021 C 
HETATM   20  N   UNL     1      -6.187   7.737 -31.216  1.00  0.00    -0.096 N 
HETATM   21  C   UNL     1      -7.373   5.224 -33.582  1.00  0.00     0.140 A 
HETATM   22  O   UNL     1      -7.557   4.018 -34.282  1.00  0.00    -0.279 OA
HETATM   23  H   UNL     1      -3.606   4.296 -29.520  1.00  0.00     0.169 HD
ENDROOT
BRANCH  21  24
HETATM   24  N   UNL     1      -8.327   6.167 -33.890  1.00  0.00    -0.282 NA
HETATM   25  H   UNL     1      -8.902   5.961 -34.705  1.00  0.00     0.126 HD
HETATM   26  H   UNL     1      -7.935   7.106 -33.919  1.00  0.00     0.126 HD
ENDBRANCH  21  24
BRANCH   1  27
HETATM   27  C   UNL     1      -4.230   1.034 -32.155  1.00  0.00     0.062 C 
BRANCH  27  28
HETATM   28  C   UNL     1      -4.688  -0.320 -31.602  1.00  0.00     0.006 C 
BRANCH  28  29
HETATM   29  C   UNL     1      -3.743  -1.447 -32.015  1.00  0.00    -0.004 C 
HETATM   30  C   UNL     1      -4.171  -2.073 -33.333  1.00  0.00     0.005 C 
ENDBRANCH  28  29
ENDBRANCH  27  28
ENDBRANCH   1  27
TORSDOF 4
ENDMDL
MODEL 9
REMARK VINA RESULT:      -6.8      2.060      4.643
REMARK  4 active torsions:
REMARK  status: ('A' for Active; 'I' for Inactive)
REMARK    1  A    between atoms: C_2  and  C_3 
REMARK    2  A    between atoms: C_3  and  C_4 
REMARK    3  A    between atoms: C_4  and  C_5 
REMARK    4  A    between atoms: C_25  and  N_26 
ROOT
HETATM    1  C   UNL     1      -5.947   1.559 -33.493  1.00  0.00     0.067 A 
HETATM    2  N   UNL     1      -5.391   0.341 -33.366  1.00  0.00    -0.177 NA
HETATM    3  N   UNL     1      -4.255   0.559 -32.677  1.00  0.00    -0.256 N 
HETATM    4  H   UNL     1      -3.644  -0.225 -32.479  1.00  0.00     0.191 HD
HETATM    5  C   UNL     1      -4.078   1.866 -32.362  1.00  0.00     0.176 A 
HETATM    6  C   UNL     1      -5.172   2.549 -32.835  1.00  0.00     0.049 A 
HETATM    7  C   UNL     1      -5.251   4.024 -32.631  1.00  0.00     0.144 A 
HETATM    8  C   UNL     1      -5.541   4.770 -33.961  1.00  0.00     0.246 A 
HETATM    9  O   UNL     1      -4.823   4.852 -34.945  1.00  0.00    -0.271 OA
HETATM   10  N   UNL     1      -6.788   5.372 -33.831  1.00  0.00    -0.325 N 
HETATM   11  C   UNL     1      -7.350   5.116 -32.588  1.00  0.00     0.043 A 
HETATM   12  C   UNL     1      -6.501   4.310 -31.815  1.00  0.00     0.003 A 
HETATM   13  C   UNL     1      -8.572   5.572 -32.141  1.00  0.00     0.030 A 
HETATM   14  C   UNL     1      -8.960   5.203 -30.856  1.00  0.00     0.003 A 
HETATM   15  C   UNL     1      -8.126   4.402 -30.057  1.00  0.00     0.007 A 
HETATM   16  C   UNL     1      -6.875   3.948 -30.519  1.00  0.00    -0.051 A 
HETATM   17  C   UNL     1      -6.026   3.095 -29.626  1.00  0.00     0.049 C 
HETATM   18  C   UNL     1      -3.960   4.558 -32.024  1.00  0.00     0.081 A 
HETATM   19  C   UNL     1      -3.788   6.067 -31.980  1.00  0.00     0.021 C 
HETATM   20  N   UNL     1      -3.645   7.320 -31.945  1.00  0.00    -0.096 N 
HETATM   21  C   UNL     1      -2.939   3.753 -31.623  1.00  0.00     0.140 A 
HETATM   22  O   UNL     1      -3.013   2.353 -31.735  1.00  0.00    -0.279 OA
HETATM   23  H   UNL     1      -7.200   5.939 -34.558  1.00  0.00     0.169 HD
ENDROOT
BRANCH  21  24
HETATM   24  N   UNL     1      -1.743   4.181 -31.091  1.00  0.00    -0.282 NA
HETATM   25  H   UNL     1      -0.934   4.088 -31.701  1.00  0.00     0.126 HD
HETATM   26  H   UNL     1      -1.581   3.791 -30.166  1.00  0.00     0.126 HD
ENDBRANCH  21  24
BRANCH   1  27
HETATM   27  C   UNL     1      -7.206   1.708 -34.286  1.00  0.00     0.062 C 
BRANCH  27  28
HETATM   28  C   UNL     1      -8.451   1.613 -33.398  1.00  0.00     0.006 C 
BRANCH  28  29
HETATM   29  C   UNL     1      -9.606   2.445 -33.955  1.00  0.00    -0.004 C 
HETATM   30  C   UNL     1     -10.721   2.595 -32.932  1.00  0.00     0.005 C 
ENDBRANCH  28  29
ENDBRANCH  27  28
ENDBRANCH   1  27
TORSDOF 4
ENDMDL
MODEL 10
REMARK VINA RESULT:      -6.6      2.716      5.440
REMARK  4 active torsions:
REMARK  status: ('A' for Active; 'I' for Inactive)
REMARK    1  A    between atoms: C_2  and  C_3 
REMARK    2  A    between atoms: C_3  and  C_4 
REMARK    3  A    between atoms: C_4  and  C_5 
REMARK    4  A    between atoms: C_25  and  N_26 
ROOT
HETATM    1  C   UNL     1      -5.470   5.889 -30.203  1.00  0.00     0.067 A 
HETATM    2  N   UNL     1      -5.411   5.834 -28.861  1.00  0.00    -0.177 NA
HETATM    3  N   UNL     1      -5.638   4.540 -28.566  1.00  0.00    -0.256 N 
HETATM    4  H   UNL     1      -5.666   4.256 -27.593  1.00  0.00     0.191 HD
HETATM    5  C   UNL     1      -5.833   3.779 -29.672  1.00  0.00     0.176 A 
HETATM    6  C   UNL     1      -5.692   4.603 -30.761  1.00  0.00     0.049 A 
HETATM    7  C   UNL     1      -5.856   4.032 -32.128  1.00  0.00     0.144 A 
HETATM    8  C   UNL     1      -6.866   4.855 -32.973  1.00  0.00     0.246 A 
HETATM    9  O   UNL     1      -8.065   4.988 -32.785  1.00  0.00    -0.271 OA
HETATM   10  N   UNL     1      -6.158   5.413 -34.031  1.00  0.00    -0.325 N 
HETATM   11  C   UNL     1      -4.816   5.062 -33.988  1.00  0.00     0.043 A 
HETATM   12  C   UNL     1      -4.551   4.248 -32.877  1.00  0.00     0.003 A 
HETATM   13  C   UNL     1      -3.848   5.445 -34.893  1.00  0.00     0.030 A 
HETATM   14  C   UNL     1      -2.552   4.986 -34.673  1.00  0.00     0.003 A 
HETATM   15  C   UNL     1      -2.260   4.163 -33.572  1.00  0.00     0.007 A 
HETATM   16  C   UNL     1      -3.257   3.771 -32.658  1.00  0.00    -0.051 A 
HETATM   17  C   UNL     1      -2.890   2.892 -31.500  1.00  0.00     0.049 C 
HETATM   18  C   UNL     1      -6.318   2.583 -32.061  1.00  0.00     0.081 A 
HETATM   19  C   UNL     1      -6.764   1.935 -33.361  1.00  0.00     0.021 C 
HETATM   20  N   UNL     1      -7.134   1.399 -34.441  1.00  0.00    -0.096 N 
HETATM   21  C   UNL     1      -6.438   1.895 -30.892  1.00  0.00     0.140 A 
HETATM   22  O   UNL     1      -6.130   2.484 -29.653  1.00  0.00    -0.279 OA
HETATM   23  H   UNL     1      -6.596   5.981 -34.743  1.00  0.00     0.169 HD
ENDROOT
BRANCH  21  24
HETATM   24  N   UNL     1      -6.871   0.594 -30.769  1.00  0.00    -0.282 NA
HETATM   25  H   UNL     1      -6.440   0.057 -30.020  1.00  0.00     0.126 HD
HETATM   26  H   UNL     1      -6.852   0.104 -31.660  1.00  0.00     0.126 HD
ENDBRANCH  21  24
BRANCH   1  27
HETATM   27  C   UNL     1      -5.338   7.212 -30.886  1.00  0.00     0.062 C 
BRANCH  27  28
HETATM   28  C   UNL     1      -3.928   7.792 -30.735  1.00  0.00     0.006 C 
BRANCH  28  29
HETATM   29  C   UNL     1      -3.089   7.572 -31.992  1.00  0.00    -0.004 C 
HETATM   30  C   UNL     1      -1.677   8.110 -31.815  1.00  0.00     0.005 C 
ENDBRANCH  28  29
ENDBRANCH  27  28
ENDBRANCH   1  27
TORSDOF 4
ENDMDL
