MODEL 1
REMARK VINA RESULT:      -8.9      0.000      0.000
REMARK  8 active torsions:
REMARK  status: ('A' for Active; 'I' for Inactive)
REMARK    1  A    between atoms: C_2  and  C_3 
REMARK    2  A    between atoms: C_3  and  N_4 
REMARK    3  A    between atoms: C_12  and  C_13 
REMARK    4  A    between atoms: C_13  and  N_14 
REMARK    5  A    between atoms: C_22  and  C_23 
REMARK    6  A    between atoms: C_23  and  C_24 
REMARK    7  A    between atoms: C_24  and  N_25 
REMARK       I    between atoms: N_25  and  C_26 
REMARK    8  A    between atoms: C_26  and  C_27 
ROOT
HETATM    1  N   UNL     1      -3.844   3.813 -32.053  1.00  0.00    -0.065 N 
HETATM    2  H   UNL     1      -4.158   3.395 -32.941  1.00  0.00     0.280 HD
HETATM    3  C   UNL     1      -4.701   5.062 -31.863  1.00  0.00     0.255 C 
HETATM    4  C   UNL     1      -4.050   6.105 -30.963  1.00  0.00     0.159 C 
HETATM    5  N   UNL     1      -3.129   6.957 -31.683  1.00  0.00    -0.319 N 
HETATM    6  C   UNL     1      -2.227   6.558 -32.643  1.00  0.00     0.131 A 
HETATM    7  C   UNL     1      -2.055   5.189 -33.204  1.00  0.00     0.108 C 
HETATM    8  C   UNL     1      -2.345   4.066 -32.220  1.00  0.00     0.243 C 
HETATM    9  C   UNL     1      -2.985   8.319 -31.568  1.00  0.00     0.131 A 
HETATM   10  N   UNL     1      -2.014   8.701 -32.370  1.00  0.00    -0.135 NA
HETATM   11  N   UNL     1      -1.552   7.608 -33.046  1.00  0.00    -0.135 NA
ENDROOT
BRANCH   1  12
HETATM   12  C   UNL     1      -4.092   2.733 -31.012  1.00  0.00     0.280 C 
BRANCH  12  13
HETATM   13  C   UNL     1      -4.962   1.600 -31.483  1.00  0.00     0.009 A 
HETATM   14  S   UNL     1      -5.531   1.533 -33.100  1.00  0.00    -0.096 SA
HETATM   15  C   UNL     1      -6.297   0.014 -32.859  1.00  0.00     0.009 A 
HETATM   16  C   UNL     1      -6.132  -0.421 -31.558  1.00  0.00     0.017 A 
HETATM   17  C   UNL     1      -5.374   0.495 -30.766  1.00  0.00     0.017 A 
BRANCH  15  18
HETATM   18  C   UNL     1      -6.978  -0.680 -34.009  1.00  0.00     0.280 C 
BRANCH  18  19
HETATM   19  N   UNL     1      -6.230  -1.894 -34.525  1.00  0.00    -0.067 N 
HETATM   20  H   UNL     1      -6.040  -1.724 -35.520  1.00  0.00     0.280 HD
HETATM   21  C   UNL     1      -4.905  -2.108 -33.831  1.00  0.00     0.235 C 
HETATM   22  C   UNL     1      -4.167  -3.265 -34.489  1.00  0.00     0.028 C 
HETATM   23  C   UNL     1      -5.003  -4.539 -34.486  1.00  0.00     0.003 C 
HETATM   24  C   UNL     1      -6.371  -4.301 -35.113  1.00  0.00     0.028 C 
HETATM   25  C   UNL     1      -7.098  -3.136 -34.457  1.00  0.00     0.235 C 
ENDBRANCH  18  19
ENDBRANCH  15  18
ENDBRANCH  12  13
ENDBRANCH   1  12
BRANCH   9  26
HETATM   26  C   UNL     1      -3.790   9.224 -30.698  1.00  0.00     0.100 C 
BRANCH  26  27
HETATM   27  C   UNL     1      -2.980   9.815 -29.542  1.00  0.00     0.130 C 
BRANCH  27  28
HETATM   28  N   UNL     1      -1.602   9.365 -29.372  1.00  0.00    -0.360 N 
HETATM   29  C   UNL     1      -1.061   8.796 -28.245  1.00  0.00     0.222 C 
HETATM   30  O   UNL     1      -1.633   8.744 -27.158  1.00  0.00    -0.273 OA
HETATM   31  H   UNL     1      -1.069   9.297 -30.232  1.00  0.00     0.162 HD
BRANCH  29  32
HETATM   32  C   UNL     1       0.368   8.281 -28.457  1.00  0.00     0.082 C 
HETATM   33  C   UNL     1       0.840   7.443 -27.265  1.00  0.00     0.040 C 
HETATM   34  C   UNL     1       0.143   6.089 -27.241  1.00  0.00     0.168 C 
HETATM   35  O   UNL     1       0.331   5.378 -28.465  1.00  0.00    -0.391 OA
HETATM   36  C   UNL     1      -0.131   6.083 -29.612  1.00  0.00     0.168 C 
HETATM   37  C   UNL     1       0.500   7.462 -29.744  1.00  0.00     0.040 C 
ENDBRANCH  29  32
ENDBRANCH  27  28
ENDBRANCH  26  27
ENDBRANCH   9  26
TORSDOF 8
ENDMDL
MODEL 2
REMARK VINA RESULT:      -8.5      1.912      2.738
REMARK  8 active torsions:
REMARK  status: ('A' for Active; 'I' for Inactive)
REMARK    1  A    between atoms: C_2  and  C_3 
REMARK    2  A    between atoms: C_3  and  N_4 
REMARK    3  A    between atoms: C_12  and  C_13 
REMARK    4  A    between atoms: C_13  and  N_14 
REMARK    5  A    between atoms: C_22  and  C_23 
REMARK    6  A    between atoms: C_23  and  C_24 
REMARK    7  A    between atoms: C_24  and  N_25 
REMARK       I    between atoms: N_25  and  C_26 
REMARK    8  A    between atoms: C_26  and  C_27 
ROOT
HETATM    1  N   UNL     1      -5.940   4.034 -31.679  1.00  0.00    -0.065 N 
HETATM    2  H   UNL     1      -6.744   4.655 -31.502  1.00  0.00     0.280 HD
HETATM    3  C   UNL     1      -4.748   4.701 -30.997  1.00  0.00     0.255 C 
HETATM    4  C   UNL     1      -3.408   4.287 -31.590  1.00  0.00     0.159 C 
HETATM    5  N   UNL     1      -3.058   5.064 -32.759  1.00  0.00    -0.319 N 
HETATM    6  C   UNL     1      -3.907   5.441 -33.774  1.00  0.00     0.131 A 
HETATM    7  C   UNL     1      -5.375   5.203 -33.856  1.00  0.00     0.108 C 
HETATM    8  C   UNL     1      -5.839   3.910 -33.200  1.00  0.00     0.243 C 
HETATM    9  C   UNL     1      -1.829   5.591 -33.075  1.00  0.00     0.131 A 
HETATM   10  N   UNL     1      -1.926   6.196 -34.240  1.00  0.00    -0.135 NA
HETATM   11  N   UNL     1      -3.221   6.113 -34.667  1.00  0.00    -0.135 NA
ENDROOT
BRANCH   1  12
HETATM   12  C   UNL     1      -6.338   2.704 -31.060  1.00  0.00     0.280 C 
BRANCH  12  13
HETATM   13  C   UNL     1      -5.483   1.540 -31.479  1.00  0.00     0.009 A 
HETATM   14  S   UNL     1      -5.708   0.776 -32.999  1.00  0.00    -0.096 SA
HETATM   15  C   UNL     1      -4.383  -0.290 -32.756  1.00  0.00     0.009 A 
HETATM   16  C   UNL     1      -3.793  -0.073 -31.526  1.00  0.00     0.017 A 
HETATM   17  C   UNL     1      -4.431   0.970 -30.789  1.00  0.00     0.017 A 
BRANCH  15  18
HETATM   18  C   UNL     1      -3.979  -1.252 -33.842  1.00  0.00     0.280 C 
BRANCH  18  19
HETATM   19  N   UNL     1      -4.848  -2.492 -33.921  1.00  0.00    -0.067 N 
HETATM   20  H   UNL     1      -5.206  -2.664 -32.974  1.00  0.00     0.280 HD
HETATM   21  C   UNL     1      -6.036  -2.320 -34.840  1.00  0.00     0.235 C 
HETATM   22  C   UNL     1      -6.919  -3.558 -34.767  1.00  0.00     0.028 C 
HETATM   23  C   UNL     1      -6.141  -4.824 -35.102  1.00  0.00     0.003 C 
HETATM   24  C   UNL     1      -4.898  -4.954 -34.230  1.00  0.00     0.028 C 
HETATM   25  C   UNL     1      -4.026  -3.709 -34.300  1.00  0.00     0.235 C 
ENDBRANCH  18  19
ENDBRANCH  15  18
ENDBRANCH  12  13
ENDBRANCH   1  12
BRANCH   9  26
HETATM   26  C   UNL     1      -0.591   5.510 -32.247  1.00  0.00     0.100 C 
BRANCH  26  27
HETATM   27  C   UNL     1      -0.148   6.870 -31.704  1.00  0.00     0.130 C 
BRANCH  27  28
HETATM   28  N   UNL     1       0.377   6.926 -30.343  1.00  0.00    -0.360 N 
HETATM   29  C   UNL     1      -0.340   6.766 -29.183  1.00  0.00     0.222 C 
HETATM   30  O   UNL     1      -1.567   6.719 -29.133  1.00  0.00    -0.273 OA
HETATM   31  H   UNL     1       1.388   6.887 -30.278  1.00  0.00     0.162 HD
BRANCH  29  32
HETATM   32  C   UNL     1       0.544   6.711 -27.931  1.00  0.00     0.082 C 
HETATM   33  C   UNL     1       1.322   8.017 -27.742  1.00  0.00     0.040 C 
HETATM   34  C   UNL     1       0.400   9.139 -27.285  1.00  0.00     0.168 C 
HETATM   35  O   UNL     1      -0.300   8.790 -26.089  1.00  0.00    -0.391 OA
HETATM   36  C   UNL     1      -1.083   7.609 -26.211  1.00  0.00     0.168 C 
HETATM   37  C   UNL     1      -0.265   6.409 -26.667  1.00  0.00     0.040 C 
ENDBRANCH  29  32
ENDBRANCH  27  28
ENDBRANCH  26  27
ENDBRANCH   9  26
TORSDOF 8
ENDMDL
MODEL 3
REMARK VINA RESULT:      -8.3      2.433      3.774
REMARK  8 active torsions:
REMARK  status: ('A' for Active; 'I' for Inactive)
REMARK    1  A    between atoms: C_2  and  C_3 
REMARK    2  A    between atoms: C_3  and  N_4 
REMARK    3  A    between atoms: C_12  and  C_13 
REMARK    4  A    between atoms: C_13  and  N_14 
REMARK    5  A    between atoms: C_22  and  C_23 
REMARK    6  A    between atoms: C_23  and  C_24 
REMARK    7  A    between atoms: C_24  and  N_25 
REMARK       I    between atoms: N_25  and  C_26 
REMARK    8  A    between atoms: C_26  and  C_27 
ROOT
HETATM    1  N   UNL     1      -6.648   3.905 -30.173  1.00  0.00    -0.065 N 
HETATM    2  H   UNL     1      -6.268   3.173 -29.555  1.00  0.00     0.280 HD
HETATM    3  C   UNL     1      -5.442   4.722 -30.631  1.00  0.00     0.255 C 
HETATM    4  C   UNL     1      -5.804   6.138 -31.060  1.00  0.00     0.159 C 
HETATM    5  N   UNL     1      -5.881   7.051 -29.940  1.00  0.00    -0.319 N 
HETATM    6  C   UNL     1      -6.444   6.790 -28.712  1.00  0.00     0.131 A 
HETATM    7  C   UNL     1      -7.020   5.501 -28.240  1.00  0.00     0.108 C 
HETATM    8  C   UNL     1      -7.674   4.667 -29.332  1.00  0.00     0.243 C 
HETATM    9  C   UNL     1      -5.399   8.336 -29.874  1.00  0.00     0.131 A 
HETATM   10  N   UNL     1      -5.709   8.832 -28.695  1.00  0.00    -0.135 NA
HETATM   11  N   UNL     1      -6.347   7.867 -27.969  1.00  0.00    -0.135 NA
ENDROOT
BRANCH   1  12
HETATM   12  C   UNL     1      -7.336   3.143 -31.294  1.00  0.00     0.280 C 
BRANCH  12  13
HETATM   13  C   UNL     1      -6.732   1.799 -31.596  1.00  0.00     0.009 A 
HETATM   14  S   UNL     1      -5.959   1.491 -33.096  1.00  0.00    -0.096 SA
HETATM   15  C   UNL     1      -5.499  -0.098 -32.632  1.00  0.00     0.009 A 
HETATM   16  C   UNL     1      -5.946  -0.388 -31.357  1.00  0.00     0.017 A 
HETATM   17  C   UNL     1      -6.662   0.697 -30.767  1.00  0.00     0.017 A 
BRANCH  15  18
HETATM   18  C   UNL     1      -4.668  -0.945 -33.559  1.00  0.00     0.280 C 
BRANCH  18  19
HETATM   19  N   UNL     1      -5.224  -2.338 -33.785  1.00  0.00    -0.067 N 
HETATM   20  H   UNL     1      -5.495  -2.702 -32.863  1.00  0.00     0.280 HD
HETATM   21  C   UNL     1      -6.453  -2.345 -34.664  1.00  0.00     0.235 C 
HETATM   22  C   UNL     1      -7.017  -3.756 -34.739  1.00  0.00     0.028 C 
HETATM   23  C   UNL     1      -5.976  -4.752 -35.237  1.00  0.00     0.003 C 
HETATM   24  C   UNL     1      -4.706  -4.686 -34.398  1.00  0.00     0.028 C 
HETATM   25  C   UNL     1      -4.154  -3.270 -34.320  1.00  0.00     0.235 C 
ENDBRANCH  18  19
ENDBRANCH  15  18
ENDBRANCH  12  13
ENDBRANCH   1  12
BRANCH   9  26
HETATM   26  C   UNL     1      -4.644   9.054 -30.941  1.00  0.00     0.100 C 
BRANCH  26  27
HETATM   27  C   UNL     1      -3.171   9.270 -30.585  1.00  0.00     0.130 C 
BRANCH  27  28
HETATM   28  N   UNL     1      -2.173   8.473 -31.290  1.00  0.00    -0.360 N 
HETATM   29  C   UNL     1      -1.857   7.158 -31.050  1.00  0.00     0.222 C 
HETATM   30  O   UNL     1      -2.264   6.519 -30.082  1.00  0.00    -0.273 OA
HETATM   31  H   UNL     1      -1.834   8.886 -32.153  1.00  0.00     0.162 HD
BRANCH  29  32
HETATM   32  C   UNL     1      -0.886   6.573 -32.083  1.00  0.00     0.082 C 
HETATM   33  C   UNL     1      -0.978   5.044 -32.130  1.00  0.00     0.040 C 
HETATM   34  C   UNL     1      -2.272   4.596 -32.797  1.00  0.00     0.168 C 
HETATM   35  O   UNL     1      -2.408   5.151 -34.106  1.00  0.00    -0.391 OA
HETATM   36  C   UNL     1      -2.379   6.574 -34.129  1.00  0.00     0.168 C 
HETATM   37  C   UNL     1      -1.124   7.144 -33.484  1.00  0.00     0.040 C 
ENDBRANCH  29  32
ENDBRANCH  27  28
ENDBRANCH  26  27
ENDBRANCH   9  26
TORSDOF 8
ENDMDL
MODEL 4
REMARK VINA RESULT:      -8.2      1.445      2.021
REMARK  8 active torsions:
REMARK  status: ('A' for Active; 'I' for Inactive)
REMARK    1  A    between atoms: C_2  and  C_3 
REMARK    2  A    between atoms: C_3  and  N_4 
REMARK    3  A    between atoms: C_12  and  C_13 
REMARK    4  A    between atoms: C_13  and  N_14 
REMARK    5  A    between atoms: C_22  and  C_23 
REMARK    6  A    between atoms: C_23  and  C_24 
REMARK    7  A    between atoms: C_24  and  N_25 
REMARK       I    between atoms: N_25  and  C_26 
REMARK    8  A    between atoms: C_26  and  C_27 
ROOT
HETATM    1  N   UNL     1      -4.862   4.558 -33.114  1.00  0.00    -0.065 N 
HETATM    2  H   UNL     1      -5.302   4.443 -34.039  1.00  0.00     0.280 HD
HETATM    3  C   UNL     1      -5.315   5.927 -32.612  1.00  0.00     0.255 C 
HETATM    4  C   UNL     1      -4.370   6.530 -31.580  1.00  0.00     0.159 C 
HETATM    5  N   UNL     1      -3.256   7.223 -32.189  1.00  0.00    -0.319 N 
HETATM    6  C   UNL     1      -2.529   6.800 -33.279  1.00  0.00     0.131 A 
HETATM    7  C   UNL     1      -2.774   5.589 -34.111  1.00  0.00     0.108 C 
HETATM    8  C   UNL     1      -3.358   4.410 -33.348  1.00  0.00     0.243 C 
HETATM    9  C   UNL     1      -2.721   8.433 -31.820  1.00  0.00     0.131 A 
HETATM   10  N   UNL     1      -1.696   8.688 -32.606  1.00  0.00    -0.135 NA
HETATM   11  N   UNL     1      -1.586   7.679 -33.519  1.00  0.00    -0.135 NA
ENDROOT
BRANCH   1  12
HETATM   12  C   UNL     1      -5.392   3.395 -32.289  1.00  0.00     0.280 C 
BRANCH  12  13
HETATM   13  C   UNL     1      -5.946   2.256 -33.102  1.00  0.00     0.009 A 
HETATM   14  S   UNL     1      -6.193   0.708 -32.405  1.00  0.00    -0.096 SA
HETATM   15  C   UNL     1      -6.881   0.074 -33.846  1.00  0.00     0.009 A 
HETATM   16  C   UNL     1      -6.904   1.029 -34.844  1.00  0.00     0.017 A 
HETATM   17  C   UNL     1      -6.358   2.278 -34.419  1.00  0.00     0.017 A 
BRANCH  15  18
HETATM   18  C   UNL     1      -7.408  -1.336 -33.875  1.00  0.00     0.280 C 
BRANCH  18  19
HETATM   19  N   UNL     1      -6.432  -2.346 -34.447  1.00  0.00    -0.067 N 
HETATM   20  H   UNL     1      -6.264  -2.076 -35.423  1.00  0.00     0.280 HD
HETATM   21  C   UNL     1      -5.100  -2.349 -33.732  1.00  0.00     0.235 C 
HETATM   22  C   UNL     1      -4.144  -3.296 -34.442  1.00  0.00     0.028 C 
HETATM   23  C   UNL     1      -4.718  -4.704 -34.544  1.00  0.00     0.003 C 
HETATM   24  C   UNL     1      -6.097  -4.690 -35.192  1.00  0.00     0.028 C 
HETATM   25  C   UNL     1      -7.045  -3.733 -34.482  1.00  0.00     0.235 C 
ENDBRANCH  18  19
ENDBRANCH  15  18
ENDBRANCH  12  13
ENDBRANCH   1  12
BRANCH   9  26
HETATM   26  C   UNL     1      -3.210   9.321 -30.727  1.00  0.00     0.100 C 
BRANCH  26  27
HETATM   27  C   UNL     1      -2.117   9.681 -29.718  1.00  0.00     0.130 C 
BRANCH  27  28
HETATM   28  N   UNL     1      -2.053   8.917 -28.476  1.00  0.00    -0.360 N 
HETATM   29  C   UNL     1      -1.437   7.703 -28.294  1.00  0.00     0.222 C 
HETATM   30  O   UNL     1      -0.996   7.011 -29.209  1.00  0.00    -0.273 OA
HETATM   31  H   UNL     1      -2.324   9.434 -27.647  1.00  0.00     0.162 HD
BRANCH  29  32
HETATM   32  C   UNL     1      -1.408   7.257 -26.827  1.00  0.00     0.082 C 
HETATM   33  C   UNL     1      -0.171   6.404 -26.529  1.00  0.00     0.040 C 
HETATM   34  C   UNL     1       1.088   7.260 -26.502  1.00  0.00     0.168 C 
HETATM   35  O   UNL     1       0.975   8.332 -25.563  1.00  0.00    -0.391 OA
HETATM   36  C   UNL     1      -0.130   9.193 -25.811  1.00  0.00     0.168 C 
HETATM   37  C   UNL     1      -1.455   8.446 -25.863  1.00  0.00     0.040 C 
ENDBRANCH  29  32
ENDBRANCH  27  28
ENDBRANCH  26  27
ENDBRANCH   9  26
TORSDOF 8
ENDMDL
MODEL 5
REMARK VINA RESULT:      -8.2      1.666      2.905
REMARK  8 active torsions:
REMARK  status: ('A' for Active; 'I' for Inactive)
REMARK    1  A    between atoms: C_2  and  C_3 
REMARK    2  A    between atoms: C_3  and  N_4 
REMARK    3  A    between atoms: C_12  and  C_13 
REMARK    4  A    between atoms: C_13  and  N_14 
REMARK    5  A    between atoms: C_22  and  C_23 
REMARK    6  A    between atoms: C_23  and  C_24 
REMARK    7  A    between atoms: C_24  and  N_25 
REMARK       I    between atoms: N_25  and  C_26 
REMARK    8  A    between atoms: C_26  and  C_27 
ROOT
HETATM    1  N   UNL     1      -6.276   5.913 -31.211  1.00  0.00    -0.065 N 
HETATM    2  H   UNL     1      -6.546   5.730 -30.233  1.00  0.00     0.280 HD
HETATM    3  C   UNL     1      -4.833   5.431 -31.335  1.00  0.00     0.255 C 
HETATM    4  C   UNL     1      -4.071   6.102 -32.471  1.00  0.00     0.159 C 
HETATM    5  N   UNL     1      -3.515   7.380 -32.084  1.00  0.00    -0.319 N 
HETATM    6  C   UNL     1      -4.135   8.343 -31.321  1.00  0.00     0.131 A 
HETATM    7  C   UNL     1      -5.469   8.253 -30.666  1.00  0.00     0.108 C 
HETATM    8  C   UNL     1      -6.486   7.413 -31.425  1.00  0.00     0.243 C 
HETATM    9  C   UNL     1      -2.267   7.873 -32.380  1.00  0.00     0.131 A 
HETATM   10  N   UNL     1      -2.171   9.083 -31.873  1.00  0.00    -0.135 NA
HETATM   11  N   UNL     1      -3.327   9.370 -31.205  1.00  0.00    -0.135 NA
ENDROOT
BRANCH   1  12
HETATM   12  C   UNL     1      -7.266   5.111 -32.039  1.00  0.00     0.280 C 
BRANCH  12  13
HETATM   13  C   UNL     1      -6.778   3.747 -32.446  1.00  0.00     0.009 A 
HETATM   14  S   UNL     1      -6.766   2.441 -31.333  1.00  0.00    -0.096 SA
HETATM   15  C   UNL     1      -6.210   1.326 -32.516  1.00  0.00     0.009 A 
HETATM   16  C   UNL     1      -6.023   1.950 -33.734  1.00  0.00     0.017 A 
HETATM   17  C   UNL     1      -6.339   3.342 -33.691  1.00  0.00     0.017 A 
BRANCH  15  18
HETATM   18  C   UNL     1      -6.044  -0.129 -32.163  1.00  0.00     0.280 C 
BRANCH  18  19
HETATM   19  N   UNL     1      -5.787  -1.026 -33.358  1.00  0.00    -0.067 N 
HETATM   20  H   UNL     1      -5.565  -0.411 -34.149  1.00  0.00     0.280 HD
HETATM   21  C   UNL     1      -4.613  -1.957 -33.153  1.00  0.00     0.235 C 
HETATM   22  C   UNL     1      -4.347  -2.730 -34.436  1.00  0.00     0.028 C 
HETATM   23  C   UNL     1      -5.582  -3.494 -34.899  1.00  0.00     0.003 C 
HETATM   24  C   UNL     1      -6.786  -2.568 -35.026  1.00  0.00     0.028 C 
HETATM   25  C   UNL     1      -7.039  -1.791 -33.743  1.00  0.00     0.235 C 
ENDBRANCH  18  19
ENDBRANCH  15  18
ENDBRANCH  12  13
ENDBRANCH   1  12
BRANCH   9  26
HETATM   26  C   UNL     1      -1.192   7.166 -33.135  1.00  0.00     0.100 C 
BRANCH  26  27
HETATM   27  C   UNL     1      -0.093   6.611 -32.226  1.00  0.00     0.130 C 
BRANCH  27  28
HETATM   28  N   UNL     1       0.096   7.236 -30.921  1.00  0.00    -0.360 N 
HETATM   29  C   UNL     1       0.337   6.591 -29.732  1.00  0.00     0.222 C 
HETATM   30  O   UNL     1       0.256   5.374 -29.581  1.00  0.00    -0.273 OA
HETATM   31  H   UNL     1       0.253   8.238 -30.950  1.00  0.00     0.162 HD
BRANCH  29  32
HETATM   32  C   UNL     1       0.658   7.552 -28.580  1.00  0.00     0.082 C 
HETATM   33  C   UNL     1      -0.451   8.592 -28.396  1.00  0.00     0.040 C 
HETATM   34  C   UNL     1      -1.695   7.960 -27.786  1.00  0.00     0.168 C 
HETATM   35  O   UNL     1      -1.401   7.310 -26.548  1.00  0.00    -0.391 OA
HETATM   36  C   UNL     1      -0.409   6.296 -26.657  1.00  0.00     0.168 C 
HETATM   37  C   UNL     1       0.891   6.811 -27.260  1.00  0.00     0.040 C 
ENDBRANCH  29  32
ENDBRANCH  27  28
ENDBRANCH  26  27
ENDBRANCH   9  26
TORSDOF 8
ENDMDL
MODEL 6
REMARK VINA RESULT:      -8.1      2.138      3.123
REMARK  8 active torsions:
REMARK  status: ('A' for Active; 'I' for Inactive)
REMARK    1  A    between atoms: C_2  and  C_3 
REMARK    2  A    between atoms: C_3  and  N_4 
REMARK    3  A    between atoms: C_12  and  C_13 
REMARK    4  A    between atoms: C_13  and  N_14 
REMARK    5  A    between atoms: C_22  and  C_23 
REMARK    6  A    between atoms: C_23  and  C_24 
REMARK    7  A    between atoms: C_24  and  N_25 
REMARK       I    between atoms: N_25  and  C_26 
REMARK    8  A    between atoms: C_26  and  C_27 
ROOT
HETATM    1  N   UNL     1      -3.676   3.690 -32.373  1.00  0.00    -0.065 N 
HETATM    2  H   UNL     1      -4.464   3.476 -33.002  1.00  0.00     0.280 HD
HETATM    3  C   UNL     1      -4.129   4.888 -31.542  1.00  0.00     0.255 C 
HETATM    4  C   UNL     1      -2.969   5.703 -30.983  1.00  0.00     0.159 C 
HETATM    5  N   UNL     1      -2.465   6.669 -31.934  1.00  0.00    -0.319 N 
HETATM    6  C   UNL     1      -2.268   6.464 -33.281  1.00  0.00     0.131 A 
HETATM    7  C   UNL     1      -2.602   5.242 -34.064  1.00  0.00     0.108 C 
HETATM    8  C   UNL     1      -2.474   3.942 -33.284  1.00  0.00     0.243 C 
HETATM    9  C   UNL     1      -2.103   7.972 -31.691  1.00  0.00     0.131 A 
HETATM   10  N   UNL     1      -1.661   8.495 -32.815  1.00  0.00    -0.135 NA
HETATM   11  N   UNL     1      -1.776   7.561 -33.804  1.00  0.00    -0.135 NA
ENDROOT
BRANCH   1  12
HETATM   12  C   UNL     1      -3.476   2.419 -31.562  1.00  0.00     0.280 C 
BRANCH  12  13
HETATM   13  C   UNL     1      -4.595   1.421 -31.682  1.00  0.00     0.009 A 
HETATM   14  S   UNL     1      -5.147   0.888 -33.216  1.00  0.00    -0.096 SA
HETATM   15  C   UNL     1      -6.268  -0.217 -32.525  1.00  0.00     0.009 A 
HETATM   16  C   UNL     1      -6.228  -0.162 -31.145  1.00  0.00     0.017 A 
HETATM   17  C   UNL     1      -5.275   0.786 -30.662  1.00  0.00     0.017 A 
BRANCH  15  18
HETATM   18  C   UNL     1      -7.088  -1.115 -33.413  1.00  0.00     0.280 C 
BRANCH  18  19
HETATM   19  N   UNL     1      -6.276  -2.163 -34.147  1.00  0.00    -0.067 N 
HETATM   20  H   UNL     1      -6.060  -1.776 -35.073  1.00  0.00     0.280 HD
HETATM   21  C   UNL     1      -4.966  -2.479 -33.462  1.00  0.00     0.235 C 
HETATM   22  C   UNL     1      -4.161  -3.442 -34.323  1.00  0.00     0.028 C 
HETATM   23  C   UNL     1      -4.944  -4.713 -34.628  1.00  0.00     0.003 C 
HETATM   24  C   UNL     1      -6.300  -4.389 -35.244  1.00  0.00     0.028 C 
HETATM   25  C   UNL     1      -7.094  -3.418 -34.383  1.00  0.00     0.235 C 
ENDBRANCH  18  19
ENDBRANCH  15  18
ENDBRANCH  12  13
ENDBRANCH   1  12
BRANCH   9  26
HETATM   26  C   UNL     1      -2.199   8.689 -30.386  1.00  0.00     0.100 C 
BRANCH  26  27
HETATM   27  C   UNL     1      -3.371   9.672 -30.332  1.00  0.00     0.130 C 
BRANCH  27  28
HETATM   28  N   UNL     1      -4.463   9.384 -29.407  1.00  0.00    -0.360 N 
HETATM   29  C   UNL     1      -5.460   8.457 -29.582  1.00  0.00     0.222 C 
HETATM   30  O   UNL     1      -5.662   7.854 -30.633  1.00  0.00    -0.273 OA
HETATM   31  H   UNL     1      -4.345   9.776 -28.479  1.00  0.00     0.162 HD
BRANCH  29  32
HETATM   32  C   UNL     1      -6.349   8.287 -28.343  1.00  0.00     0.082 C 
HETATM   33  C   UNL     1      -7.041   6.920 -28.337  1.00  0.00     0.040 C 
HETATM   34  C   UNL     1      -6.048   5.809 -28.022  1.00  0.00     0.168 C 
HETATM   35  O   UNL     1      -5.374   6.041 -26.784  1.00  0.00    -0.391 OA
HETATM   36  C   UNL     1      -4.670   7.276 -26.740  1.00  0.00     0.168 C 
HETATM   37  C   UNL     1      -5.564   8.471 -27.042  1.00  0.00     0.040 C 
ENDBRANCH  29  32
ENDBRANCH  27  28
ENDBRANCH  26  27
ENDBRANCH   9  26
TORSDOF 8
ENDMDL
MODEL 7
REMARK VINA RESULT:      -8.0      2.960      4.334
REMARK  8 active torsions:
REMARK  status: ('A' for Active; 'I' for Inactive)
REMARK    1  A    between atoms: C_2  and  C_3 
REMARK    2  A    between atoms: C_3  and  N_4 
REMARK    3  A    between atoms: C_12  and  C_13 
REMARK    4  A    between atoms: C_13  and  N_14 
REMARK    5  A    between atoms: C_22  and  C_23 
REMARK    6  A    between atoms: C_23  and  C_24 
REMARK    7  A    between atoms: C_24  and  N_25 
REMARK       I    between atoms: N_25  and  C_26 
REMARK    8  A    between atoms: C_26  and  C_27 
ROOT
HETATM    1  N   UNL     1      -4.562   3.744 -32.351  1.00  0.00    -0.065 N 
HETATM    2  H   UNL     1      -5.543   4.045 -32.254  1.00  0.00     0.280 HD
HETATM    3  C   UNL     1      -3.779   4.565 -31.330  1.00  0.00     0.255 C 
HETATM    4  C   UNL     1      -2.303   4.707 -31.679  1.00  0.00     0.159 C 
HETATM    5  N   UNL     1      -2.055   5.790 -32.604  1.00  0.00    -0.319 N 
HETATM    6  C   UNL     1      -2.815   6.113 -33.705  1.00  0.00     0.131 A 
HETATM    7  C   UNL     1      -4.090   5.476 -34.139  1.00  0.00     0.108 C 
HETATM    8  C   UNL     1      -4.193   3.993 -33.814  1.00  0.00     0.243 C 
HETATM    9  C   UNL     1      -1.038   6.712 -32.560  1.00  0.00     0.131 A 
HETATM   10  N   UNL     1      -1.150   7.502 -33.606  1.00  0.00    -0.135 NA
HETATM   11  N   UNL     1      -2.262   7.137 -34.311  1.00  0.00    -0.135 NA
ENDROOT
BRANCH   1  12
HETATM   12  C   UNL     1      -4.587   2.253 -32.052  1.00  0.00     0.280 C 
BRANCH  12  13
HETATM   13  C   UNL     1      -5.875   1.566 -32.415  1.00  0.00     0.009 A 
HETATM   14  S   UNL     1      -7.366   2.055 -31.722  1.00  0.00    -0.096 SA
HETATM   15  C   UNL     1      -8.268   0.932 -32.659  1.00  0.00     0.009 A 
HETATM   16  C   UNL     1      -7.437   0.187 -33.473  1.00  0.00     0.017 A 
HETATM   17  C   UNL     1      -6.062   0.545 -33.325  1.00  0.00     0.017 A 
BRANCH  15  18
HETATM   18  C   UNL     1      -9.770   0.900 -32.559  1.00  0.00     0.280 C 
BRANCH  18  19
HETATM   19  N   UNL     1     -10.480   1.476 -33.768  1.00  0.00    -0.067 N 
HETATM   20  H   UNL     1      -9.979   1.134 -34.597  1.00  0.00     0.280 HD
HETATM   21  C   UNL     1     -11.919   1.024 -33.878  1.00  0.00     0.235 C 
HETATM   22  C   UNL     1     -12.518   1.544 -35.176  1.00  0.00     0.028 C 
HETATM   23  C   UNL     1     -12.407   3.060 -35.279  1.00  0.00     0.003 C 
HETATM   24  C   UNL     1     -10.968   3.521 -35.087  1.00  0.00     0.028 C 
HETATM   25  C   UNL     1     -10.372   2.989 -33.792  1.00  0.00     0.235 C 
ENDBRANCH  18  19
ENDBRANCH  15  18
ENDBRANCH  12  13
ENDBRANCH   1  12
BRANCH   9  26
HETATM   26  C   UNL     1       0.015   6.820 -31.508  1.00  0.00     0.100 C 
BRANCH  26  27
HETATM   27  C   UNL     1      -0.423   7.669 -30.313  1.00  0.00     0.130 C 
BRANCH  27  28
HETATM   28  N   UNL     1      -0.076   7.198 -28.976  1.00  0.00    -0.360 N 
HETATM   29  C   UNL     1       0.864   7.743 -28.135  1.00  0.00     0.222 C 
HETATM   30  O   UNL     1       1.666   8.612 -28.471  1.00  0.00    -0.273 OA
HETATM   31  H   UNL     1      -0.730   6.533 -28.578  1.00  0.00     0.162 HD
BRANCH  29  32
HETATM   32  C   UNL     1       0.859   7.114 -26.737  1.00  0.00     0.082 C 
HETATM   33  C   UNL     1       1.516   8.039 -25.707  1.00  0.00     0.040 C 
HETATM   34  C   UNL     1       0.617   9.228 -25.393  1.00  0.00     0.168 C 
HETATM   35  O   UNL     1      -0.673   8.808 -24.946  1.00  0.00    -0.391 OA
HETATM   36  C   UNL     1      -1.359   7.982 -25.878  1.00  0.00     0.168 C 
HETATM   37  C   UNL     1      -0.554   6.751 -26.273  1.00  0.00     0.040 C 
ENDBRANCH  29  32
ENDBRANCH  27  28
ENDBRANCH  26  27
ENDBRANCH   9  26
TORSDOF 8
ENDMDL
MODEL 8
REMARK VINA RESULT:      -8.0      7.590     10.482
REMARK  8 active torsions:
REMARK  status: ('A' for Active; 'I' for Inactive)
REMARK    1  A    between atoms: C_2  and  C_3 
REMARK    2  A    between atoms: C_3  and  N_4 
REMARK    3  A    between atoms: C_12  and  C_13 
REMARK    4  A    between atoms: C_13  and  N_14 
REMARK    5  A    between atoms: C_22  and  C_23 
REMARK    6  A    between atoms: C_23  and  C_24 
REMARK    7  A    between atoms: C_24  and  N_25 
REMARK       I    between atoms: N_25  and  C_26 
REMARK    8  A    between atoms: C_26  and  C_27 
ROOT
HETATM    1  N   UNL     1      -9.547   2.050 -31.683  1.00  0.00    -0.065 N 
HETATM    2  H   UNL     1      -9.911   1.618 -30.822  1.00  0.00     0.280 HD
HETATM    3  C   UNL     1     -10.417   3.281 -31.924  1.00  0.00     0.255 C 
HETATM    4  C   UNL     1     -10.439   3.725 -33.381  1.00  0.00     0.159 C 
HETATM    5  N   UNL     1     -11.411   2.997 -34.166  1.00  0.00    -0.319 N 
HETATM    6  C   UNL     1     -11.668   1.646 -34.098  1.00  0.00     0.131 A 
HETATM    7  C   UNL     1     -11.067   0.660 -33.159  1.00  0.00     0.108 C 
HETATM    8  C   UNL     1      -9.631   0.967 -32.760  1.00  0.00     0.243 C 
HETATM    9  C   UNL     1     -12.273   3.502 -35.109  1.00  0.00     0.131 A 
HETATM   10  N   UNL     1     -12.962   2.502 -35.616  1.00  0.00    -0.135 NA
HETATM   11  N   UNL     1     -12.595   1.352 -34.979  1.00  0.00    -0.135 NA
ENDROOT
BRANCH   1  12
HETATM   12  C   UNL     1      -8.096   2.376 -31.364  1.00  0.00     0.280 C 
BRANCH  12  13
HETATM   13  C   UNL     1      -7.139   1.236 -31.579  1.00  0.00     0.009 A 
HETATM   14  S   UNL     1      -6.643   0.779 -33.156  1.00  0.00    -0.096 SA
HETATM   15  C   UNL     1      -5.571  -0.426 -32.564  1.00  0.00     0.009 A 
HETATM   16  C   UNL     1      -5.609  -0.485 -31.185  1.00  0.00     0.017 A 
HETATM   17  C   UNL     1      -6.516   0.461 -30.620  1.00  0.00     0.017 A 
BRANCH  15  18
HETATM   18  C   UNL     1      -4.712  -1.209 -33.522  1.00  0.00     0.280 C 
BRANCH  18  19
HETATM   19  N   UNL     1      -5.217  -2.613 -33.794  1.00  0.00    -0.067 N 
HETATM   20  H   UNL     1      -5.603  -2.966 -32.910  1.00  0.00     0.280 HD
HETATM   21  C   UNL     1      -6.319  -2.652 -34.828  1.00  0.00     0.235 C 
HETATM   22  C   UNL     1      -6.851  -4.072 -34.950  1.00  0.00     0.028 C 
HETATM   23  C   UNL     1      -5.742  -5.061 -35.289  1.00  0.00     0.003 C 
HETATM   24  C   UNL     1      -4.594  -4.963 -34.292  1.00  0.00     0.028 C 
HETATM   25  C   UNL     1      -4.074  -3.538 -34.167  1.00  0.00     0.235 C 
ENDBRANCH  18  19
ENDBRANCH  15  18
ENDBRANCH  12  13
ENDBRANCH   1  12
BRANCH   9  26
HETATM   26  C   UNL     1     -12.421   4.935 -35.495  1.00  0.00     0.100 C 
BRANCH  26  27
HETATM   27  C   UNL     1     -13.526   5.650 -34.714  1.00  0.00     0.130 C 
BRANCH  27  28
HETATM   28  N   UNL     1     -13.973   5.055 -33.459  1.00  0.00    -0.360 N 
HETATM   29  C   UNL     1     -15.146   5.324 -32.797  1.00  0.00     0.222 C 
HETATM   30  O   UNL     1     -15.909   6.240 -33.095  1.00  0.00    -0.273 OA
HETATM   31  H   UNL     1     -13.449   4.235 -33.169  1.00  0.00     0.162 HD
BRANCH  29  32
HETATM   32  C   UNL     1     -15.386   4.400 -31.596  1.00  0.00     0.082 C 
HETATM   33  C   UNL     1     -16.882   4.160 -31.369  1.00  0.00     0.040 C 
HETATM   34  C   UNL     1     -17.455   3.244 -32.442  1.00  0.00     0.168 C 
HETATM   35  O   UNL     1     -16.749   2.005 -32.509  1.00  0.00    -0.391 OA
HETATM   36  C   UNL     1     -15.357   2.154 -32.766  1.00  0.00     0.168 C 
HETATM   37  C   UNL     1     -14.668   3.057 -31.751  1.00  0.00     0.040 C 
ENDBRANCH  29  32
ENDBRANCH  27  28
ENDBRANCH  26  27
ENDBRANCH   9  26
TORSDOF 8
ENDMDL
MODEL 9
REMARK VINA RESULT:      -8.0      3.859      5.436
REMARK  8 active torsions:
REMARK  status: ('A' for Active; 'I' for Inactive)
REMARK    1  A    between atoms: C_2  and  C_3 
REMARK    2  A    between atoms: C_3  and  N_4 
REMARK    3  A    between atoms: C_12  and  C_13 
REMARK    4  A    between atoms: C_13  and  N_14 
REMARK    5  A    between atoms: C_22  and  C_23 
REMARK    6  A    between atoms: C_23  and  C_24 
REMARK    7  A    between atoms: C_24  and  N_25 
REMARK       I    between atoms: N_25  and  C_26 
REMARK    8  A    between atoms: C_26  and  C_27 
ROOT
HETATM    1  N   UNL     1      -5.782   1.845 -31.794  1.00  0.00    -0.065 N 
HETATM    2  H   UNL     1      -6.072   1.271 -30.988  1.00  0.00     0.280 HD
HETATM    3  C   UNL     1      -4.257   1.899 -31.732  1.00  0.00     0.255 C 
HETATM    4  C   UNL     1      -3.671   3.111 -32.445  1.00  0.00     0.159 C 
HETATM    5  N   UNL     1      -3.657   4.291 -31.608  1.00  0.00    -0.319 N 
HETATM    6  C   UNL     1      -4.660   4.703 -30.762  1.00  0.00     0.131 A 
HETATM    7  C   UNL     1      -5.935   3.995 -30.462  1.00  0.00     0.108 C 
HETATM    8  C   UNL     1      -6.494   3.188 -31.625  1.00  0.00     0.243 C 
HETATM    9  C   UNL     1      -2.646   5.212 -31.479  1.00  0.00     0.131 A 
HETATM   10  N   UNL     1      -3.047   6.151 -30.648  1.00  0.00    -0.135 NA
HETATM   11  N   UNL     1      -4.293   5.828 -30.194  1.00  0.00    -0.135 NA
ENDROOT
BRANCH   1  12
HETATM   12  C   UNL     1      -6.322   1.102 -33.006  1.00  0.00     0.280 C 
BRANCH  12  13
HETATM   13  C   UNL     1      -7.819   0.968 -33.040  1.00  0.00     0.009 A 
HETATM   14  S   UNL     1      -8.778   1.970 -34.050  1.00  0.00    -0.096 SA
HETATM   15  C   UNL     1     -10.234   1.174 -33.606  1.00  0.00     0.009 A 
HETATM   16  C   UNL     1      -9.987   0.171 -32.688  1.00  0.00     0.017 A 
HETATM   17  C   UNL     1      -8.603   0.060 -32.356  1.00  0.00     0.017 A 
BRANCH  15  18
HETATM   18  C   UNL     1     -11.537   1.570 -34.247  1.00  0.00     0.280 C 
BRANCH  18  19
HETATM   19  N   UNL     1     -12.645   1.867 -33.255  1.00  0.00    -0.067 N 
HETATM   20  H   UNL     1     -12.495   1.250 -32.449  1.00  0.00     0.280 HD
HETATM   21  C   UNL     1     -12.623   3.294 -32.757  1.00  0.00     0.235 C 
HETATM   22  C   UNL     1     -13.683   3.474 -31.681  1.00  0.00     0.028 C 
HETATM   23  C   UNL     1     -15.068   3.088 -32.185  1.00  0.00     0.003 C 
HETATM   24  C   UNL     1     -15.070   1.678 -32.762  1.00  0.00     0.028 C 
HETATM   25  C   UNL     1     -14.001   1.503 -33.831  1.00  0.00     0.235 C 
ENDBRANCH  18  19
ENDBRANCH  15  18
ENDBRANCH  12  13
ENDBRANCH   1  12
BRANCH   9  26
HETATM   26  C   UNL     1      -1.314   5.165 -32.149  1.00  0.00     0.100 C 
BRANCH  26  27
HETATM   27  C   UNL     1      -0.617   6.528 -32.184  1.00  0.00     0.130 C 
BRANCH  27  28
HETATM   28  N   UNL     1      -0.346   7.191 -30.912  1.00  0.00    -0.360 N 
HETATM   29  C   UNL     1       0.354   6.671 -29.851  1.00  0.00     0.222 C 
HETATM   30  O   UNL     1       0.706   5.496 -29.769  1.00  0.00    -0.273 OA
HETATM   31  H   UNL     1      -0.532   8.188 -30.907  1.00  0.00     0.162 HD
BRANCH  29  32
HETATM   32  C   UNL     1       0.603   7.693 -28.735  1.00  0.00     0.082 C 
HETATM   33  C   UNL     1      -0.627   8.578 -28.506  1.00  0.00     0.040 C 
HETATM   34  C   UNL     1      -1.738   7.798 -27.816  1.00  0.00     0.168 C 
HETATM   35  O   UNL     1      -1.293   7.223 -26.587  1.00  0.00    -0.391 OA
HETATM   36  C   UNL     1      -0.179   6.350 -26.735  1.00  0.00     0.168 C 
HETATM   37  C   UNL     1       1.004   7.022 -27.418  1.00  0.00     0.040 C 
ENDBRANCH  29  32
ENDBRANCH  27  28
ENDBRANCH  26  27
ENDBRANCH   9  26
TORSDOF 8
ENDMDL
MODEL 10
REMARK VINA RESULT:      -7.9      3.389      9.831
REMARK  8 active torsions:
REMARK  status: ('A' for Active; 'I' for Inactive)
REMARK    1  A    between atoms: C_2  and  C_3 
REMARK    2  A    between atoms: C_3  and  N_4 
REMARK    3  A    between atoms: C_12  and  C_13 
REMARK    4  A    between atoms: C_13  and  N_14 
REMARK    5  A    between atoms: C_22  and  C_23 
REMARK    6  A    between atoms: C_23  and  C_24 
REMARK    7  A    between atoms: C_24  and  N_25 
REMARK       I    between atoms: N_25  and  C_26 
REMARK    8  A    between atoms: C_26  and  C_27 
ROOT
HETATM    1  N   UNL     1      -4.961   4.788 -33.155  1.00  0.00    -0.065 N 
HETATM    2  H   UNL     1      -5.120   5.806 -33.180  1.00  0.00     0.280 HD
HETATM    3  C   UNL     1      -6.033   4.184 -34.059  1.00  0.00     0.255 C 
HETATM    4  C   UNL     1      -6.345   2.729 -33.730  1.00  0.00     0.159 C 
HETATM    5  N   UNL     1      -7.306   2.600 -32.656  1.00  0.00    -0.319 N 
HETATM    6  C   UNL     1      -7.344   3.345 -31.500  1.00  0.00     0.131 A 
HETATM    7  C   UNL     1      -6.464   4.490 -31.137  1.00  0.00     0.108 C 
HETATM    8  C   UNL     1      -5.046   4.390 -31.680  1.00  0.00     0.243 C 
HETATM    9  C   UNL     1      -8.368   1.732 -32.585  1.00  0.00     0.131 A 
HETATM   10  N   UNL     1      -8.970   1.909 -31.428  1.00  0.00    -0.135 NA
HETATM   11  N   UNL     1      -8.340   2.920 -30.760  1.00  0.00    -0.135 NA
ENDROOT
BRANCH   1  12
HETATM   12  C   UNL     1      -3.544   4.608 -33.676  1.00  0.00     0.280 C 
BRANCH  12  13
HETATM   13  C   UNL     1      -2.546   5.586 -33.120  1.00  0.00     0.009 A 
HETATM   14  S   UNL     1      -1.380   5.101 -31.959  1.00  0.00    -0.096 SA
HETATM   15  C   UNL     1      -0.636   6.649 -31.931  1.00  0.00     0.009 A 
HETATM   16  C   UNL     1      -1.282   7.522 -32.784  1.00  0.00     0.017 A 
HETATM   17  C   UNL     1      -2.384   6.915 -33.459  1.00  0.00     0.017 A 
BRANCH  15  18
HETATM   18  C   UNL     1       0.590   6.882 -31.089  1.00  0.00     0.280 C 
BRANCH  18  19
HETATM   19  N   UNL     1       0.289   7.199 -29.637  1.00  0.00    -0.067 N 
HETATM   20  H   UNL     1       1.049   7.804 -29.302  1.00  0.00     0.280 HD
HETATM   21  C   UNL     1      -1.012   7.947 -29.456  1.00  0.00     0.235 C 
HETATM   22  C   UNL     1      -1.176   8.333 -27.993  1.00  0.00     0.028 C 
HETATM   23  C   UNL     1      -1.109   7.115 -27.079  1.00  0.00     0.003 C 
HETATM   24  C   UNL     1       0.166   6.317 -27.321  1.00  0.00     0.028 C 
HETATM   25  C   UNL     1       0.329   5.944 -28.787  1.00  0.00     0.235 C 
ENDBRANCH  18  19
ENDBRANCH  15  18
ENDBRANCH  12  13
ENDBRANCH   1  12
BRANCH   9  26
HETATM   26  C   UNL     1      -8.788   0.758 -33.635  1.00  0.00     0.100 C 
BRANCH  26  27
HETATM   27  C   UNL     1      -8.113  -0.607 -33.484  1.00  0.00     0.130 C 
BRANCH  27  28
HETATM   28  N   UNL     1      -6.694  -0.708 -33.809  1.00  0.00    -0.360 N 
HETATM   29  C   UNL     1      -5.665  -0.918 -32.924  1.00  0.00     0.222 C 
HETATM   30  O   UNL     1      -5.790  -0.880 -31.702  1.00  0.00    -0.273 OA
HETATM   31  H   UNL     1      -6.493  -0.825 -34.797  1.00  0.00     0.162 HD
BRANCH  29  32
HETATM   32  C   UNL     1      -4.314  -1.145 -33.614  1.00  0.00     0.082 C 
HETATM   33  C   UNL     1      -3.187  -1.314 -32.589  1.00  0.00     0.040 C 
HETATM   34  C   UNL     1      -3.284  -2.665 -31.892  1.00  0.00     0.168 C 
HETATM   35  O   UNL     1      -3.281  -3.742 -32.830  1.00  0.00    -0.391 OA
HETATM   36  C   UNL     1      -4.334  -3.671 -33.785  1.00  0.00     0.168 C 
HETATM   37  C   UNL     1      -4.342  -2.355 -34.551  1.00  0.00     0.040 C 
ENDBRANCH  29  32
ENDBRANCH  27  28
ENDBRANCH  26  27
ENDBRANCH   9  26
TORSDOF 8
ENDMDL
