MODEL 1
REMARK VINA RESULT:      -7.3      0.000      0.000
REMARK  5 active torsions:
REMARK  status: ('A' for Active; 'I' for Inactive)
REMARK    1  A    between atoms: C_12  and  N_13 
REMARK    2  A    between atoms: N_13  and  C_14 
REMARK    3  A    between atoms: C_14  and  C_15 
REMARK    4  A    between atoms: C_15  and  N_16 
REMARK       I    between atoms: N_16  and  C_17 
REMARK    5  A    between atoms: C_17  and  C_18 
ROOT
HETATM    1  C   UNL     1      -6.990  -2.556 -34.620  1.00  0.00     0.025 A 
HETATM    2  C   UNL     1      -5.811  -3.289 -34.660  1.00  0.00     0.036 A 
HETATM    3 CL   UNL     1      -5.798  -4.858 -35.358  1.00  0.00    -0.084 Cl
HETATM    4  C   UNL     1      -4.631  -2.756 -34.147  1.00  0.00     0.054 A 
HETATM    5  C   UNL     1      -4.633  -1.472 -33.585  1.00  0.00     0.046 A 
HETATM    6  C   UNL     1      -5.822  -0.701 -33.515  1.00  0.00     0.017 A 
HETATM    7  C   UNL     1      -6.994  -1.276 -34.056  1.00  0.00     0.018 A 
HETATM    8  N   UNL     1      -3.484  -0.950 -33.118  1.00  0.00    -0.365 N 
HETATM    9  H   UNL     1      -2.633  -1.508 -33.180  1.00  0.00     0.165 HD
HETATM   10  C   UNL     1      -3.400   0.278 -32.595  1.00  0.00     0.090 A 
HETATM   11  C   UNL     1      -4.528   1.076 -32.504  1.00  0.00     0.047 A 
HETATM   12  C   UNL     1      -5.768   0.601 -32.942  1.00  0.00     0.042 A 
ENDROOT
BRANCH  12  13
HETATM   13  N   UNL     1      -6.907   1.405 -32.938  1.00  0.00    -0.388 N 
HETATM   14  H   UNL     1      -7.466   1.355 -33.788  1.00  0.00     0.159 HD
BRANCH  13  15
HETATM   15  C   UNL     1      -7.694   1.672 -31.730  1.00  0.00     0.139 C 
BRANCH  15  16
HETATM   16  C   UNL     1      -8.891   0.706 -31.649  1.00  0.00     0.142 C 
BRANCH  16  17
HETATM   17  N   UNL     1     -10.150   1.276 -32.091  1.00  0.00    -0.359 N 
HETATM   18  C   UNL     1     -10.507   1.258 -33.419  1.00  0.00     0.221 C 
HETATM   19  O   UNL     1      -9.753   0.937 -34.328  1.00  0.00    -0.273 OA
HETATM   20  H   UNL     1     -10.893   1.380 -31.411  1.00  0.00     0.162 HD
BRANCH  18  21
HETATM   21  C   UNL     1     -11.924   1.625 -33.677  1.00  0.00     0.078 A 
HETATM   22  C   UNL     1     -12.543   1.415 -35.040  1.00  0.00     0.015 A 
HETATM   23  C   UNL     1     -12.941   0.527 -33.896  1.00  0.00     0.015 A 
ENDBRANCH  18  21
ENDBRANCH  16  17
ENDBRANCH  15  16
ENDBRANCH  13  15
ENDBRANCH  12  13
TORSDOF 5
ENDMDL
MODEL 2
REMARK VINA RESULT:      -7.2      3.770      5.535
REMARK  5 active torsions:
REMARK  status: ('A' for Active; 'I' for Inactive)
REMARK    1  A    between atoms: C_12  and  N_13 
REMARK    2  A    between atoms: N_13  and  C_14 
REMARK    3  A    between atoms: C_14  and  C_15 
REMARK    4  A    between atoms: C_15  and  N_16 
REMARK       I    between atoms: N_16  and  C_17 
REMARK    5  A    between atoms: C_17  and  C_18 
ROOT
HETATM    1  C   UNL     1      -6.572  -1.741 -34.805  1.00  0.00     0.025 A 
HETATM    2  C   UNL     1      -5.870  -2.927 -34.631  1.00  0.00     0.036 A 
HETATM    3 CL   UNL     1      -6.375  -4.351 -35.448  1.00  0.00    -0.084 Cl
HETATM    4  C   UNL     1      -4.749  -2.969 -33.807  1.00  0.00     0.054 A 
HETATM    5  C   UNL     1      -4.327  -1.808 -33.145  1.00  0.00     0.046 A 
HETATM    6  C   UNL     1      -5.028  -0.583 -33.288  1.00  0.00     0.017 A 
HETATM    7  C   UNL     1      -6.154  -0.582 -34.143  1.00  0.00     0.018 A 
HETATM    8  N   UNL     1      -3.226  -1.847 -32.372  1.00  0.00    -0.365 N 
HETATM    9  H   UNL     1      -2.724  -2.729 -32.282  1.00  0.00     0.165 HD
HETATM   10  C   UNL     1      -2.744  -0.775 -31.734  1.00  0.00     0.090 A 
HETATM   11  C   UNL     1      -3.386   0.447 -31.840  1.00  0.00     0.047 A 
HETATM   12  C   UNL     1      -4.552   0.570 -32.602  1.00  0.00     0.042 A 
ENDROOT
BRANCH  12  13
HETATM   13  N   UNL     1      -5.179   1.801 -32.794  1.00  0.00    -0.388 N 
HETATM   14  H   UNL     1      -5.701   1.880 -33.665  1.00  0.00     0.159 HD
BRANCH  13  15
HETATM   15  C   UNL     1      -5.740   2.594 -31.696  1.00  0.00     0.139 C 
BRANCH  15  16
HETATM   16  C   UNL     1      -4.833   3.800 -31.392  1.00  0.00     0.142 C 
BRANCH  16  17
HETATM   17  N   UNL     1      -4.069   4.275 -32.531  1.00  0.00    -0.359 N 
HETATM   18  C   UNL     1      -2.695   4.213 -32.535  1.00  0.00     0.221 C 
HETATM   19  O   UNL     1      -2.017   3.933 -31.555  1.00  0.00    -0.273 OA
HETATM   20  H   UNL     1      -4.535   4.336 -33.427  1.00  0.00     0.162 HD
BRANCH  18  21
HETATM   21  C   UNL     1      -2.075   4.476 -33.860  1.00  0.00     0.078 A 
HETATM   22  C   UNL     1      -2.776   5.338 -34.884  1.00  0.00     0.015 A 
HETATM   23  C   UNL     1      -1.564   5.865 -34.171  1.00  0.00     0.015 A 
ENDBRANCH  18  21
ENDBRANCH  16  17
ENDBRANCH  15  16
ENDBRANCH  13  15
ENDBRANCH  12  13
TORSDOF 5
ENDMDL
MODEL 3
REMARK VINA RESULT:      -7.0      3.398      5.962
REMARK  5 active torsions:
REMARK  status: ('A' for Active; 'I' for Inactive)
REMARK    1  A    between atoms: C_12  and  N_13 
REMARK    2  A    between atoms: N_13  and  C_14 
REMARK    3  A    between atoms: C_14  and  C_15 
REMARK    4  A    between atoms: C_15  and  N_16 
REMARK       I    between atoms: N_16  and  C_17 
REMARK    5  A    between atoms: C_17  and  C_18 
ROOT
HETATM    1  C   UNL     1      -4.666  -2.615 -34.383  1.00  0.00     0.025 A 
HETATM    2  C   UNL     1      -5.934  -3.117 -34.648  1.00  0.00     0.036 A 
HETATM    3 CL   UNL     1      -6.114  -4.689 -35.315  1.00  0.00    -0.084 Cl
HETATM    4  C   UNL     1      -7.066  -2.357 -34.365  1.00  0.00     0.054 A 
HETATM    5  C   UNL     1      -6.926  -1.077 -33.811  1.00  0.00     0.046 A 
HETATM    6  C   UNL     1      -5.646  -0.528 -33.541  1.00  0.00     0.017 A 
HETATM    7  C   UNL     1      -4.524  -1.337 -33.834  1.00  0.00     0.018 A 
HETATM    8  N   UNL     1      -8.024  -0.359 -33.512  1.00  0.00    -0.365 N 
HETATM    9  H   UNL     1      -8.940  -0.765 -33.702  1.00  0.00     0.165 HD
HETATM   10  C   UNL     1      -7.972   0.855 -32.955  1.00  0.00     0.090 A 
HETATM   11  C   UNL     1      -6.750   1.439 -32.667  1.00  0.00     0.047 A 
HETATM   12  C   UNL     1      -5.559   0.773 -32.970  1.00  0.00     0.042 A 
ENDROOT
BRANCH  12  13
HETATM   13  N   UNL     1      -4.314   1.296 -32.622  1.00  0.00    -0.388 N 
HETATM   14  H   UNL     1      -3.852   1.823 -33.362  1.00  0.00     0.159 HD
BRANCH  13  15
HETATM   15  C   UNL     1      -3.994   1.771 -31.272  1.00  0.00     0.139 C 
BRANCH  15  16
HETATM   16  C   UNL     1      -4.083   3.308 -31.212  1.00  0.00     0.142 C 
BRANCH  16  17
HETATM   17  N   UNL     1      -3.621   3.980 -32.412  1.00  0.00    -0.359 N 
HETATM   18  C   UNL     1      -2.300   4.335 -32.559  1.00  0.00     0.221 C 
HETATM   19  O   UNL     1      -1.471   4.282 -31.660  1.00  0.00    -0.273 OA
HETATM   20  H   UNL     1      -4.175   3.889 -33.255  1.00  0.00     0.162 HD
BRANCH  18  21
HETATM   21  C   UNL     1      -1.931   4.761 -33.935  1.00  0.00     0.078 A 
HETATM   22  C   UNL     1      -2.943   5.431 -34.835  1.00  0.00     0.015 A 
HETATM   23  C   UNL     1      -1.822   6.237 -34.245  1.00  0.00     0.015 A 
ENDBRANCH  18  21
ENDBRANCH  16  17
ENDBRANCH  15  16
ENDBRANCH  13  15
ENDBRANCH  12  13
TORSDOF 5
ENDMDL
MODEL 4
REMARK VINA RESULT:      -6.9      1.841      2.344
REMARK  5 active torsions:
REMARK  status: ('A' for Active; 'I' for Inactive)
REMARK    1  A    between atoms: C_12  and  N_13 
REMARK    2  A    between atoms: N_13  and  C_14 
REMARK    3  A    between atoms: C_14  and  C_15 
REMARK    4  A    between atoms: C_15  and  N_16 
REMARK       I    between atoms: N_16  and  C_17 
REMARK    5  A    between atoms: C_17  and  C_18 
ROOT
HETATM    1  C   UNL     1      -6.524  -1.840 -34.886  1.00  0.00     0.025 A 
HETATM    2  C   UNL     1      -5.840  -3.037 -34.711  1.00  0.00     0.036 A 
HETATM    3 CL   UNL     1      -6.367  -4.453 -35.528  1.00  0.00    -0.084 Cl
HETATM    4  C   UNL     1      -4.721  -3.095 -33.887  1.00  0.00     0.054 A 
HETATM    5  C   UNL     1      -4.281  -1.940 -33.226  1.00  0.00     0.046 A 
HETATM    6  C   UNL     1      -4.962  -0.705 -33.370  1.00  0.00     0.017 A 
HETATM    7  C   UNL     1      -6.089  -0.688 -34.224  1.00  0.00     0.018 A 
HETATM    8  N   UNL     1      -3.180  -1.996 -32.454  1.00  0.00    -0.365 N 
HETATM    9  H   UNL     1      -2.691  -2.886 -32.362  1.00  0.00     0.165 HD
HETATM   10  C   UNL     1      -2.682  -0.931 -31.816  1.00  0.00     0.090 A 
HETATM   11  C   UNL     1      -3.305   0.300 -31.922  1.00  0.00     0.047 A 
HETATM   12  C   UNL     1      -4.469   0.441 -32.683  1.00  0.00     0.042 A 
ENDROOT
BRANCH  12  13
HETATM   13  N   UNL     1      -5.077   1.681 -32.877  1.00  0.00    -0.388 N 
HETATM   14  H   UNL     1      -5.976   1.644 -33.355  1.00  0.00     0.159 HD
BRANCH  13  15
HETATM   15  C   UNL     1      -4.964   2.786 -31.919  1.00  0.00     0.139 C 
BRANCH  15  16
HETATM   16  C   UNL     1      -6.189   2.811 -30.986  1.00  0.00     0.142 C 
BRANCH  16  17
HETATM   17  N   UNL     1      -7.423   2.367 -31.608  1.00  0.00    -0.359 N 
HETATM   18  C   UNL     1      -7.900   1.093 -31.402  1.00  0.00     0.221 C 
HETATM   19  O   UNL     1      -7.267   0.204 -30.850  1.00  0.00    -0.273 OA
HETATM   20  H   UNL     1      -8.087   3.070 -31.908  1.00  0.00     0.162 HD
BRANCH  18  21
HETATM   21  C   UNL     1      -9.293   0.879 -31.874  1.00  0.00     0.078 A 
HETATM   22  C   UNL     1      -9.734   1.370 -33.234  1.00  0.00     0.015 A 
HETATM   23  C   UNL     1      -9.548  -0.101 -32.998  1.00  0.00     0.015 A 
ENDBRANCH  18  21
ENDBRANCH  16  17
ENDBRANCH  15  16
ENDBRANCH  13  15
ENDBRANCH  12  13
TORSDOF 5
ENDMDL
MODEL 5
REMARK VINA RESULT:      -6.9      1.651      2.069
REMARK  5 active torsions:
REMARK  status: ('A' for Active; 'I' for Inactive)
REMARK    1  A    between atoms: C_12  and  N_13 
REMARK    2  A    between atoms: N_13  and  C_14 
REMARK    3  A    between atoms: C_14  and  C_15 
REMARK    4  A    between atoms: C_15  and  N_16 
REMARK       I    between atoms: N_16  and  C_17 
REMARK    5  A    between atoms: C_17  and  C_18 
ROOT
HETATM    1  C   UNL     1      -5.916  -3.112 -34.757  1.00  0.00     0.025 A 
HETATM    2  C   UNL     1      -4.668  -3.073 -34.149  1.00  0.00     0.036 A 
HETATM    3 CL   UNL     1      -3.656  -4.461 -34.179  1.00  0.00    -0.084 Cl
HETATM    4  C   UNL     1      -4.222  -1.912 -33.524  1.00  0.00     0.054 A 
HETATM    5  C   UNL     1      -5.040  -0.774 -33.505  1.00  0.00     0.046 A 
HETATM    6  C   UNL     1      -6.326  -0.781 -34.104  1.00  0.00     0.017 A 
HETATM    7  C   UNL     1      -6.735  -1.978 -34.736  1.00  0.00     0.018 A 
HETATM    8  N   UNL     1      -4.593   0.355 -32.926  1.00  0.00    -0.365 N 
HETATM    9  H   UNL     1      -3.664   0.355 -32.506  1.00  0.00     0.165 HD
HETATM   10  C   UNL     1      -5.301   1.489 -32.894  1.00  0.00     0.090 A 
HETATM   11  C   UNL     1      -6.561   1.541 -33.465  1.00  0.00     0.047 A 
HETATM   12  C   UNL     1      -7.113   0.405 -34.065  1.00  0.00     0.042 A 
ENDROOT
BRANCH  12  13
HETATM   13  N   UNL     1      -8.345   0.442 -34.718  1.00  0.00    -0.388 N 
HETATM   14  H   UNL     1      -8.693  -0.467 -35.021  1.00  0.00     0.159 HD
BRANCH  13  15
HETATM   15  C   UNL     1      -9.405   1.395 -34.373  1.00  0.00     0.139 C 
BRANCH  15  16
HETATM   16  C   UNL     1     -10.268   0.840 -33.224  1.00  0.00     0.142 C 
BRANCH  16  17
HETATM   17  N   UNL     1     -11.688   0.780 -33.518  1.00  0.00    -0.359 N 
HETATM   18  C   UNL     1     -12.468   1.912 -33.465  1.00  0.00     0.221 C 
HETATM   19  O   UNL     1     -12.092   2.985 -33.012  1.00  0.00    -0.273 OA
HETATM   20  H   UNL     1     -12.030   0.005 -34.071  1.00  0.00     0.162 HD
BRANCH  18  21
HETATM   21  C   UNL     1     -13.825   1.747 -34.051  1.00  0.00     0.078 A 
HETATM   22  C   UNL     1     -14.513   0.402 -34.041  1.00  0.00     0.015 A 
HETATM   23  C   UNL     1     -14.998   1.492 -33.131  1.00  0.00     0.015 A 
ENDBRANCH  18  21
ENDBRANCH  16  17
ENDBRANCH  15  16
ENDBRANCH  13  15
ENDBRANCH  12  13
TORSDOF 5
ENDMDL
MODEL 6
REMARK VINA RESULT:      -6.5     13.933     15.553
REMARK  5 active torsions:
REMARK  status: ('A' for Active; 'I' for Inactive)
REMARK    1  A    between atoms: C_12  and  N_13 
REMARK    2  A    between atoms: N_13  and  C_14 
REMARK    3  A    between atoms: C_14  and  C_15 
REMARK    4  A    between atoms: C_15  and  N_16 
REMARK       I    between atoms: N_16  and  C_17 
REMARK    5  A    between atoms: C_17  and  C_18 
ROOT
HETATM    1  C   UNL     1      -6.904 -12.054 -40.504  1.00  0.00     0.025 A 
HETATM    2  C   UNL     1      -7.976 -12.473 -39.725  1.00  0.00     0.036 A 
HETATM    3 CL   UNL     1      -9.560 -12.493 -40.387  1.00  0.00    -0.084 Cl
HETATM    4  C   UNL     1      -7.774 -12.889 -38.412  1.00  0.00     0.054 A 
HETATM    5  C   UNL     1      -6.481 -12.883 -37.871  1.00  0.00     0.046 A 
HETATM    6  C   UNL     1      -5.366 -12.449 -38.631  1.00  0.00     0.017 A 
HETATM    7  C   UNL     1      -5.614 -12.044 -39.963  1.00  0.00     0.018 A 
HETATM    8  N   UNL     1      -6.288 -13.314 -36.611  1.00  0.00    -0.365 N 
HETATM    9  H   UNL     1      -7.093 -13.633 -36.074  1.00  0.00     0.165 HD
HETATM   10  C   UNL     1      -5.082 -13.367 -36.035  1.00  0.00     0.090 A 
HETATM   11  C   UNL     1      -3.958 -12.958 -36.731  1.00  0.00     0.047 A 
HETATM   12  C   UNL     1      -4.072 -12.471 -38.037  1.00  0.00     0.042 A 
ENDROOT
BRANCH  12  13
HETATM   13  N   UNL     1      -2.954 -12.125 -38.795  1.00  0.00    -0.388 N 
HETATM   14  H   UNL     1      -3.068 -11.287 -39.363  1.00  0.00     0.159 HD
BRANCH  13  15
HETATM   15  C   UNL     1      -1.578 -12.345 -38.338  1.00  0.00     0.139 C 
BRANCH  15  16
HETATM   16  C   UNL     1      -0.939 -13.513 -39.112  1.00  0.00     0.142 C 
BRANCH  16  17
HETATM   17  N   UNL     1      -1.401 -13.646 -40.481  1.00  0.00    -0.359 N 
HETATM   18  C   UNL     1      -2.470 -14.453 -40.792  1.00  0.00     0.221 C 
HETATM   19  O   UNL     1      -2.991 -15.236 -40.007  1.00  0.00    -0.273 OA
HETATM   20  H   UNL     1      -1.165 -12.912 -41.138  1.00  0.00     0.162 HD
BRANCH  18  21
HETATM   21  C   UNL     1      -2.991 -14.274 -42.173  1.00  0.00     0.078 A 
HETATM   22  C   UNL     1      -3.458 -15.461 -42.983  1.00  0.00     0.015 A 
HETATM   23  C   UNL     1      -4.464 -14.490 -42.438  1.00  0.00     0.015 A 
ENDBRANCH  18  21
ENDBRANCH  16  17
ENDBRANCH  15  16
ENDBRANCH  13  15
ENDBRANCH  12  13
TORSDOF 5
ENDMDL
MODEL 7
REMARK VINA RESULT:      -6.4      3.669      5.635
REMARK  5 active torsions:
REMARK  status: ('A' for Active; 'I' for Inactive)
REMARK    1  A    between atoms: C_12  and  N_13 
REMARK    2  A    between atoms: N_13  and  C_14 
REMARK    3  A    between atoms: C_14  and  C_15 
REMARK    4  A    between atoms: C_15  and  N_16 
REMARK       I    between atoms: N_16  and  C_17 
REMARK    5  A    between atoms: C_17  and  C_18 
ROOT
HETATM    1  C   UNL     1      -3.907   5.260 -34.736  1.00  0.00     0.025 A 
HETATM    2  C   UNL     1      -2.728   4.925 -34.081  1.00  0.00     0.036 A 
HETATM    3 CL   UNL     1      -1.253   5.682 -34.529  1.00  0.00    -0.084 Cl
HETATM    4  C   UNL     1      -2.734   3.986 -33.054  1.00  0.00     0.054 A 
HETATM    5  C   UNL     1      -3.937   3.372 -32.679  1.00  0.00     0.046 A 
HETATM    6  C   UNL     1      -5.156   3.680 -33.334  1.00  0.00     0.017 A 
HETATM    7  C   UNL     1      -5.107   4.646 -34.364  1.00  0.00     0.018 A 
HETATM    8  N   UNL     1      -3.942   2.486 -31.665  1.00  0.00    -0.365 N 
HETATM    9  H   UNL     1      -3.062   2.277 -31.194  1.00  0.00     0.165 HD
HETATM   10  C   UNL     1      -5.052   1.883 -31.230  1.00  0.00     0.090 A 
HETATM   11  C   UNL     1      -6.271   2.147 -31.830  1.00  0.00     0.047 A 
HETATM   12  C   UNL     1      -6.352   3.035 -32.907  1.00  0.00     0.042 A 
ENDROOT
BRANCH  12  13
HETATM   13  N   UNL     1      -7.573   3.384 -33.484  1.00  0.00    -0.388 N 
HETATM   14  H   UNL     1      -7.516   3.665 -34.462  1.00  0.00     0.159 HD
BRANCH  13  15
HETATM   15  C   UNL     1      -8.840   2.738 -33.128  1.00  0.00     0.139 C 
BRANCH  15  16
HETATM   16  C   UNL     1      -9.235   1.709 -34.204  1.00  0.00     0.142 C 
BRANCH  16  17
HETATM   17  N   UNL     1      -8.720   0.372 -33.970  1.00  0.00    -0.359 N 
HETATM   18  C   UNL     1      -7.611  -0.086 -34.642  1.00  0.00     0.221 C 
HETATM   19  O   UNL     1      -7.090   0.497 -35.584  1.00  0.00    -0.273 OA
HETATM   20  H   UNL     1      -8.960  -0.087 -33.100  1.00  0.00     0.162 HD
BRANCH  18  21
HETATM   21  C   UNL     1      -7.049  -1.352 -34.103  1.00  0.00     0.078 A 
HETATM   22  C   UNL     1      -5.878  -2.028 -34.778  1.00  0.00     0.015 A 
HETATM   23  C   UNL     1      -5.680  -1.335 -33.461  1.00  0.00     0.015 A 
ENDBRANCH  18  21
ENDBRANCH  16  17
ENDBRANCH  15  16
ENDBRANCH  13  15
ENDBRANCH  12  13
TORSDOF 5
ENDMDL
MODEL 8
REMARK VINA RESULT:      -6.3     14.173     15.852
REMARK  5 active torsions:
REMARK  status: ('A' for Active; 'I' for Inactive)
REMARK    1  A    between atoms: C_12  and  N_13 
REMARK    2  A    between atoms: N_13  and  C_14 
REMARK    3  A    between atoms: C_14  and  C_15 
REMARK    4  A    between atoms: C_15  and  N_16 
REMARK       I    between atoms: N_16  and  C_17 
REMARK    5  A    between atoms: C_17  and  C_18 
ROOT
HETATM    1  C   UNL     1      -5.226 -13.741 -36.704  1.00  0.00     0.025 A 
HETATM    2  C   UNL     1      -6.471 -13.693 -36.089  1.00  0.00     0.036 A 
HETATM    3 CL   UNL     1      -6.614 -14.040 -34.413  1.00  0.00    -0.084 Cl
HETATM    4  C   UNL     1      -7.606 -13.352 -36.819  1.00  0.00     0.054 A 
HETATM    5  C   UNL     1      -7.493 -13.058 -38.185  1.00  0.00     0.046 A 
HETATM    6  C   UNL     1      -6.241 -13.111 -38.848  1.00  0.00     0.017 A 
HETATM    7  C   UNL     1      -5.113 -13.451 -38.067  1.00  0.00     0.018 A 
HETATM    8  N   UNL     1      -8.589 -12.701 -38.879  1.00  0.00    -0.365 N 
HETATM    9  H   UNL     1      -9.484 -12.657 -38.393  1.00  0.00     0.165 HD
HETATM   10  C   UNL     1      -8.557 -12.377 -40.176  1.00  0.00     0.090 A 
HETATM   11  C   UNL     1      -7.362 -12.408 -40.874  1.00  0.00     0.047 A 
HETATM   12  C   UNL     1      -6.179 -12.794 -40.235  1.00  0.00     0.042 A 
ENDROOT
BRANCH  12  13
HETATM   13  N   UNL     1      -4.946 -12.762 -40.886  1.00  0.00    -0.388 N 
HETATM   14  H   UNL     1      -4.170 -12.444 -40.308  1.00  0.00     0.159 HD
BRANCH  13  15
HETATM   15  C   UNL     1      -4.559 -13.731 -41.915  1.00  0.00     0.139 C 
BRANCH  15  16
HETATM   16  C   UNL     1      -3.137 -14.258 -41.643  1.00  0.00     0.142 C 
BRANCH  16  17
HETATM   17  N   UNL     1      -2.517 -13.714 -40.448  1.00  0.00    -0.359 N 
HETATM   18  C   UNL     1      -1.583 -14.439 -39.745  1.00  0.00     0.221 C 
HETATM   19  O   UNL     1      -1.334 -15.620 -39.949  1.00  0.00    -0.273 OA
HETATM   20  H   UNL     1      -2.516 -12.709 -40.325  1.00  0.00     0.162 HD
BRANCH  18  21
HETATM   21  C   UNL     1      -0.846 -13.654 -38.720  1.00  0.00     0.078 A 
HETATM   22  C   UNL     1      -1.410 -12.357 -38.186  1.00  0.00     0.015 A 
HETATM   23  C   UNL     1      -1.398 -13.578 -37.314  1.00  0.00     0.015 A 
ENDBRANCH  18  21
ENDBRANCH  16  17
ENDBRANCH  15  16
ENDBRANCH  13  15
ENDBRANCH  12  13
TORSDOF 5
ENDMDL
MODEL 9
REMARK VINA RESULT:      -6.2     14.269     15.190
REMARK  5 active torsions:
REMARK  status: ('A' for Active; 'I' for Inactive)
REMARK    1  A    between atoms: C_12  and  N_13 
REMARK    2  A    between atoms: N_13  and  C_14 
REMARK    3  A    between atoms: C_14  and  C_15 
REMARK    4  A    between atoms: C_15  and  N_16 
REMARK       I    between atoms: N_16  and  C_17 
REMARK    5  A    between atoms: C_17  and  C_18 
ROOT
HETATM    1  C   UNL     1      -0.742 -14.306 -37.597  1.00  0.00     0.025 A 
HETATM    2  C   UNL     1      -0.013 -14.260 -38.778  1.00  0.00     0.036 A 
HETATM    3 CL   UNL     1       1.695 -14.429 -38.740  1.00  0.00    -0.084 Cl
HETATM    4  C   UNL     1      -0.659 -14.088 -39.999  1.00  0.00     0.054 A 
HETATM    5  C   UNL     1      -2.054 -13.958 -40.037  1.00  0.00     0.046 A 
HETATM    6  C   UNL     1      -2.829 -13.987 -38.850  1.00  0.00     0.017 A 
HETATM    7  C   UNL     1      -2.134 -14.174 -37.633  1.00  0.00     0.018 A 
HETATM    8  N   UNL     1      -2.676 -13.823 -41.223  1.00  0.00    -0.365 N 
HETATM    9  H   UNL     1      -2.113 -13.812 -42.072  1.00  0.00     0.165 HD
HETATM   10  C   UNL     1      -4.004 -13.724 -41.343  1.00  0.00     0.090 A 
HETATM   11  C   UNL     1      -4.810 -13.749 -40.218  1.00  0.00     0.047 A 
HETATM   12  C   UNL     1      -4.244 -13.861 -38.944  1.00  0.00     0.042 A 
ENDROOT
BRANCH  12  13
HETATM   13  N   UNL     1      -5.029 -13.968 -37.796  1.00  0.00    -0.388 N 
HETATM   14  H   UNL     1      -5.325 -13.078 -37.399  1.00  0.00     0.159 HD
BRANCH  13  15
HETATM   15  C   UNL     1      -5.985 -15.059 -37.580  1.00  0.00     0.139 C 
BRANCH  15  16
HETATM   16  C   UNL     1      -7.330 -14.497 -37.082  1.00  0.00     0.142 C 
BRANCH  16  17
HETATM   17  N   UNL     1      -8.283 -14.208 -38.138  1.00  0.00    -0.359 N 
HETATM   18  C   UNL     1      -8.233 -13.020 -38.830  1.00  0.00     0.221 C 
HETATM   19  O   UNL     1      -7.529 -12.070 -38.513  1.00  0.00    -0.273 OA
HETATM   20  H   UNL     1      -8.755 -14.986 -38.582  1.00  0.00     0.162 HD
BRANCH  18  21
HETATM   21  C   UNL     1      -9.086 -12.985 -40.046  1.00  0.00     0.078 A 
HETATM   22  C   UNL     1     -10.526 -13.442 -39.995  1.00  0.00     0.015 A 
HETATM   23  C   UNL     1     -10.214 -11.980 -40.126  1.00  0.00     0.015 A 
ENDBRANCH  18  21
ENDBRANCH  16  17
ENDBRANCH  15  16
ENDBRANCH  13  15
ENDBRANCH  12  13
TORSDOF 5
ENDMDL
MODEL 10
REMARK VINA RESULT:      -6.2      1.889      2.691
REMARK  5 active torsions:
REMARK  status: ('A' for Active; 'I' for Inactive)
REMARK    1  A    between atoms: C_12  and  N_13 
REMARK    2  A    between atoms: N_13  and  C_14 
REMARK    3  A    between atoms: C_14  and  C_15 
REMARK    4  A    between atoms: C_15  and  N_16 
REMARK       I    between atoms: N_16  and  C_17 
REMARK    5  A    between atoms: C_17  and  C_18 
ROOT
HETATM    1  C   UNL     1      -3.734  -2.284 -32.551  1.00  0.00     0.025 A 
HETATM    2  C   UNL     1      -4.127  -3.196 -33.522  1.00  0.00     0.036 A 
HETATM    3 CL   UNL     1      -3.410  -4.756 -33.575  1.00  0.00    -0.084 Cl
HETATM    4  C   UNL     1      -5.109  -2.860 -34.450  1.00  0.00     0.054 A 
HETATM    5  C   UNL     1      -5.704  -1.592 -34.405  1.00  0.00     0.046 A 
HETATM    6  C   UNL     1      -5.319  -0.631 -33.436  1.00  0.00     0.017 A 
HETATM    7  C   UNL     1      -4.325  -1.017 -32.507  1.00  0.00     0.018 A 
HETATM    8  N   UNL     1      -6.674  -1.283 -35.286  1.00  0.00    -0.365 N 
HETATM    9  H   UNL     1      -6.952  -1.982 -35.973  1.00  0.00     0.165 HD
HETATM   10  C   UNL     1      -7.310  -0.106 -35.287  1.00  0.00     0.090 A 
HETATM   11  C   UNL     1      -6.976   0.868 -34.363  1.00  0.00     0.047 A 
HETATM   12  C   UNL     1      -5.961   0.640 -33.429  1.00  0.00     0.042 A 
ENDROOT
BRANCH  12  13
HETATM   13  N   UNL     1      -5.653   1.567 -32.434  1.00  0.00    -0.388 N 
HETATM   14  H   UNL     1      -4.869   1.307 -31.838  1.00  0.00     0.159 HD
BRANCH  13  15
HETATM   15  C   UNL     1      -5.801   3.015 -32.616  1.00  0.00     0.139 C 
BRANCH  15  16
HETATM   16  C   UNL     1      -6.968   3.543 -31.761  1.00  0.00     0.142 C 
BRANCH  16  17
HETATM   17  N   UNL     1      -8.268   3.444 -32.399  1.00  0.00    -0.359 N 
HETATM   18  C   UNL     1      -9.128   2.414 -32.094  1.00  0.00     0.221 C 
HETATM   19  O   UNL     1      -8.818   1.436 -31.426  1.00  0.00    -0.273 OA
HETATM   20  H   UNL     1      -8.670   4.283 -32.799  1.00  0.00     0.162 HD
BRANCH  18  21
HETATM   21  C   UNL     1     -10.509   2.597 -32.613  1.00  0.00     0.078 A 
HETATM   22  C   UNL     1     -10.756   2.858 -34.080  1.00  0.00     0.015 A 
HETATM   23  C   UNL     1     -11.114   1.525 -33.491  1.00  0.00     0.015 A 
ENDBRANCH  18  21
ENDBRANCH  16  17
ENDBRANCH  15  16
ENDBRANCH  13  15
ENDBRANCH  12  13
TORSDOF 5
ENDMDL
