MODEL 1
REMARK VINA RESULT:      -8.2      0.000      0.000
REMARK  5 active torsions:
REMARK  status: ('A' for Active; 'I' for Inactive)
REMARK    1  A    between atoms: C_3  and  O_4 
REMARK    2  A    between atoms: O_4  and  C_5 
REMARK    3  A    between atoms: C_8  and  N_9 
REMARK       I    between atoms: N_9  and  C_10 
REMARK    4  A    between atoms: C_10  and  C_11 
REMARK    5  A    between atoms: C_11  and  C_12 
ROOT
HETATM    1  C   UNL     1      -2.979  -2.431 -31.854  1.00  0.00     0.004 A 
HETATM    2  C   UNL     1      -3.516  -1.180 -32.156  1.00  0.00     0.037 A 
HETATM    3  C   UNL     1      -4.443  -1.047 -33.192  1.00  0.00     0.077 A 
HETATM    4  C   UNL     1      -4.859  -2.171 -33.910  1.00  0.00     0.059 A 
HETATM    5  C   UNL     1      -4.326  -3.428 -33.603  1.00  0.00     0.047 A 
HETATM    6  C   UNL     1      -4.759  -4.587 -34.327  1.00  0.00     0.099 C 
HETATM    7  N   UNL     1      -5.108  -5.529 -34.908  1.00  0.00    -0.191 NA
HETATM    8  C   UNL     1      -3.382  -3.555 -32.576  1.00  0.00     0.023 A 
ENDROOT
BRANCH   3   9
HETATM    9  O   UNL     1      -4.975   0.208 -33.387  1.00  0.00    -0.311 OA
BRANCH   9  10
HETATM   10  C   UNL     1      -6.336   0.272 -33.552  1.00  0.00     0.076 A 
HETATM   11  C   UNL     1      -7.149   0.284 -32.422  1.00  0.00     0.039 A 
HETATM   12  C   UNL     1      -8.536   0.399 -32.562  1.00  0.00     0.032 A 
HETATM   13  C   UNL     1      -9.112   0.535 -33.828  1.00  0.00     0.034 A 
HETATM   14  C   UNL     1      -8.277   0.555 -34.956  1.00  0.00     0.032 A 
HETATM   15  C   UNL     1      -6.892   0.422 -34.820  1.00  0.00     0.039 A 
BRANCH  13  16
HETATM   16  N   UNL     1     -10.499   0.682 -34.050  1.00  0.00    -0.327 N 
HETATM   17  C   UNL     1     -11.189   1.856 -34.324  1.00  0.00     0.227 C 
HETATM   18  O   UNL     1     -10.702   2.984 -34.335  1.00  0.00    -0.273 OA
HETATM   19  H   UNL     1     -11.051  -0.163 -33.967  1.00  0.00     0.169 HD
BRANCH  17  20
HETATM   20  C   UNL     1     -12.683   1.599 -34.555  1.00  0.00     0.159 C 
BRANCH  20  21
HETATM   21  C   UNL     1     -13.573   2.035 -33.429  1.00  0.00     0.017 A 
HETATM   22  N   UNL     1     -13.170   2.913 -32.446  1.00  0.00    -0.369 N 
HETATM   23  H   UNL     1     -12.260   3.364 -32.421  1.00  0.00     0.165 HD
HETATM   24  C   UNL     1     -14.186   3.103 -31.548  1.00  0.00     0.088 A 
HETATM   25  C   UNL     1     -15.256   2.338 -31.948  1.00  0.00     0.019 A 
HETATM   26  C   UNL     1     -14.872   1.664 -33.132  1.00  0.00     0.027 A 
ENDBRANCH  20  21
ENDBRANCH  17  20
ENDBRANCH  13  16
ENDBRANCH   9  10
ENDBRANCH   3   9
TORSDOF 5
ENDMDL
MODEL 2
REMARK VINA RESULT:      -7.9      5.666      8.377
REMARK  5 active torsions:
REMARK  status: ('A' for Active; 'I' for Inactive)
REMARK    1  A    between atoms: C_3  and  O_4 
REMARK    2  A    between atoms: O_4  and  C_5 
REMARK    3  A    between atoms: C_8  and  N_9 
REMARK       I    between atoms: N_9  and  C_10 
REMARK    4  A    between atoms: C_10  and  C_11 
REMARK    5  A    between atoms: C_11  and  C_12 
ROOT
HETATM    1  C   UNL     1      -3.863  -1.792 -33.150  1.00  0.00     0.004 A 
HETATM    2  C   UNL     1      -4.687  -0.752 -32.719  1.00  0.00     0.037 A 
HETATM    3  C   UNL     1      -6.037  -0.734 -33.074  1.00  0.00     0.077 A 
HETATM    4  C   UNL     1      -6.576  -1.773 -33.838  1.00  0.00     0.059 A 
HETATM    5  C   UNL     1      -5.752  -2.820 -34.266  1.00  0.00     0.047 A 
HETATM    6  C   UNL     1      -6.301  -3.896 -35.038  1.00  0.00     0.099 C 
HETATM    7  N   UNL     1      -6.741  -4.770 -35.662  1.00  0.00    -0.191 NA
HETATM    8  C   UNL     1      -4.394  -2.825 -33.924  1.00  0.00     0.023 A 
ENDROOT
BRANCH   3   9
HETATM    9  O   UNL     1      -6.798   0.290 -32.557  1.00  0.00    -0.311 OA
BRANCH   9  10
HETATM   10  C   UNL     1      -6.124   1.439 -32.224  1.00  0.00     0.076 A 
HETATM   11  C   UNL     1      -5.770   1.649 -30.895  1.00  0.00     0.039 A 
HETATM   12  C   UNL     1      -5.039   2.787 -30.539  1.00  0.00     0.032 A 
HETATM   13  C   UNL     1      -4.632   3.702 -31.513  1.00  0.00     0.034 A 
HETATM   14  C   UNL     1      -4.969   3.461 -32.854  1.00  0.00     0.032 A 
HETATM   15  C   UNL     1      -5.714   2.333 -33.211  1.00  0.00     0.039 A 
BRANCH  13  16
HETATM   16  N   UNL     1      -3.872   4.859 -31.238  1.00  0.00    -0.327 N 
HETATM   17  C   UNL     1      -2.491   4.996 -31.305  1.00  0.00     0.227 C 
HETATM   18  O   UNL     1      -1.695   4.091 -31.538  1.00  0.00    -0.273 OA
HETATM   19  H   UNL     1      -4.396   5.668 -30.926  1.00  0.00     0.169 HD
BRANCH  17  20
HETATM   20  C   UNL     1      -2.043   6.426 -30.981  1.00  0.00     0.159 C 
BRANCH  20  21
HETATM   21  C   UNL     1      -0.944   6.522 -29.964  1.00  0.00     0.017 A 
HETATM   22  N   UNL     1      -0.377   5.420 -29.361  1.00  0.00    -0.369 N 
HETATM   23  H   UNL     1      -0.625   4.459 -29.578  1.00  0.00     0.165 HD
HETATM   24  C   UNL     1       0.579   5.820 -28.467  1.00  0.00     0.088 A 
HETATM   25  C   UNL     1       0.630   7.194 -28.485  1.00  0.00     0.019 A 
HETATM   26  C   UNL     1      -0.329   7.638 -29.427  1.00  0.00     0.027 A 
ENDBRANCH  20  21
ENDBRANCH  17  20
ENDBRANCH  13  16
ENDBRANCH   9  10
ENDBRANCH   3   9
TORSDOF 5
ENDMDL
MODEL 3
REMARK VINA RESULT:      -7.8      5.967      8.791
REMARK  5 active torsions:
REMARK  status: ('A' for Active; 'I' for Inactive)
REMARK    1  A    between atoms: C_3  and  O_4 
REMARK    2  A    between atoms: O_4  and  C_5 
REMARK    3  A    between atoms: C_8  and  N_9 
REMARK       I    between atoms: N_9  and  C_10 
REMARK    4  A    between atoms: C_10  and  C_11 
REMARK    5  A    between atoms: C_11  and  C_12 
ROOT
HETATM    1  C   UNL     1      -6.558  -1.424 -34.744  1.00  0.00     0.004 A 
HETATM    2  C   UNL     1      -7.111  -0.325 -34.087  1.00  0.00     0.037 A 
HETATM    3  C   UNL     1      -6.582   0.101 -32.866  1.00  0.00     0.077 A 
HETATM    4  C   UNL     1      -5.479  -0.554 -32.312  1.00  0.00     0.059 A 
HETATM    5  C   UNL     1      -4.919  -1.652 -32.974  1.00  0.00     0.047 A 
HETATM    6  C   UNL     1      -3.779  -2.320 -32.418  1.00  0.00     0.099 C 
HETATM    7  N   UNL     1      -2.854  -2.862 -31.973  1.00  0.00    -0.191 NA
HETATM    8  C   UNL     1      -5.463  -2.088 -34.188  1.00  0.00     0.023 A 
ENDROOT
BRANCH   3   9
HETATM    9  O   UNL     1      -7.141   1.231 -32.313  1.00  0.00    -0.311 OA
BRANCH   9  10
HETATM   10  C   UNL     1      -6.284   2.274 -32.066  1.00  0.00     0.076 A 
HETATM   11  C   UNL     1      -6.085   2.683 -30.750  1.00  0.00     0.039 A 
HETATM   12  C   UNL     1      -5.178   3.709 -30.468  1.00  0.00     0.032 A 
HETATM   13  C   UNL     1      -4.444   4.310 -31.494  1.00  0.00     0.034 A 
HETATM   14  C   UNL     1      -4.632   3.865 -32.812  1.00  0.00     0.032 A 
HETATM   15  C   UNL     1      -5.550   2.851 -33.100  1.00  0.00     0.039 A 
BRANCH  13  16
HETATM   16  N   UNL     1      -3.493   5.332 -31.288  1.00  0.00    -0.327 N 
HETATM   17  C   UNL     1      -2.109   5.214 -31.313  1.00  0.00     0.227 C 
HETATM   18  O   UNL     1      -1.485   4.164 -31.441  1.00  0.00    -0.273 OA
HETATM   19  H   UNL     1      -3.869   6.246 -31.065  1.00  0.00     0.169 HD
BRANCH  17  20
HETATM   20  C   UNL     1      -1.417   6.565 -31.094  1.00  0.00     0.159 C 
BRANCH  20  21
HETATM   21  C   UNL     1      -0.571   6.639 -29.857  1.00  0.00     0.017 A 
HETATM   22  N   UNL     1      -0.413   5.582 -28.987  1.00  0.00    -0.369 N 
HETATM   23  H   UNL     1      -0.821   4.662 -29.126  1.00  0.00     0.165 HD
HETATM   24  C   UNL     1       0.393   5.954 -27.944  1.00  0.00     0.088 A 
HETATM   25  C   UNL     1       0.758   7.266 -28.137  1.00  0.00     0.019 A 
HETATM   26  C   UNL     1       0.152   7.700 -29.340  1.00  0.00     0.027 A 
ENDBRANCH  20  21
ENDBRANCH  17  20
ENDBRANCH  13  16
ENDBRANCH   9  10
ENDBRANCH   3   9
TORSDOF 5
ENDMDL
MODEL 4
REMARK VINA RESULT:      -7.6      5.262      6.912
REMARK  5 active torsions:
REMARK  status: ('A' for Active; 'I' for Inactive)
REMARK    1  A    between atoms: C_3  and  O_4 
REMARK    2  A    between atoms: O_4  and  C_5 
REMARK    3  A    between atoms: C_8  and  N_9 
REMARK       I    between atoms: N_9  and  C_10 
REMARK    4  A    between atoms: C_10  and  C_11 
REMARK    5  A    between atoms: C_11  and  C_12 
ROOT
HETATM    1  C   UNL     1      -6.902  -0.707 -34.760  1.00  0.00     0.004 A 
HETATM    2  C   UNL     1      -5.904  -0.017 -34.071  1.00  0.00     0.037 A 
HETATM    3  C   UNL     1      -4.795  -0.703 -33.572  1.00  0.00     0.077 A 
HETATM    4  C   UNL     1      -4.665  -2.077 -33.787  1.00  0.00     0.059 A 
HETATM    5  C   UNL     1      -5.662  -2.769 -34.485  1.00  0.00     0.047 A 
HETATM    6  C   UNL     1      -5.527  -4.176 -34.720  1.00  0.00     0.099 C 
HETATM    7  N   UNL     1      -5.422  -5.316 -34.915  1.00  0.00    -0.191 NA
HETATM    8  C   UNL     1      -6.782  -2.081 -34.967  1.00  0.00     0.023 A 
ENDROOT
BRANCH   3   9
HETATM    9  O   UNL     1      -3.824   0.058 -32.960  1.00  0.00    -0.311 OA
BRANCH   9  10
HETATM   10  C   UNL     1      -4.267   1.029 -32.097  1.00  0.00     0.076 A 
HETATM   11  C   UNL     1      -5.099   0.661 -31.044  1.00  0.00     0.039 A 
HETATM   12  C   UNL     1      -5.523   1.623 -30.121  1.00  0.00     0.032 A 
HETATM   13  C   UNL     1      -5.092   2.948 -30.229  1.00  0.00     0.034 A 
HETATM   14  C   UNL     1      -4.227   3.297 -31.278  1.00  0.00     0.032 A 
HETATM   15  C   UNL     1      -3.815   2.341 -32.211  1.00  0.00     0.039 A 
BRANCH  13  16
HETATM   16  N   UNL     1      -5.454   3.970 -29.325  1.00  0.00    -0.327 N 
HETATM   17  C   UNL     1      -6.699   4.570 -29.185  1.00  0.00     0.227 C 
HETATM   18  O   UNL     1      -7.677   4.357 -29.897  1.00  0.00    -0.273 OA
HETATM   19  H   UNL     1      -4.709   4.322 -28.737  1.00  0.00     0.169 HD
BRANCH  17  20
HETATM   20  C   UNL     1      -6.709   5.606 -28.055  1.00  0.00     0.159 C 
BRANCH  20  21
HETATM   21  C   UNL     1      -5.367   6.195 -27.736  1.00  0.00     0.017 A 
HETATM   22  N   UNL     1      -4.618   5.818 -26.643  1.00  0.00    -0.369 N 
HETATM   23  H   UNL     1      -4.890   5.090 -25.987  1.00  0.00     0.165 HD
HETATM   24  C   UNL     1      -3.456   6.541 -26.603  1.00  0.00     0.088 A 
HETATM   25  C   UNL     1      -3.453   7.399 -27.677  1.00  0.00     0.019 A 
HETATM   26  C   UNL     1      -4.655   7.184 -28.393  1.00  0.00     0.027 A 
ENDBRANCH  20  21
ENDBRANCH  17  20
ENDBRANCH  13  16
ENDBRANCH   9  10
ENDBRANCH   3   9
TORSDOF 5
ENDMDL
MODEL 5
REMARK VINA RESULT:      -7.5      6.310      8.931
REMARK  5 active torsions:
REMARK  status: ('A' for Active; 'I' for Inactive)
REMARK    1  A    between atoms: C_3  and  O_4 
REMARK    2  A    between atoms: O_4  and  C_5 
REMARK    3  A    between atoms: C_8  and  N_9 
REMARK       I    between atoms: N_9  and  C_10 
REMARK    4  A    between atoms: C_10  and  C_11 
REMARK    5  A    between atoms: C_11  and  C_12 
ROOT
HETATM    1  C   UNL     1       0.626   6.897 -30.956  1.00  0.00     0.004 A 
HETATM    2  C   UNL     1      -0.381   6.612 -31.878  1.00  0.00     0.037 A 
HETATM    3  C   UNL     1      -1.704   6.478 -31.453  1.00  0.00     0.077 A 
HETATM    4  C   UNL     1      -2.030   6.659 -30.106  1.00  0.00     0.059 A 
HETATM    5  C   UNL     1      -1.022   6.952 -29.181  1.00  0.00     0.047 A 
HETATM    6  C   UNL     1      -1.352   7.152 -27.800  1.00  0.00     0.099 C 
HETATM    7  N   UNL     1      -1.614   7.317 -26.682  1.00  0.00    -0.191 NA
HETATM    8  C   UNL     1       0.306   7.067 -29.608  1.00  0.00     0.023 A 
ENDROOT
BRANCH   3   9
HETATM    9  O   UNL     1      -2.648   6.260 -32.432  1.00  0.00    -0.311 OA
BRANCH   9  10
HETATM   10  C   UNL     1      -3.346   5.080 -32.351  1.00  0.00     0.076 A 
HETATM   11  C   UNL     1      -4.732   5.127 -32.234  1.00  0.00     0.039 A 
HETATM   12  C   UNL     1      -5.470   3.939 -32.201  1.00  0.00     0.032 A 
HETATM   13  C   UNL     1      -4.829   2.703 -32.316  1.00  0.00     0.034 A 
HETATM   14  C   UNL     1      -3.434   2.673 -32.465  1.00  0.00     0.032 A 
HETATM   15  C   UNL     1      -2.692   3.858 -32.482  1.00  0.00     0.039 A 
BRANCH  13  16
HETATM   16  N   UNL     1      -5.504   1.463 -32.316  1.00  0.00    -0.327 N 
HETATM   17  C   UNL     1      -6.191   0.878 -33.373  1.00  0.00     0.227 C 
HETATM   18  O   UNL     1      -6.392   1.397 -34.468  1.00  0.00    -0.273 OA
HETATM   19  H   UNL     1      -5.511   0.964 -31.435  1.00  0.00     0.169 HD
BRANCH  17  20
HETATM   20  C   UNL     1      -6.748  -0.500 -32.997  1.00  0.00     0.159 C 
BRANCH  20  21
HETATM   21  C   UNL     1      -6.137  -1.646 -33.748  1.00  0.00     0.017 A 
HETATM   22  N   UNL     1      -4.782  -1.894 -33.775  1.00  0.00    -0.369 N 
HETATM   23  H   UNL     1      -4.092  -1.350 -33.264  1.00  0.00     0.165 HD
HETATM   24  C   UNL     1      -4.524  -2.988 -34.556  1.00  0.00     0.088 A 
HETATM   25  C   UNL     1      -5.723  -3.453 -35.045  1.00  0.00     0.019 A 
HETATM   26  C   UNL     1      -6.740  -2.609 -34.538  1.00  0.00     0.027 A 
ENDBRANCH  20  21
ENDBRANCH  17  20
ENDBRANCH  13  16
ENDBRANCH   9  10
ENDBRANCH   3   9
TORSDOF 5
ENDMDL
MODEL 6
REMARK VINA RESULT:      -7.5      5.676      8.728
REMARK  5 active torsions:
REMARK  status: ('A' for Active; 'I' for Inactive)
REMARK    1  A    between atoms: C_3  and  O_4 
REMARK    2  A    between atoms: O_4  and  C_5 
REMARK    3  A    between atoms: C_8  and  N_9 
REMARK       I    between atoms: N_9  and  C_10 
REMARK    4  A    between atoms: C_10  and  C_11 
REMARK    5  A    between atoms: C_11  and  C_12 
ROOT
HETATM    1  C   UNL     1      -7.337  -0.845 -35.030  1.00  0.00     0.004 A 
HETATM    2  C   UNL     1      -7.316   0.048 -33.958  1.00  0.00     0.037 A 
HETATM    3  C   UNL     1      -6.402  -0.128 -32.917  1.00  0.00     0.077 A 
HETATM    4  C   UNL     1      -5.483  -1.180 -32.961  1.00  0.00     0.059 A 
HETATM    5  C   UNL     1      -5.498  -2.071 -34.040  1.00  0.00     0.047 A 
HETATM    6  C   UNL     1      -4.550  -3.145 -34.096  1.00  0.00     0.099 C 
HETATM    7  N   UNL     1      -3.782  -4.014 -34.148  1.00  0.00    -0.191 NA
HETATM    8  C   UNL     1      -6.429  -1.904 -35.071  1.00  0.00     0.023 A 
ENDROOT
BRANCH   3   9
HETATM    9  O   UNL     1      -6.401   0.830 -31.928  1.00  0.00    -0.311 OA
BRANCH   9  10
HETATM   10  C   UNL     1      -5.404   1.772 -31.996  1.00  0.00     0.076 A 
HETATM   11  C   UNL     1      -5.623   2.928 -32.740  1.00  0.00     0.039 A 
HETATM   12  C   UNL     1      -4.644   3.925 -32.783  1.00  0.00     0.032 A 
HETATM   13  C   UNL     1      -3.456   3.786 -32.059  1.00  0.00     0.034 A 
HETATM   14  C   UNL     1      -3.264   2.629 -31.288  1.00  0.00     0.032 A 
HETATM   15  C   UNL     1      -4.234   1.623 -31.256  1.00  0.00     0.039 A 
BRANCH  13  16
HETATM   16  N   UNL     1      -2.433   4.757 -32.032  1.00  0.00    -0.327 N 
HETATM   17  C   UNL     1      -1.671   5.210 -33.101  1.00  0.00     0.227 C 
HETATM   18  O   UNL     1      -1.714   4.767 -34.246  1.00  0.00    -0.273 OA
HETATM   19  H   UNL     1      -2.212   5.140 -31.120  1.00  0.00     0.169 HD
BRANCH  17  20
HETATM   20  C   UNL     1      -0.691   6.311 -32.678  1.00  0.00     0.159 C 
BRANCH  20  21
HETATM   21  C   UNL     1      -0.207   6.205 -31.262  1.00  0.00     0.017 A 
HETATM   22  N   UNL     1       0.450   5.099 -30.770  1.00  0.00    -0.369 N 
HETATM   23  H   UNL     1       0.693   4.284 -31.327  1.00  0.00     0.165 HD
HETATM   24  C   UNL     1       0.746   5.284 -29.446  1.00  0.00     0.088 A 
HETATM   25  C   UNL     1       0.274   6.520 -29.074  1.00  0.00     0.019 A 
HETATM   26  C   UNL     1      -0.328   7.103 -30.215  1.00  0.00     0.027 A 
ENDBRANCH  20  21
ENDBRANCH  17  20
ENDBRANCH  13  16
ENDBRANCH   9  10
ENDBRANCH   3   9
TORSDOF 5
ENDMDL
MODEL 7
REMARK VINA RESULT:      -7.4      5.199      6.681
REMARK  5 active torsions:
REMARK  status: ('A' for Active; 'I' for Inactive)
REMARK    1  A    between atoms: C_3  and  O_4 
REMARK    2  A    between atoms: O_4  and  C_5 
REMARK    3  A    between atoms: C_8  and  N_9 
REMARK       I    between atoms: N_9  and  C_10 
REMARK    4  A    between atoms: C_10  and  C_11 
REMARK    5  A    between atoms: C_11  and  C_12 
ROOT
HETATM    1  C   UNL     1      -1.779   5.466 -34.553  1.00  0.00     0.004 A 
HETATM    2  C   UNL     1      -2.011   4.377 -33.712  1.00  0.00     0.037 A 
HETATM    3  C   UNL     1      -2.210   4.577 -32.345  1.00  0.00     0.077 A 
HETATM    4  C   UNL     1      -2.209   5.871 -31.817  1.00  0.00     0.059 A 
HETATM    5  C   UNL     1      -1.984   6.964 -32.661  1.00  0.00     0.047 A 
HETATM    6  C   UNL     1      -1.995   8.295 -32.128  1.00  0.00     0.099 C 
HETATM    7  N   UNL     1      -2.005   9.375 -31.702  1.00  0.00    -0.191 NA
HETATM    8  C   UNL     1      -1.765   6.759 -34.028  1.00  0.00     0.023 A 
ENDROOT
BRANCH   3   9
HETATM    9  O   UNL     1      -2.497   3.459 -31.593  1.00  0.00    -0.311 OA
BRANCH   9  10
HETATM   10  C   UNL     1      -3.738   2.902 -31.781  1.00  0.00     0.076 A 
HETATM   11  C   UNL     1      -3.823   1.600 -32.264  1.00  0.00     0.039 A 
HETATM   12  C   UNL     1      -5.074   0.993 -32.416  1.00  0.00     0.032 A 
HETATM   13  C   UNL     1      -6.240   1.673 -32.056  1.00  0.00     0.034 A 
HETATM   14  C   UNL     1      -6.136   2.973 -31.540  1.00  0.00     0.032 A 
HETATM   15  C   UNL     1      -4.889   3.589 -31.403  1.00  0.00     0.039 A 
BRANCH  13  16
HETATM   16  N   UNL     1      -7.536   1.120 -32.156  1.00  0.00    -0.327 N 
HETATM   17  C   UNL     1      -8.325   1.020 -33.295  1.00  0.00     0.227 C 
HETATM   18  O   UNL     1      -8.045   1.480 -34.399  1.00  0.00    -0.273 OA
HETATM   19  H   UNL     1      -7.942   0.790 -31.288  1.00  0.00     0.169 HD
BRANCH  17  20
HETATM   20  C   UNL     1      -9.653   0.309 -33.008  1.00  0.00     0.159 C 
BRANCH  20  21
HETATM   21  C   UNL     1     -10.873   1.152 -33.236  1.00  0.00     0.017 A 
HETATM   22  N   UNL     1     -11.073   2.371 -32.627  1.00  0.00    -0.369 N 
HETATM   23  H   UNL     1     -10.402   2.817 -32.006  1.00  0.00     0.165 HD
HETATM   24  C   UNL     1     -12.280   2.891 -33.010  1.00  0.00     0.088 A 
HETATM   25  C   UNL     1     -12.872   1.999 -33.873  1.00  0.00     0.019 A 
HETATM   26  C   UNL     1     -11.988   0.902 -34.017  1.00  0.00     0.027 A 
ENDBRANCH  20  21
ENDBRANCH  17  20
ENDBRANCH  13  16
ENDBRANCH   9  10
ENDBRANCH   3   9
TORSDOF 5
ENDMDL
MODEL 8
REMARK VINA RESULT:      -7.3      7.174      9.761
REMARK  5 active torsions:
REMARK  status: ('A' for Active; 'I' for Inactive)
REMARK    1  A    between atoms: C_3  and  O_4 
REMARK    2  A    between atoms: O_4  and  C_5 
REMARK    3  A    between atoms: C_8  and  N_9 
REMARK       I    between atoms: N_9  and  C_10 
REMARK    4  A    between atoms: C_10  and  C_11 
REMARK    5  A    between atoms: C_11  and  C_12 
ROOT
HETATM    1  C   UNL     1       0.751   5.593 -28.742  1.00  0.00     0.004 A 
HETATM    2  C   UNL     1       0.118   5.576 -29.985  1.00  0.00     0.037 A 
HETATM    3  C   UNL     1      -0.601   6.691 -30.421  1.00  0.00     0.077 A 
HETATM    4  C   UNL     1      -0.664   7.839 -29.628  1.00  0.00     0.059 A 
HETATM    5  C   UNL     1      -0.024   7.860 -28.384  1.00  0.00     0.047 A 
HETATM    6  C   UNL     1      -0.073   9.040 -27.571  1.00  0.00     0.099 C 
HETATM    7  N   UNL     1      -0.109   9.993 -26.910  1.00  0.00    -0.191 NA
HETATM    8  C   UNL     1       0.680   6.733 -27.941  1.00  0.00     0.023 A 
ENDROOT
BRANCH   3   9
HETATM    9  O   UNL     1      -1.142   6.620 -31.686  1.00  0.00    -0.311 OA
BRANCH   9  10
HETATM   10  C   UNL     1      -2.080   5.639 -31.891  1.00  0.00     0.076 A 
HETATM   11  C   UNL     1      -1.852   4.688 -32.882  1.00  0.00     0.039 A 
HETATM   12  C   UNL     1      -2.768   3.650 -33.076  1.00  0.00     0.032 A 
HETATM   13  C   UNL     1      -3.898   3.539 -32.261  1.00  0.00     0.034 A 
HETATM   14  C   UNL     1      -4.098   4.486 -31.246  1.00  0.00     0.032 A 
HETATM   15  C   UNL     1      -3.193   5.536 -31.060  1.00  0.00     0.039 A 
BRANCH  13  16
HETATM   16  N   UNL     1      -4.854   2.506 -32.378  1.00  0.00    -0.327 N 
HETATM   17  C   UNL     1      -4.772   1.219 -31.861  1.00  0.00     0.227 C 
HETATM   18  O   UNL     1      -3.800   0.744 -31.281  1.00  0.00    -0.273 OA
HETATM   19  H   UNL     1      -5.675   2.726 -32.929  1.00  0.00     0.169 HD
BRANCH  17  20
HETATM   20  C   UNL     1      -6.037   0.405 -32.156  1.00  0.00     0.159 C 
BRANCH  20  21
HETATM   21  C   UNL     1      -5.829  -0.758 -33.082  1.00  0.00     0.017 A 
HETATM   22  N   UNL     1      -4.634  -1.435 -33.185  1.00  0.00    -0.369 N 
HETATM   23  H   UNL     1      -3.812  -1.232 -32.623  1.00  0.00     0.165 HD
HETATM   24  C   UNL     1      -4.741  -2.427 -34.123  1.00  0.00     0.088 A 
HETATM   25  C   UNL     1      -6.016  -2.391 -34.636  1.00  0.00     0.019 A 
HETATM   26  C   UNL     1      -6.704  -1.340 -33.982  1.00  0.00     0.027 A 
ENDBRANCH  20  21
ENDBRANCH  17  20
ENDBRANCH  13  16
ENDBRANCH   9  10
ENDBRANCH   3   9
TORSDOF 5
ENDMDL
MODEL 9
REMARK VINA RESULT:      -7.3     14.349     17.768
REMARK  5 active torsions:
REMARK  status: ('A' for Active; 'I' for Inactive)
REMARK    1  A    between atoms: C_3  and  O_4 
REMARK    2  A    between atoms: O_4  and  C_5 
REMARK    3  A    between atoms: C_8  and  N_9 
REMARK       I    between atoms: N_9  and  C_10 
REMARK    4  A    between atoms: C_10  and  C_11 
REMARK    5  A    between atoms: C_11  and  C_12 
ROOT
HETATM    1  C   UNL     1     -10.781 -12.692 -40.574  1.00  0.00     0.004 A 
HETATM    2  C   UNL     1      -9.805 -12.103 -39.771  1.00  0.00     0.037 A 
HETATM    3  C   UNL     1      -8.929 -12.901 -39.032  1.00  0.00     0.077 A 
HETATM    4  C   UNL     1      -9.008 -14.293 -39.116  1.00  0.00     0.059 A 
HETATM    5  C   UNL     1      -9.983 -14.886 -39.927  1.00  0.00     0.047 A 
HETATM    6  C   UNL     1     -10.060 -16.314 -40.029  1.00  0.00     0.099 C 
HETATM    7  N   UNL     1     -10.125 -17.469 -40.117  1.00  0.00    -0.191 NA
HETATM    8  C   UNL     1     -10.871 -14.083 -40.652  1.00  0.00     0.023 A 
ENDROOT
BRANCH   3   9
HETATM    9  O   UNL     1      -7.953 -12.246 -38.314  1.00  0.00    -0.311 OA
BRANCH   9  10
HETATM   10  C   UNL     1      -6.654 -12.531 -38.656  1.00  0.00     0.076 A 
HETATM   11  C   UNL     1      -6.193 -12.155 -39.914  1.00  0.00     0.039 A 
HETATM   12  C   UNL     1      -4.860 -12.389 -40.267  1.00  0.00     0.032 A 
HETATM   13  C   UNL     1      -3.976 -12.970 -39.353  1.00  0.00     0.034 A 
HETATM   14  C   UNL     1      -4.448 -13.313 -38.077  1.00  0.00     0.032 A 
HETATM   15  C   UNL     1      -5.784 -13.096 -37.727  1.00  0.00     0.039 A 
BRANCH  13  16
HETATM   16  N   UNL     1      -2.612 -13.214 -39.624  1.00  0.00    -0.327 N 
HETATM   17  C   UNL     1      -2.075 -14.249 -40.380  1.00  0.00     0.227 C 
HETATM   18  O   UNL     1      -2.711 -15.178 -40.870  1.00  0.00    -0.273 OA
HETATM   19  H   UNL     1      -1.955 -12.578 -39.190  1.00  0.00     0.169 HD
BRANCH  17  20
HETATM   20  C   UNL     1      -0.549 -14.145 -40.486  1.00  0.00     0.159 C 
BRANCH  20  21
HETATM   21  C   UNL     1       0.202 -14.824 -39.378  1.00  0.00     0.017 A 
HETATM   22  N   UNL     1      -0.365 -15.770 -38.552  1.00  0.00    -0.369 N 
HETATM   23  H   UNL     1      -1.318 -16.112 -38.645  1.00  0.00     0.165 HD
HETATM   24  C   UNL     1       0.553 -16.191 -37.628  1.00  0.00     0.088 A 
HETATM   25  C   UNL     1       1.726 -15.509 -37.854  1.00  0.00     0.019 A 
HETATM   26  C   UNL     1       1.507 -14.647 -38.955  1.00  0.00     0.027 A 
ENDBRANCH  20  21
ENDBRANCH  17  20
ENDBRANCH  13  16
ENDBRANCH   9  10
ENDBRANCH   3   9
TORSDOF 5
ENDMDL
MODEL 10
REMARK VINA RESULT:      -7.2      7.386      9.364
REMARK  5 active torsions:
REMARK  status: ('A' for Active; 'I' for Inactive)
REMARK    1  A    between atoms: C_3  and  O_4 
REMARK    2  A    between atoms: O_4  and  C_5 
REMARK    3  A    between atoms: C_8  and  N_9 
REMARK       I    between atoms: N_9  and  C_10 
REMARK    4  A    between atoms: C_10  and  C_11 
REMARK    5  A    between atoms: C_11  and  C_12 
ROOT
HETATM    1  C   UNL     1       0.850   5.217 -28.950  1.00  0.00     0.004 A 
HETATM    2  C   UNL     1       0.420   5.423 -30.261  1.00  0.00     0.037 A 
HETATM    3  C   UNL     1       0.036   6.699 -30.679  1.00  0.00     0.077 A 
HETATM    4  C   UNL     1       0.110   7.779 -29.797  1.00  0.00     0.059 A 
HETATM    5  C   UNL     1       0.548   7.575 -28.483  1.00  0.00     0.047 A 
HETATM    6  C   UNL     1       0.639   8.681 -27.577  1.00  0.00     0.099 C 
HETATM    7  N   UNL     1       0.717   9.574 -26.840  1.00  0.00    -0.191 NA
HETATM    8  C   UNL     1       0.915   6.291 -28.061  1.00  0.00     0.023 A 
ENDROOT
BRANCH   3   9
HETATM    9  O   UNL     1      -0.316   6.834 -32.004  1.00  0.00    -0.311 OA
BRANCH   9  10
HETATM   10  C   UNL     1      -1.437   6.152 -32.408  1.00  0.00     0.076 A 
HETATM   11  C   UNL     1      -2.649   6.422 -31.780  1.00  0.00     0.039 A 
HETATM   12  C   UNL     1      -3.814   5.778 -32.207  1.00  0.00     0.032 A 
HETATM   13  C   UNL     1      -3.778   4.885 -33.282  1.00  0.00     0.034 A 
HETATM   14  C   UNL     1      -2.554   4.647 -33.925  1.00  0.00     0.032 A 
HETATM   15  C   UNL     1      -1.384   5.277 -33.490  1.00  0.00     0.039 A 
BRANCH  13  16
HETATM   16  N   UNL     1      -4.914   4.215 -33.787  1.00  0.00    -0.327 N 
HETATM   17  C   UNL     1      -5.501   3.058 -33.291  1.00  0.00     0.227 C 
HETATM   18  O   UNL     1      -5.066   2.378 -32.366  1.00  0.00    -0.273 OA
HETATM   19  H   UNL     1      -5.323   4.611 -34.625  1.00  0.00     0.169 HD
BRANCH  17  20
HETATM   20  C   UNL     1      -6.753   2.668 -34.085  1.00  0.00     0.159 C 
BRANCH  20  21
HETATM   21  C   UNL     1      -6.983   1.190 -34.202  1.00  0.00     0.017 A 
HETATM   22  N   UNL     1      -7.216   0.374 -33.117  1.00  0.00    -0.369 N 
HETATM   23  H   UNL     1      -7.289   0.705 -32.158  1.00  0.00     0.165 HD
HETATM   24  C   UNL     1      -7.365  -0.922 -33.532  1.00  0.00     0.088 A 
HETATM   25  C   UNL     1      -7.223  -0.949 -34.899  1.00  0.00     0.019 A 
HETATM   26  C   UNL     1      -6.981   0.380 -35.324  1.00  0.00     0.027 A 
ENDBRANCH  20  21
ENDBRANCH  17  20
ENDBRANCH  13  16
ENDBRANCH   9  10
ENDBRANCH   3   9
TORSDOF 5
ENDMDL
