MODEL 1
REMARK VINA RESULT:      -8.4      0.000      0.000
REMARK  8 active torsions:
REMARK  status: ('A' for Active; 'I' for Inactive)
REMARK    1  A    between atoms: O_2  and  C_3 
REMARK    2  A    between atoms: C_4  and  O_5 
REMARK    3  A    between atoms: N_12  and  N_13 
REMARK    4  A    between atoms: N_13  and  C_14 
REMARK    5  A    between atoms: C_14  and  N_15 
REMARK    6  A    between atoms: N_15  and  C_16 
REMARK    7  A    between atoms: C_16  and  C_17 
REMARK    8  A    between atoms: C_17  and  C_18 
ROOT
HETATM    1  C   UNL     1      -4.565  -2.575 -33.727  1.00  0.00     0.102 A 
HETATM    2  C   UNL     1      -5.728  -2.528 -34.527  1.00  0.00     0.103 A 
HETATM    3  C   UNL     1      -6.744  -1.612 -34.224  1.00  0.00     0.070 A 
HETATM    4  C   UNL     1      -6.601  -0.753 -33.134  1.00  0.00     0.053 A 
HETATM    5  C   UNL     1      -5.446  -0.785 -32.361  1.00  0.00     0.063 A 
HETATM    6  C   UNL     1      -5.322   0.153 -31.227  1.00  0.00     0.281 C 
HETATM    7  O   UNL     1      -4.249   0.270 -30.635  1.00  0.00    -0.265 OA
HETATM    8  N   UNL     1      -6.471   0.893 -30.926  1.00  0.00    -0.190 N 
HETATM    9  C   UNL     1      -7.612   0.967 -31.726  1.00  0.00     0.201 C 
HETATM   10  S   UNL     1      -8.942   1.963 -31.485  1.00  0.00    -0.039 SA
HETATM   11  N   UNL     1      -7.630   0.142 -32.823  1.00  0.00    -0.331 N 
HETATM   12  C   UNL     1      -4.422  -1.690 -32.654  1.00  0.00     0.059 A 
HETATM   13  H   UNL     1      -8.469   0.170 -33.393  1.00  0.00     0.168 HD
ENDROOT
BRANCH   8  14
HETATM   14  N   UNL     1      -6.410   1.680 -29.743  1.00  0.00    -0.264 N 
HETATM   15  H   UNL     1      -7.162   1.479 -29.093  1.00  0.00     0.190 HD
BRANCH  14  16
HETATM   16  C   UNL     1      -6.017   2.997 -29.812  1.00  0.00     0.187 C 
HETATM   17  S   UNL     1      -6.936   4.345 -29.441  1.00  0.00    -0.040 SA
BRANCH  16  18
HETATM   18  N   UNL     1      -4.746   3.208 -30.281  1.00  0.00    -0.366 N 
HETATM   19  H   UNL     1      -4.153   3.584 -29.547  1.00  0.00     0.161 HD
BRANCH  18  20
HETATM   20  C   UNL     1      -4.426   3.669 -31.629  1.00  0.00     0.126 C 
BRANCH  20  21
HETATM   21  C   UNL     1      -3.007   3.273 -32.039  1.00  0.00     0.058 C 
BRANCH  21  22
HETATM   22  C   UNL     1      -2.244   4.440 -32.610  1.00  0.00    -0.057 A 
HETATM   23  C   UNL     1      -1.552   5.312 -31.757  1.00  0.00     0.007 A 
HETATM   24  C   UNL     1      -0.864   6.411 -32.272  1.00  0.00     0.001 A 
HETATM   25  C   UNL     1      -0.865   6.653 -33.643  1.00  0.00     0.000 A 
HETATM   26  C   UNL     1      -1.553   5.796 -34.500  1.00  0.00     0.001 A 
HETATM   27  C   UNL     1      -2.242   4.694 -33.987  1.00  0.00     0.007 A 
ENDBRANCH  21  22
ENDBRANCH  20  21
ENDBRANCH  18  20
ENDBRANCH  16  18
ENDBRANCH  14  16
ENDBRANCH   8  14
BRANCH   1  28
HETATM   28  O   UNL     1      -3.620  -3.505 -34.087  1.00  0.00    -0.353 OA
HETATM   29  C   UNL     1      -3.390  -4.579 -33.185  1.00  0.00     0.210 C 
ENDBRANCH   1  28
BRANCH   2  30
HETATM   30  O   UNL     1      -5.777  -3.422 -35.568  1.00  0.00    -0.353 OA
HETATM   31  C   UNL     1      -6.591  -4.576 -35.418  1.00  0.00     0.210 C 
ENDBRANCH   2  30
TORSDOF 8
ENDMDL
MODEL 2
REMARK VINA RESULT:      -8.0      1.840      2.362
REMARK  8 active torsions:
REMARK  status: ('A' for Active; 'I' for Inactive)
REMARK    1  A    between atoms: O_2  and  C_3 
REMARK    2  A    between atoms: C_4  and  O_5 
REMARK    3  A    between atoms: N_12  and  N_13 
REMARK    4  A    between atoms: N_13  and  C_14 
REMARK    5  A    between atoms: C_14  and  N_15 
REMARK    6  A    between atoms: N_15  and  C_16 
REMARK    7  A    between atoms: C_16  and  C_17 
REMARK    8  A    between atoms: C_17  and  C_18 
ROOT
HETATM    1  C   UNL     1      -5.001  -1.833 -33.330  1.00  0.00     0.102 A 
HETATM    2  C   UNL     1      -5.848  -2.114 -34.424  1.00  0.00     0.103 A 
HETATM    3  C   UNL     1      -7.058  -1.423 -34.563  1.00  0.00     0.070 A 
HETATM    4  C   UNL     1      -7.420  -0.460 -33.619  1.00  0.00     0.053 A 
HETATM    5  C   UNL     1      -6.575  -0.169 -32.554  1.00  0.00     0.063 A 
HETATM    6  C   UNL     1      -6.981   0.869 -31.585  1.00  0.00     0.281 C 
HETATM    7  O   UNL     1      -6.184   1.271 -30.739  1.00  0.00    -0.265 OA
HETATM    8  N   UNL     1      -8.283   1.361 -31.737  1.00  0.00    -0.190 N 
HETATM    9  C   UNL     1      -9.115   1.111 -32.830  1.00  0.00     0.201 C 
HETATM   10  S   UNL     1     -10.614   1.806 -33.128  1.00  0.00    -0.039 SA
HETATM   11  N   UNL     1      -8.641   0.209 -33.750  1.00  0.00    -0.331 N 
HETATM   12  C   UNL     1      -5.362  -0.848 -32.405  1.00  0.00     0.059 A 
HETATM   13  H   UNL     1      -9.253   0.001 -34.532  1.00  0.00     0.168 HD
ENDROOT
BRANCH   8  14
HETATM   14  N   UNL     1      -8.735   2.243 -30.718  1.00  0.00    -0.264 N 
HETATM   15  H   UNL     1      -9.585   1.923 -30.265  1.00  0.00     0.190 HD
BRANCH  14  16
HETATM   16  C   UNL     1      -8.625   3.604 -30.886  1.00  0.00     0.187 C 
HETATM   17  S   UNL     1      -9.793   4.759 -30.567  1.00  0.00    -0.040 SA
BRANCH  16  18
HETATM   18  N   UNL     1      -7.436   4.036 -31.415  1.00  0.00    -0.366 N 
HETATM   19  H   UNL     1      -6.838   4.415 -30.687  1.00  0.00     0.161 HD
BRANCH  18  20
HETATM   20  C   UNL     1      -7.294   4.672 -32.722  1.00  0.00     0.126 C 
BRANCH  20  21
HETATM   21  C   UNL     1      -6.526   3.783 -33.701  1.00  0.00     0.058 C 
BRANCH  21  22
HETATM   22  C   UNL     1      -5.054   4.108 -33.715  1.00  0.00    -0.057 A 
HETATM   23  C   UNL     1      -4.541   5.002 -34.667  1.00  0.00     0.007 A 
HETATM   24  C   UNL     1      -3.177   5.290 -34.707  1.00  0.00     0.001 A 
HETATM   25  C   UNL     1      -2.310   4.683 -33.801  1.00  0.00     0.000 A 
HETATM   26  C   UNL     1      -2.808   3.790 -32.854  1.00  0.00     0.001 A 
HETATM   27  C   UNL     1      -4.174   3.501 -32.811  1.00  0.00     0.007 A 
ENDBRANCH  21  22
ENDBRANCH  20  21
ENDBRANCH  18  20
ENDBRANCH  16  18
ENDBRANCH  14  16
ENDBRANCH   8  14
BRANCH   1  28
HETATM   28  O   UNL     1      -3.837  -2.559 -33.263  1.00  0.00    -0.353 OA
HETATM   29  C   UNL     1      -3.168  -2.599 -32.009  1.00  0.00     0.210 C 
ENDBRANCH   1  28
BRANCH   2  30
HETATM   30  O   UNL     1      -5.408  -3.085 -35.290  1.00  0.00    -0.353 OA
HETATM   31  C   UNL     1      -6.136  -4.303 -35.352  1.00  0.00     0.210 C 
ENDBRANCH   2  30
TORSDOF 8
ENDMDL
MODEL 3
REMARK VINA RESULT:      -7.9      1.991      3.122
REMARK  8 active torsions:
REMARK  status: ('A' for Active; 'I' for Inactive)
REMARK    1  A    between atoms: O_2  and  C_3 
REMARK    2  A    between atoms: C_4  and  O_5 
REMARK    3  A    between atoms: N_12  and  N_13 
REMARK    4  A    between atoms: N_13  and  C_14 
REMARK    5  A    between atoms: C_14  and  N_15 
REMARK    6  A    between atoms: N_15  and  C_16 
REMARK    7  A    between atoms: C_16  and  C_17 
REMARK    8  A    between atoms: C_17  and  C_18 
ROOT
HETATM    1  C   UNL     1      -5.806  -2.512 -34.575  1.00  0.00     0.102 A 
HETATM    2  C   UNL     1      -4.628  -2.423 -33.802  1.00  0.00     0.103 A 
HETATM    3  C   UNL     1      -4.528  -1.457 -32.794  1.00  0.00     0.070 A 
HETATM    4  C   UNL     1      -5.593  -0.586 -32.559  1.00  0.00     0.053 A 
HETATM    5  C   UNL     1      -6.761  -0.688 -33.305  1.00  0.00     0.063 A 
HETATM    6  C   UNL     1      -7.875   0.238 -33.016  1.00  0.00     0.281 C 
HETATM    7  O   UNL     1      -8.977   0.061 -33.534  1.00  0.00    -0.265 OA
HETATM    8  N   UNL     1      -7.588   1.264 -32.108  1.00  0.00    -0.190 N 
HETATM    9  C   UNL     1      -6.438   1.341 -31.320  1.00  0.00     0.201 C 
HETATM   10  S   UNL     1      -6.128   2.462 -30.109  1.00  0.00    -0.039 SA
HETATM   11  N   UNL     1      -5.476   0.393 -31.567  1.00  0.00    -0.331 N 
HETATM   12  C   UNL     1      -6.877  -1.651 -34.312  1.00  0.00     0.059 A 
HETATM   13  H   UNL     1      -4.627   0.462 -31.017  1.00  0.00     0.168 HD
ENDROOT
BRANCH   8  14
HETATM   14  N   UNL     1      -8.601   2.247 -31.944  1.00  0.00    -0.264 N 
HETATM   15  H   UNL     1      -9.488   1.858 -31.644  1.00  0.00     0.190 HD
BRANCH  14  16
HETATM   16  C   UNL     1      -8.680   3.307 -32.819  1.00  0.00     0.187 C 
HETATM   17  S   UNL     1      -9.693   3.449 -34.143  1.00  0.00    -0.040 SA
BRANCH  16  18
HETATM   18  N   UNL     1      -7.793   4.326 -32.589  1.00  0.00    -0.366 N 
HETATM   19  H   UNL     1      -8.179   4.994 -31.929  1.00  0.00     0.161 HD
BRANCH  18  20
HETATM   20  C   UNL     1      -6.911   4.900 -33.602  1.00  0.00     0.126 C 
BRANCH  20  21
HETATM   21  C   UNL     1      -5.933   3.862 -34.153  1.00  0.00     0.058 C 
BRANCH  21  22
HETATM   22  C   UNL     1      -4.500   4.287 -33.965  1.00  0.00    -0.057 A 
HETATM   23  C   UNL     1      -3.881   5.110 -34.918  1.00  0.00     0.007 A 
HETATM   24  C   UNL     1      -2.547   5.489 -34.769  1.00  0.00     0.001 A 
HETATM   25  C   UNL     1      -1.815   5.045 -33.670  1.00  0.00     0.000 A 
HETATM   26  C   UNL     1      -2.418   4.222 -32.720  1.00  0.00     0.001 A 
HETATM   27  C   UNL     1      -3.755   3.843 -32.866  1.00  0.00     0.007 A 
ENDBRANCH  21  22
ENDBRANCH  20  21
ENDBRANCH  18  20
ENDBRANCH  16  18
ENDBRANCH  14  16
ENDBRANCH   8  14
BRANCH   1  28
HETATM   28  O   UNL     1      -5.822  -3.482 -35.547  1.00  0.00    -0.353 OA
HETATM   29  C   UNL     1      -6.677  -4.598 -35.337  1.00  0.00     0.210 C 
ENDBRANCH   1  28
BRANCH   2  30
HETATM   30  O   UNL     1      -3.634  -3.317 -34.118  1.00  0.00    -0.353 OA
HETATM   31  C   UNL     1      -3.430  -4.421 -33.249  1.00  0.00     0.210 C 
ENDBRANCH   2  30
TORSDOF 8
ENDMDL
MODEL 4
REMARK VINA RESULT:      -7.6      3.560      6.708
REMARK  8 active torsions:
REMARK  status: ('A' for Active; 'I' for Inactive)
REMARK    1  A    between atoms: O_2  and  C_3 
REMARK    2  A    between atoms: C_4  and  O_5 
REMARK    3  A    between atoms: N_12  and  N_13 
REMARK    4  A    between atoms: N_13  and  C_14 
REMARK    5  A    between atoms: C_14  and  N_15 
REMARK    6  A    between atoms: N_15  and  C_16 
REMARK    7  A    between atoms: C_16  and  C_17 
REMARK    8  A    between atoms: C_17  and  C_18 
ROOT
HETATM    1  C   UNL     1      -5.443  -2.457 -34.606  1.00  0.00     0.102 A 
HETATM    2  C   UNL     1      -4.429  -2.433 -33.624  1.00  0.00     0.103 A 
HETATM    3  C   UNL     1      -4.212  -1.270 -32.875  1.00  0.00     0.070 A 
HETATM    4  C   UNL     1      -4.999  -0.140 -33.105  1.00  0.00     0.053 A 
HETATM    5  C   UNL     1      -6.012  -0.172 -34.056  1.00  0.00     0.063 A 
HETATM    6  C   UNL     1      -6.837   1.036 -34.259  1.00  0.00     0.281 C 
HETATM    7  O   UNL     1      -7.845   0.986 -34.962  1.00  0.00    -0.265 OA
HETATM    8  N   UNL     1      -6.411   2.181 -33.575  1.00  0.00    -0.190 N 
HETATM    9  C   UNL     1      -5.430   2.206 -32.583  1.00  0.00     0.201 C 
HETATM   10  S   UNL     1      -5.002   3.520 -31.630  1.00  0.00    -0.039 SA
HETATM   11  N   UNL     1      -4.761   1.026 -32.370  1.00  0.00    -0.331 N 
HETATM   12  C   UNL     1      -6.243  -1.328 -34.808  1.00  0.00     0.059 A 
HETATM   13  H   UNL     1      -4.027   1.045 -31.670  1.00  0.00     0.168 HD
ENDROOT
BRANCH   8  14
HETATM   14  N   UNL     1      -7.104   3.382 -33.885  1.00  0.00    -0.264 N 
HETATM   15  H   UNL     1      -6.486   4.176 -34.014  1.00  0.00     0.190 HD
BRANCH  14  16
HETATM   16  C   UNL     1      -8.309   3.658 -33.280  1.00  0.00     0.187 C 
HETATM   17  S   UNL     1      -8.856   3.076 -31.809  1.00  0.00    -0.040 SA
BRANCH  16  18
HETATM   18  N   UNL     1      -9.157   4.462 -33.997  1.00  0.00    -0.366 N 
HETATM   19  H   UNL     1      -8.877   5.435 -33.919  1.00  0.00     0.161 HD
BRANCH  18  20
HETATM   20  C   UNL     1     -10.595   4.243 -34.126  1.00  0.00     0.126 C 
BRANCH  20  21
HETATM   21  C   UNL     1     -10.911   3.174 -35.173  1.00  0.00     0.058 C 
BRANCH  21  22
HETATM   22  C   UNL     1     -11.803   2.094 -34.619  1.00  0.00    -0.057 A 
HETATM   23  C   UNL     1     -11.243   1.003 -33.937  1.00  0.00     0.007 A 
HETATM   24  C   UNL     1     -12.057  -0.017 -33.442  1.00  0.00     0.001 A 
HETATM   25  C   UNL     1     -13.436   0.039 -33.629  1.00  0.00     0.000 A 
HETATM   26  C   UNL     1     -14.002   1.116 -34.309  1.00  0.00     0.001 A 
HETATM   27  C   UNL     1     -13.190   2.139 -34.804  1.00  0.00     0.007 A 
ENDBRANCH  21  22
ENDBRANCH  20  21
ENDBRANCH  18  20
ENDBRANCH  16  18
ENDBRANCH  14  16
ENDBRANCH   8  14
BRANCH   1  28
HETATM   28  O   UNL     1      -5.586  -3.633 -35.300  1.00  0.00    -0.353 OA
HETATM   29  C   UNL     1      -6.798  -4.353 -35.116  1.00  0.00     0.210 C 
ENDBRANCH   1  28
BRANCH   2  30
HETATM   30  O   UNL     1      -3.703  -3.591 -33.483  1.00  0.00    -0.353 OA
HETATM   31  C   UNL     1      -3.028  -3.808 -32.252  1.00  0.00     0.210 C 
ENDBRANCH   2  30
TORSDOF 8
ENDMDL
MODEL 5
REMARK VINA RESULT:      -7.5      2.361      7.712
REMARK  8 active torsions:
REMARK  status: ('A' for Active; 'I' for Inactive)
REMARK    1  A    between atoms: O_2  and  C_3 
REMARK    2  A    between atoms: C_4  and  O_5 
REMARK    3  A    between atoms: N_12  and  N_13 
REMARK    4  A    between atoms: N_13  and  C_14 
REMARK    5  A    between atoms: C_14  and  N_15 
REMARK    6  A    between atoms: N_15  and  C_16 
REMARK    7  A    between atoms: C_16  and  C_17 
REMARK    8  A    between atoms: C_17  and  C_18 
ROOT
HETATM    1  C   UNL     1      -2.215   4.944 -32.593  1.00  0.00     0.102 A 
HETATM    2  C   UNL     1      -2.644   5.923 -31.670  1.00  0.00     0.103 A 
HETATM    3  C   UNL     1      -3.875   5.775 -31.020  1.00  0.00     0.070 A 
HETATM    4  C   UNL     1      -4.672   4.661 -31.288  1.00  0.00     0.053 A 
HETATM    5  C   UNL     1      -4.240   3.686 -32.180  1.00  0.00     0.063 A 
HETATM    6  C   UNL     1      -5.100   2.511 -32.425  1.00  0.00     0.281 C 
HETATM    7  O   UNL     1      -4.672   1.555 -33.069  1.00  0.00    -0.265 OA
HETATM    8  N   UNL     1      -6.375   2.566 -31.849  1.00  0.00    -0.190 N 
HETATM    9  C   UNL     1      -6.795   3.513 -30.915  1.00  0.00     0.201 C 
HETATM   10  S   UNL     1      -8.253   3.522 -30.082  1.00  0.00    -0.039 SA
HETATM   11  N   UNL     1      -5.911   4.531 -30.653  1.00  0.00    -0.331 N 
HETATM   12  C   UNL     1      -3.011   3.819 -32.833  1.00  0.00     0.059 A 
HETATM   13  H   UNL     1      -6.223   5.239 -29.996  1.00  0.00     0.168 HD
ENDROOT
BRANCH   8  14
HETATM   14  N   UNL     1      -7.263   1.515 -32.208  1.00  0.00    -0.264 N 
HETATM   15  H   UNL     1      -6.899   0.595 -31.987  1.00  0.00     0.190 HD
BRANCH  14  16
HETATM   16  C   UNL     1      -8.000   1.603 -33.367  1.00  0.00     0.187 C 
HETATM   17  S   UNL     1      -9.589   2.105 -33.518  1.00  0.00    -0.040 SA
BRANCH  16  18
HETATM   18  N   UNL     1      -7.357   1.186 -34.505  1.00  0.00    -0.366 N 
HETATM   19  H   UNL     1      -7.205   1.968 -35.135  1.00  0.00     0.161 HD
BRANCH  18  20
HETATM   20  C   UNL     1      -7.583  -0.100 -35.159  1.00  0.00     0.126 C 
BRANCH  20  21
HETATM   21  C   UNL     1      -7.713  -1.235 -34.143  1.00  0.00     0.058 C 
BRANCH  21  22
HETATM   22  C   UNL     1      -6.584  -2.227 -34.266  1.00  0.00    -0.057 A 
HETATM   23  C   UNL     1      -6.824  -3.501 -34.801  1.00  0.00     0.007 A 
HETATM   24  C   UNL     1      -5.794  -4.436 -34.895  1.00  0.00     0.001 A 
HETATM   25  C   UNL     1      -4.515  -4.111 -34.449  1.00  0.00     0.000 A 
HETATM   26  C   UNL     1      -4.267  -2.850 -33.910  1.00  0.00     0.001 A 
HETATM   27  C   UNL     1      -5.297  -1.911 -33.816  1.00  0.00     0.007 A 
ENDBRANCH  21  22
ENDBRANCH  20  21
ENDBRANCH  18  20
ENDBRANCH  16  18
ENDBRANCH  14  16
ENDBRANCH   8  14
BRANCH   1  28
HETATM   28  O   UNL     1      -1.000   5.167 -33.192  1.00  0.00    -0.353 OA
HETATM   29  C   UNL     1      -1.012   5.576 -34.553  1.00  0.00     0.210 C 
ENDBRANCH   1  28
BRANCH   2  30
HETATM   30  O   UNL     1      -1.794   6.985 -31.484  1.00  0.00    -0.353 OA
HETATM   31  C   UNL     1      -2.199   8.256 -31.971  1.00  0.00     0.210 C 
ENDBRANCH   2  30
TORSDOF 8
ENDMDL
MODEL 6
REMARK VINA RESULT:      -7.4      3.052      8.586
REMARK  8 active torsions:
REMARK  status: ('A' for Active; 'I' for Inactive)
REMARK    1  A    between atoms: O_2  and  C_3 
REMARK    2  A    between atoms: C_4  and  O_5 
REMARK    3  A    between atoms: N_12  and  N_13 
REMARK    4  A    between atoms: N_13  and  C_14 
REMARK    5  A    between atoms: C_14  and  N_15 
REMARK    6  A    between atoms: N_15  and  C_16 
REMARK    7  A    between atoms: C_16  and  C_17 
REMARK    8  A    between atoms: C_17  and  C_18 
ROOT
HETATM    1  C   UNL     1      -0.799   5.909 -30.563  1.00  0.00     0.102 A 
HETATM    2  C   UNL     1      -1.495   7.056 -30.122  1.00  0.00     0.103 A 
HETATM    3  C   UNL     1      -2.861   7.191 -30.399  1.00  0.00     0.070 A 
HETATM    4  C   UNL     1      -3.527   6.192 -31.111  1.00  0.00     0.053 A 
HETATM    5  C   UNL     1      -2.846   5.054 -31.526  1.00  0.00     0.063 A 
HETATM    6  C   UNL     1      -3.588   4.008 -32.261  1.00  0.00     0.281 C 
HETATM    7  O   UNL     1      -3.061   2.920 -32.487  1.00  0.00    -0.265 OA
HETATM    8  N   UNL     1      -4.898   4.339 -32.623  1.00  0.00    -0.190 N 
HETATM    9  C   UNL     1      -5.601   5.455 -32.167  1.00  0.00     0.201 C 
HETATM   10  S   UNL     1      -7.220   5.804 -32.448  1.00  0.00    -0.039 SA
HETATM   11  N   UNL     1      -4.885   6.345 -31.405  1.00  0.00    -0.331 N 
HETATM   12  C   UNL     1      -1.483   4.903 -31.253  1.00  0.00     0.059 A 
HETATM   13  H   UNL     1      -5.383   7.173 -31.095  1.00  0.00     0.168 HD
ENDROOT
BRANCH   8  14
HETATM   14  N   UNL     1      -5.564   3.405 -33.463  1.00  0.00    -0.264 N 
HETATM   15  H   UNL     1      -6.080   3.846 -34.217  1.00  0.00     0.190 HD
BRANCH  14  16
HETATM   16  C   UNL     1      -6.145   2.282 -32.919  1.00  0.00     0.187 C 
HETATM   17  S   UNL     1      -7.634   2.183 -32.161  1.00  0.00    -0.040 SA
BRANCH  16  18
HETATM   18  N   UNL     1      -5.387   1.142 -32.975  1.00  0.00    -0.366 N 
HETATM   19  H   UNL     1      -4.625   1.252 -33.638  1.00  0.00     0.161 HD
BRANCH  18  20
HETATM   20  C   UNL     1      -5.921  -0.213 -32.869  1.00  0.00     0.126 C 
BRANCH  20  21
HETATM   21  C   UNL     1      -6.278  -0.788 -34.240  1.00  0.00     0.058 C 
BRANCH  21  22
HETATM   22  C   UNL     1      -5.859  -2.230 -34.369  1.00  0.00    -0.057 A 
HETATM   23  C   UNL     1      -6.786  -3.195 -34.789  1.00  0.00     0.007 A 
HETATM   24  C   UNL     1      -6.418  -4.538 -34.886  1.00  0.00     0.001 A 
HETATM   25  C   UNL     1      -5.122  -4.930 -34.560  1.00  0.00     0.000 A 
HETATM   26  C   UNL     1      -4.194  -3.979 -34.137  1.00  0.00     0.001 A 
HETATM   27  C   UNL     1      -4.560  -2.635 -34.040  1.00  0.00     0.007 A 
ENDBRANCH  21  22
ENDBRANCH  20  21
ENDBRANCH  18  20
ENDBRANCH  16  18
ENDBRANCH  14  16
ENDBRANCH   8  14
BRANCH   1  28
HETATM   28  O   UNL     1       0.538   5.856 -30.256  1.00  0.00    -0.353 OA
HETATM   29  C   UNL     1       0.967   4.809 -29.396  1.00  0.00     0.210 C 
ENDBRANCH   1  28
BRANCH   2  30
HETATM   30  O   UNL     1      -0.748   7.985 -29.439  1.00  0.00    -0.353 OA
HETATM   31  C   UNL     1      -1.437   9.016 -28.747  1.00  0.00     0.210 C 
ENDBRANCH   2  30
TORSDOF 8
ENDMDL
MODEL 7
REMARK VINA RESULT:      -7.4      2.078      2.709
REMARK  8 active torsions:
REMARK  status: ('A' for Active; 'I' for Inactive)
REMARK    1  A    between atoms: O_2  and  C_3 
REMARK    2  A    between atoms: C_4  and  O_5 
REMARK    3  A    between atoms: N_12  and  N_13 
REMARK    4  A    between atoms: N_13  and  C_14 
REMARK    5  A    between atoms: C_14  and  N_15 
REMARK    6  A    between atoms: N_15  and  C_16 
REMARK    7  A    between atoms: C_16  and  C_17 
REMARK    8  A    between atoms: C_17  and  C_18 
ROOT
HETATM    1  C   UNL     1      -4.474  -2.015 -33.436  1.00  0.00     0.102 A 
HETATM    2  C   UNL     1      -5.519  -2.051 -34.385  1.00  0.00     0.103 A 
HETATM    3  C   UNL     1      -6.291  -0.905 -34.614  1.00  0.00     0.070 A 
HETATM    4  C   UNL     1      -6.024   0.265 -33.902  1.00  0.00     0.053 A 
HETATM    5  C   UNL     1      -4.981   0.306 -32.983  1.00  0.00     0.063 A 
HETATM    6  C   UNL     1      -4.716   1.567 -32.262  1.00  0.00     0.281 C 
HETATM    7  O   UNL     1      -3.700   1.687 -31.579  1.00  0.00    -0.265 OA
HETATM    8  N   UNL     1      -5.660   2.582 -32.451  1.00  0.00    -0.190 N 
HETATM    9  C   UNL     1      -6.678   2.565 -33.407  1.00  0.00     0.201 C 
HETATM   10  S   UNL     1      -7.728   3.823 -33.775  1.00  0.00    -0.039 SA
HETATM   11  N   UNL     1      -6.815   1.398 -34.117  1.00  0.00    -0.331 N 
HETATM   12  C   UNL     1      -4.199  -0.829 -32.748  1.00  0.00     0.059 A 
HETATM   13  H   UNL     1      -7.570   1.370 -34.794  1.00  0.00     0.168 HD
ENDROOT
BRANCH   8  14
HETATM   14  N   UNL     1      -5.498   3.739 -31.642  1.00  0.00    -0.264 N 
HETATM   15  H   UNL     1      -6.307   3.936 -31.063  1.00  0.00     0.190 HD
BRANCH  14  16
HETATM   16  C   UNL     1      -4.840   4.841 -32.140  1.00  0.00     0.187 C 
HETATM   17  S   UNL     1      -5.447   6.392 -32.302  1.00  0.00    -0.040 SA
BRANCH  16  18
HETATM   18  N   UNL     1      -3.564   4.611 -32.587  1.00  0.00    -0.366 N 
HETATM   19  H   UNL     1      -3.264   3.672 -32.342  1.00  0.00     0.161 HD
BRANCH  18  20
HETATM   20  C   UNL     1      -2.501   5.612 -32.607  1.00  0.00     0.126 C 
BRANCH  20  21
HETATM   21  C   UNL     1      -1.154   5.014 -32.201  1.00  0.00     0.058 C 
BRANCH  21  22
HETATM   22  C   UNL     1      -0.598   5.674 -30.966  1.00  0.00    -0.057 A 
HETATM   23  C   UNL     1      -0.797   7.047 -30.753  1.00  0.00     0.007 A 
HETATM   24  C   UNL     1      -0.264   7.675 -29.627  1.00  0.00     0.001 A 
HETATM   25  C   UNL     1       0.477   6.940 -28.705  1.00  0.00     0.000 A 
HETATM   26  C   UNL     1       0.685   5.577 -28.909  1.00  0.00     0.001 A 
HETATM   27  C   UNL     1       0.151   4.945 -30.035  1.00  0.00     0.007 A 
ENDBRANCH  21  22
ENDBRANCH  20  21
ENDBRANCH  18  20
ENDBRANCH  16  18
ENDBRANCH  14  16
ENDBRANCH   8  14
BRANCH   1  28
HETATM   28  O   UNL     1      -3.769  -3.181 -33.267  1.00  0.00    -0.353 OA
HETATM   29  C   UNL     1      -3.077  -3.350 -32.037  1.00  0.00     0.210 C 
ENDBRANCH   1  28
BRANCH   2  30
HETATM   30  O   UNL     1      -5.708  -3.251 -35.025  1.00  0.00    -0.353 OA
HETATM   31  C   UNL     1      -6.913  -3.959 -34.772  1.00  0.00     0.210 C 
ENDBRANCH   2  30
TORSDOF 8
ENDMDL
MODEL 8
REMARK VINA RESULT:      -7.4      3.003      8.169
REMARK  8 active torsions:
REMARK  status: ('A' for Active; 'I' for Inactive)
REMARK    1  A    between atoms: O_2  and  C_3 
REMARK    2  A    between atoms: C_4  and  O_5 
REMARK    3  A    between atoms: N_12  and  N_13 
REMARK    4  A    between atoms: N_13  and  C_14 
REMARK    5  A    between atoms: C_14  and  N_15 
REMARK    6  A    between atoms: N_15  and  C_16 
REMARK    7  A    between atoms: C_16  and  C_17 
REMARK    8  A    between atoms: C_17  and  C_18 
ROOT
HETATM    1  C   UNL     1      -2.960   6.540 -32.156  1.00  0.00     0.102 A 
HETATM    2  C   UNL     1      -1.806   5.746 -31.974  1.00  0.00     0.103 A 
HETATM    3  C   UNL     1      -1.937   4.370 -31.751  1.00  0.00     0.070 A 
HETATM    4  C   UNL     1      -3.206   3.791 -31.709  1.00  0.00     0.053 A 
HETATM    5  C   UNL     1      -4.340   4.569 -31.911  1.00  0.00     0.063 A 
HETATM    6  C   UNL     1      -5.666   3.919 -31.879  1.00  0.00     0.281 C 
HETATM    7  O   UNL     1      -6.668   4.542 -32.225  1.00  0.00    -0.265 OA
HETATM    8  N   UNL     1      -5.672   2.579 -31.478  1.00  0.00    -0.190 N 
HETATM    9  C   UNL     1      -4.537   1.780 -31.324  1.00  0.00     0.201 C 
HETATM   10  S   UNL     1      -4.508   0.133 -31.002  1.00  0.00    -0.039 SA
HETATM   11  N   UNL     1      -3.330   2.420 -31.461  1.00  0.00    -0.331 N 
HETATM   12  C   UNL     1      -4.225   5.944 -32.139  1.00  0.00     0.059 A 
HETATM   13  H   UNL     1      -2.502   1.851 -31.322  1.00  0.00     0.168 HD
ENDROOT
BRANCH   8  14
HETATM   14  N   UNL     1      -6.954   1.992 -31.294  1.00  0.00    -0.264 N 
HETATM   15  H   UNL     1      -6.970   1.298 -30.554  1.00  0.00     0.190 HD
BRANCH  14  16
HETATM   16  C   UNL     1      -7.750   1.722 -32.384  1.00  0.00     0.187 C 
HETATM   17  S   UNL     1      -9.366   2.110 -32.574  1.00  0.00    -0.040 SA
BRANCH  16  18
HETATM   18  N   UNL     1      -7.145   1.018 -33.393  1.00  0.00    -0.366 N 
HETATM   19  H   UNL     1      -7.215   1.523 -34.272  1.00  0.00     0.161 HD
BRANCH  18  20
HETATM   20  C   UNL     1      -7.163  -0.437 -33.514  1.00  0.00     0.126 C 
BRANCH  20  21
HETATM   21  C   UNL     1      -6.503  -0.903 -34.812  1.00  0.00     0.058 C 
BRANCH  21  22
HETATM   22  C   UNL     1      -5.951  -2.300 -34.688  1.00  0.00    -0.057 A 
HETATM   23  C   UNL     1      -6.796  -3.407 -34.858  1.00  0.00     0.007 A 
HETATM   24  C   UNL     1      -6.302  -4.704 -34.720  1.00  0.00     0.001 A 
HETATM   25  C   UNL     1      -4.962  -4.910 -34.404  1.00  0.00     0.000 A 
HETATM   26  C   UNL     1      -4.114  -3.817 -34.227  1.00  0.00     0.001 A 
HETATM   27  C   UNL     1      -4.606  -2.517 -34.367  1.00  0.00     0.007 A 
ENDBRANCH  21  22
ENDBRANCH  20  21
ENDBRANCH  18  20
ENDBRANCH  16  18
ENDBRANCH  14  16
ENDBRANCH   8  14
BRANCH   1  28
HETATM   28  O   UNL     1      -2.746   7.881 -32.363  1.00  0.00    -0.353 OA
HETATM   29  C   UNL     1      -2.902   8.744 -31.245  1.00  0.00     0.210 C 
ENDBRANCH   1  28
BRANCH   2  30
HETATM   30  O   UNL     1      -0.606   6.412 -32.021  1.00  0.00    -0.353 OA
HETATM   31  C   UNL     1       0.332   6.170 -30.983  1.00  0.00     0.210 C 
ENDBRANCH   2  30
TORSDOF 8
ENDMDL
MODEL 9
REMARK VINA RESULT:      -7.3     15.447     17.457
REMARK  8 active torsions:
REMARK  status: ('A' for Active; 'I' for Inactive)
REMARK    1  A    between atoms: O_2  and  C_3 
REMARK    2  A    between atoms: C_4  and  O_5 
REMARK    3  A    between atoms: N_12  and  N_13 
REMARK    4  A    between atoms: N_13  and  C_14 
REMARK    5  A    between atoms: C_14  and  N_15 
REMARK    6  A    between atoms: N_15  and  C_16 
REMARK    7  A    between atoms: C_16  and  C_17 
REMARK    8  A    between atoms: C_17  and  C_18 
ROOT
HETATM    1  C   UNL     1      -9.820 -13.827 -39.167  1.00  0.00     0.102 A 
HETATM    2  C   UNL     1      -9.932 -15.142 -39.669  1.00  0.00     0.103 A 
HETATM    3  C   UNL     1      -9.117 -16.156 -39.152  1.00  0.00     0.070 A 
HETATM    4  C   UNL     1      -8.198 -15.862 -38.144  1.00  0.00     0.053 A 
HETATM    5  C   UNL     1      -8.103 -14.572 -37.635  1.00  0.00     0.063 A 
HETATM    6  C   UNL     1      -7.133 -14.302 -36.555  1.00  0.00     0.281 C 
HETATM    7  O   UNL     1      -7.147 -13.221 -35.967  1.00  0.00    -0.265 OA
HETATM    8  N   UNL     1      -6.262 -15.353 -36.248  1.00  0.00    -0.190 N 
HETATM    9  C   UNL     1      -6.384 -16.662 -36.718  1.00  0.00     0.201 C 
HETATM   10  S   UNL     1      -5.462 -17.985 -36.251  1.00  0.00    -0.039 SA
HETATM   11  N   UNL     1      -7.370 -16.875 -37.650  1.00  0.00    -0.331 N 
HETATM   12  C   UNL     1      -8.914 -13.550 -38.138  1.00  0.00     0.059 A 
HETATM   13  H   UNL     1      -7.446 -17.818 -38.016  1.00  0.00     0.168 HD
ENDROOT
BRANCH   8  14
HETATM   14  N   UNL     1      -5.226 -15.051 -35.322  1.00  0.00    -0.264 N 
HETATM   15  H   UNL     1      -5.564 -14.588 -34.486  1.00  0.00     0.190 HD
BRANCH  14  16
HETATM   16  C   UNL     1      -3.996 -14.635 -35.778  1.00  0.00     0.187 C 
HETATM   17  S   UNL     1      -2.561 -15.496 -35.738  1.00  0.00    -0.040 SA
BRANCH  16  18
HETATM   18  N   UNL     1      -3.953 -13.358 -36.275  1.00  0.00    -0.366 N 
HETATM   19  H   UNL     1      -4.753 -12.823 -35.952  1.00  0.00     0.161 HD
BRANCH  18  20
HETATM   20  C   UNL     1      -3.472 -13.005 -37.608  1.00  0.00     0.126 C 
BRANCH  20  21
HETATM   21  C   UNL     1      -4.494 -12.162 -38.371  1.00  0.00     0.058 C 
BRANCH  21  22
HETATM   22  C   UNL     1      -5.216 -12.970 -39.419  1.00  0.00    -0.057 A 
HETATM   23  C   UNL     1      -4.944 -14.338 -39.560  1.00  0.00     0.007 A 
HETATM   24  C   UNL     1      -5.586 -15.091 -40.544  1.00  0.00     0.001 A 
HETATM   25  C   UNL     1      -6.502 -14.484 -41.399  1.00  0.00     0.000 A 
HETATM   26  C   UNL     1      -6.776 -13.123 -41.271  1.00  0.00     0.001 A 
HETATM   27  C   UNL     1      -6.136 -12.368 -40.286  1.00  0.00     0.007 A 
ENDBRANCH  21  22
ENDBRANCH  20  21
ENDBRANCH  18  20
ENDBRANCH  16  18
ENDBRANCH  14  16
ENDBRANCH   8  14
BRANCH   1  28
HETATM   28  O   UNL     1     -10.650 -12.890 -39.731  1.00  0.00    -0.353 OA
HETATM   29  C   UNL     1     -10.037 -11.762 -40.341  1.00  0.00     0.210 C 
ENDBRANCH   1  28
BRANCH   2  30
HETATM   30  O   UNL     1     -10.858 -15.326 -40.667  1.00  0.00    -0.353 OA
HETATM   31  C   UNL     1     -10.387 -15.713 -41.949  1.00  0.00     0.210 C 
ENDBRANCH   2  30
TORSDOF 8
ENDMDL
MODEL 10
REMARK VINA RESULT:      -7.1      2.066      2.346
REMARK  8 active torsions:
REMARK  status: ('A' for Active; 'I' for Inactive)
REMARK    1  A    between atoms: O_2  and  C_3 
REMARK    2  A    between atoms: C_4  and  O_5 
REMARK    3  A    between atoms: N_12  and  N_13 
REMARK    4  A    between atoms: N_13  and  C_14 
REMARK    5  A    between atoms: C_14  and  N_15 
REMARK    6  A    between atoms: N_15  and  C_16 
REMARK    7  A    between atoms: C_16  and  C_17 
REMARK    8  A    between atoms: C_17  and  C_18 
ROOT
HETATM    1  C   UNL     1      -4.875  -1.463 -33.823  1.00  0.00     0.102 A 
HETATM    2  C   UNL     1      -5.953  -2.047 -34.524  1.00  0.00     0.103 A 
HETATM    3  C   UNL     1      -7.103  -1.292 -34.788  1.00  0.00     0.070 A 
HETATM    4  C   UNL     1      -7.178   0.033 -34.355  1.00  0.00     0.053 A 
HETATM    5  C   UNL     1      -6.108   0.614 -33.684  1.00  0.00     0.063 A 
HETATM    6  C   UNL     1      -6.215   2.024 -33.258  1.00  0.00     0.281 C 
HETATM    7  O   UNL     1      -5.229   2.614 -32.821  1.00  0.00    -0.265 OA
HETATM    8  N   UNL     1      -7.474   2.612 -33.426  1.00  0.00    -0.190 N 
HETATM    9  C   UNL     1      -8.533   2.053 -34.143  1.00  0.00     0.201 C 
HETATM   10  S   UNL     1      -9.998   2.790 -34.505  1.00  0.00    -0.039 SA
HETATM   11  N   UNL     1      -8.339   0.773 -34.600  1.00  0.00    -0.331 N 
HETATM   12  C   UNL     1      -4.952  -0.126 -33.418  1.00  0.00     0.059 A 
HETATM   13  H   UNL     1      -9.116   0.350 -35.097  1.00  0.00     0.168 HD
ENDROOT
BRANCH   8  14
HETATM   14  N   UNL     1      -7.629   3.914 -32.877  1.00  0.00    -0.264 N 
HETATM   15  H   UNL     1      -7.044   4.608 -33.329  1.00  0.00     0.190 HD
BRANCH  14  16
HETATM   16  C   UNL     1      -7.802   4.072 -31.521  1.00  0.00     0.187 C 
HETATM   17  S   UNL     1      -8.766   3.150 -30.511  1.00  0.00    -0.040 SA
BRANCH  16  18
HETATM   18  N   UNL     1      -7.136   5.134 -30.963  1.00  0.00    -0.366 N 
HETATM   19  H   UNL     1      -7.558   6.011 -31.254  1.00  0.00     0.161 HD
BRANCH  18  20
HETATM   20  C   UNL     1      -5.693   5.185 -30.746  1.00  0.00     0.126 C 
BRANCH  20  21
HETATM   21  C   UNL     1      -5.041   6.309 -31.551  1.00  0.00     0.058 C 
BRANCH  21  22
HETATM   22  C   UNL     1      -4.009   5.781 -32.515  1.00  0.00    -0.057 A 
HETATM   23  C   UNL     1      -2.750   5.377 -32.044  1.00  0.00     0.007 A 
HETATM   24  C   UNL     1      -1.778   4.912 -32.930  1.00  0.00     0.001 A 
HETATM   25  C   UNL     1      -2.050   4.851 -34.295  1.00  0.00     0.000 A 
HETATM   26  C   UNL     1      -3.296   5.254 -34.774  1.00  0.00     0.001 A 
HETATM   27  C   UNL     1      -4.271   5.719 -33.889  1.00  0.00     0.007 A 
ENDBRANCH  21  22
ENDBRANCH  20  21
ENDBRANCH  18  20
ENDBRANCH  16  18
ENDBRANCH  14  16
ENDBRANCH   8  14
BRANCH   1  28
HETATM   28  O   UNL     1      -3.788  -2.271 -33.599  1.00  0.00    -0.353 OA
HETATM   29  C   UNL     1      -3.392  -2.469 -32.249  1.00  0.00     0.210 C 
ENDBRANCH   1  28
BRANCH   2  30
HETATM   30  O   UNL     1      -5.786  -3.358 -34.897  1.00  0.00    -0.353 OA
HETATM   31  C   UNL     1      -6.926  -4.204 -34.888  1.00  0.00     0.210 C 
ENDBRANCH   2  30
TORSDOF 8
ENDMDL
