MODEL 1
REMARK VINA RESULT:      -7.1      0.000      0.000
REMARK  5 active torsions:
REMARK  status: ('A' for Active; 'I' for Inactive)
REMARK    1  A    between atoms: C_2  and  N_3 
REMARK    2  A    between atoms: N_3  and  C_5 
REMARK    3  A    between atoms: N_3  and  C_21 
REMARK    4  A    between atoms: C_8  and  N_9 
REMARK       I    between atoms: N_9  and  C_10 
REMARK    5  A    between atoms: C_10  and  C_11 
ROOT
HETATM    1  C   UNL     1      -5.863  -0.443 -33.552  1.00  0.00     0.134 A 
HETATM    2  C   UNL     1      -6.575  -0.317 -34.744  1.00  0.00     0.039 A 
HETATM    3  C   UNL     1      -7.948  -0.046 -34.718  1.00  0.00     0.032 A 
HETATM    4  C   UNL     1      -8.632   0.089 -33.508  1.00  0.00     0.035 A 
HETATM    5  C   UNL     1      -7.912  -0.054 -32.315  1.00  0.00     0.032 A 
HETATM    6  C   UNL     1      -6.536  -0.315 -32.334  1.00  0.00     0.039 A 
ENDROOT
BRANCH   4   7
HETATM    7  N   UNL     1     -10.012   0.371 -33.404  1.00  0.00    -0.323 N 
HETATM    8  C   UNL     1     -10.658   1.528 -33.814  1.00  0.00     0.257 C 
HETATM    9  O   UNL     1     -10.129   2.479 -34.380  1.00  0.00    -0.267 OA
HETATM   10  H   UNL     1     -10.584  -0.370 -33.024  1.00  0.00     0.169 HD
BRANCH   8  11
HETATM   11  C   UNL     1     -12.121   1.595 -33.557  1.00  0.00     0.050 A 
HETATM   12  C   UNL     1     -12.642   2.766 -33.012  1.00  0.00     0.135 A 
HETATM   13  N   UNL     1     -13.954   2.958 -32.731  1.00  0.00    -0.248 NA
HETATM   14  C   UNL     1     -14.781   1.926 -32.988  1.00  0.00     0.125 A 
HETATM   15 CL   UNL     1     -16.428   2.209 -32.612  1.00  0.00    -0.063 Cl
HETATM   16  C   UNL     1     -14.367   0.713 -33.511  1.00  0.00     0.045 A 
HETATM   17  C   UNL     1     -13.010   0.542 -33.796  1.00  0.00     0.022 A 
ENDBRANCH   8  11
ENDBRANCH   4   7
BRANCH   1  18
HETATM   18  N   UNL     1      -4.406  -0.703 -33.528  1.00  0.00    -0.042 N 
HETATM   19  H   UNL     1      -4.085  -0.507 -34.485  1.00  0.00     0.286 HD
BRANCH  18  20
HETATM   20  C   UNL     1      -4.031  -2.151 -33.302  1.00  0.00     0.237 C 
HETATM   21  C   UNL     1      -4.379  -3.001 -34.513  1.00  0.00     0.035 C 
ENDBRANCH  18  20
BRANCH  18  22
HETATM   22  C   UNL     1      -3.664   0.298 -32.671  1.00  0.00     0.237 C 
HETATM   23  C   UNL     1      -2.938  -0.317 -31.490  1.00  0.00     0.035 C 
ENDBRANCH  18  22
ENDBRANCH   1  18
TORSDOF 5
ENDMDL
MODEL 2
REMARK VINA RESULT:      -7.0      3.740      8.366
REMARK  5 active torsions:
REMARK  status: ('A' for Active; 'I' for Inactive)
REMARK    1  A    between atoms: C_2  and  N_3 
REMARK    2  A    between atoms: N_3  and  C_5 
REMARK    3  A    between atoms: N_3  and  C_21 
REMARK    4  A    between atoms: C_8  and  N_9 
REMARK       I    between atoms: N_9  and  C_10 
REMARK    5  A    between atoms: C_10  and  C_11 
ROOT
HETATM    1  C   UNL     1     -11.131   2.806 -32.975  1.00  0.00     0.134 A 
HETATM    2  C   UNL     1      -9.849   3.073 -32.498  1.00  0.00     0.039 A 
HETATM    3  C   UNL     1      -8.843   2.106 -32.609  1.00  0.00     0.032 A 
HETATM    4  C   UNL     1      -9.102   0.860 -33.183  1.00  0.00     0.035 A 
HETATM    5  C   UNL     1     -10.397   0.595 -33.646  1.00  0.00     0.032 A 
HETATM    6  C   UNL     1     -11.406   1.561 -33.547  1.00  0.00     0.039 A 
ENDROOT
BRANCH   4   7
HETATM    7  N   UNL     1      -8.136  -0.159 -33.337  1.00  0.00    -0.323 N 
HETATM    8  C   UNL     1      -7.323  -0.374 -34.440  1.00  0.00     0.257 C 
HETATM    9  O   UNL     1      -7.285   0.325 -35.446  1.00  0.00    -0.267 OA
HETATM   10  H   UNL     1      -8.006  -0.765 -32.539  1.00  0.00     0.169 HD
BRANCH   8  11
HETATM   11  C   UNL     1      -6.409  -1.546 -34.369  1.00  0.00     0.050 A 
HETATM   12  C   UNL     1      -5.134  -1.357 -33.844  1.00  0.00     0.135 A 
HETATM   13  N   UNL     1      -4.207  -2.339 -33.722  1.00  0.00    -0.248 NA
HETATM   14  C   UNL     1      -4.563  -3.561 -34.162  1.00  0.00     0.125 A 
HETATM   15 CL   UNL     1      -3.361  -4.769 -33.996  1.00  0.00    -0.063 Cl
HETATM   16  C   UNL     1      -5.797  -3.855 -34.718  1.00  0.00     0.045 A 
HETATM   17  C   UNL     1      -6.737  -2.826 -34.828  1.00  0.00     0.022 A 
ENDBRANCH   8  11
ENDBRANCH   4   7
BRANCH   1  18
HETATM   18  N   UNL     1     -12.222   3.805 -32.905  1.00  0.00    -0.042 N 
HETATM   19  H   UNL     1     -12.110   4.256 -31.988  1.00  0.00     0.286 HD
BRANCH  18  20
HETATM   20  C   UNL     1     -13.613   3.211 -32.855  1.00  0.00     0.237 C 
HETATM   21  C   UNL     1     -14.225   3.364 -31.473  1.00  0.00     0.035 C 
ENDBRANCH  18  20
BRANCH  18  22
HETATM   22  C   UNL     1     -12.033   4.926 -33.901  1.00  0.00     0.237 C 
HETATM   23  C   UNL     1     -12.725   4.696 -35.231  1.00  0.00     0.035 C 
ENDBRANCH  18  22
ENDBRANCH   1  18
TORSDOF 5
ENDMDL
MODEL 3
REMARK VINA RESULT:      -6.9      5.518      8.213
REMARK  5 active torsions:
REMARK  status: ('A' for Active; 'I' for Inactive)
REMARK    1  A    between atoms: C_2  and  N_3 
REMARK    2  A    between atoms: N_3  and  C_5 
REMARK    3  A    between atoms: N_3  and  C_21 
REMARK    4  A    between atoms: C_8  and  N_9 
REMARK       I    between atoms: N_9  and  C_10 
REMARK    5  A    between atoms: C_10  and  C_11 
ROOT
HETATM    1  C   UNL     1      -2.844   5.267 -31.366  1.00  0.00     0.134 A 
HETATM    2  C   UNL     1      -4.068   4.867 -30.834  1.00  0.00     0.039 A 
HETATM    3  C   UNL     1      -4.682   3.693 -31.288  1.00  0.00     0.032 A 
HETATM    4  C   UNL     1      -4.093   2.912 -32.284  1.00  0.00     0.035 A 
HETATM    5  C   UNL     1      -2.870   3.330 -32.824  1.00  0.00     0.032 A 
HETATM    6  C   UNL     1      -2.246   4.498 -32.368  1.00  0.00     0.039 A 
ENDROOT
BRANCH   4   7
HETATM    7  N   UNL     1      -4.648   1.713 -32.784  1.00  0.00    -0.323 N 
HETATM    8  C   UNL     1      -4.319   0.421 -32.401  1.00  0.00     0.257 C 
HETATM    9  O   UNL     1      -3.517   0.119 -31.523  1.00  0.00    -0.267 OA
HETATM   10  H   UNL     1      -5.388   1.822 -33.464  1.00  0.00     0.169 HD
BRANCH   8  11
HETATM   11  C   UNL     1      -5.025  -0.679 -33.110  1.00  0.00     0.050 A 
HETATM   12  C   UNL     1      -4.270  -1.748 -33.587  1.00  0.00     0.135 A 
HETATM   13  N   UNL     1      -4.789  -2.812 -34.247  1.00  0.00    -0.248 NA
HETATM   14  C   UNL     1      -6.119  -2.800 -34.458  1.00  0.00     0.125 A 
HETATM   15 CL   UNL     1      -6.730  -4.159 -35.302  1.00  0.00    -0.063 Cl
HETATM   16  C   UNL     1      -6.960  -1.780 -34.045  1.00  0.00     0.045 A 
HETATM   17  C   UNL     1      -6.401  -0.695 -33.362  1.00  0.00     0.022 A 
ENDBRANCH   8  11
ENDBRANCH   4   7
BRANCH   1  18
HETATM   18  N   UNL     1      -2.143   6.485 -30.901  1.00  0.00    -0.042 N 
HETATM   19  H   UNL     1      -2.709   6.834 -30.117  1.00  0.00     0.286 HD
BRANCH  18  20
HETATM   20  C   UNL     1      -2.144   7.627 -31.893  1.00  0.00     0.237 C 
HETATM   21  C   UNL     1      -2.575   8.926 -31.234  1.00  0.00     0.035 C 
ENDBRANCH  18  20
BRANCH  18  22
HETATM   22  C   UNL     1      -0.800   6.168 -30.282  1.00  0.00     0.237 C 
HETATM   23  C   UNL     1       0.382   6.735 -31.044  1.00  0.00     0.035 C 
ENDBRANCH  18  22
ENDBRANCH   1  18
TORSDOF 5
ENDMDL
MODEL 4
REMARK VINA RESULT:      -6.9      6.323      9.599
REMARK  5 active torsions:
REMARK  status: ('A' for Active; 'I' for Inactive)
REMARK    1  A    between atoms: C_2  and  N_3 
REMARK    2  A    between atoms: N_3  and  C_5 
REMARK    3  A    between atoms: N_3  and  C_21 
REMARK    4  A    between atoms: C_8  and  N_9 
REMARK       I    between atoms: N_9  and  C_10 
REMARK    5  A    between atoms: C_10  and  C_11 
ROOT
HETATM    1  C   UNL     1      -5.383   0.666 -33.155  1.00  0.00     0.134 A 
HETATM    2  C   UNL     1      -5.770   2.004 -33.208  1.00  0.00     0.039 A 
HETATM    3  C   UNL     1      -4.970   2.991 -32.620  1.00  0.00     0.032 A 
HETATM    4  C   UNL     1      -3.784   2.659 -31.963  1.00  0.00     0.035 A 
HETATM    5  C   UNL     1      -3.410   1.311 -31.902  1.00  0.00     0.032 A 
HETATM    6  C   UNL     1      -4.201   0.319 -32.496  1.00  0.00     0.039 A 
ENDROOT
BRANCH   4   7
HETATM    7  N   UNL     1      -2.922   3.600 -31.356  1.00  0.00    -0.323 N 
HETATM    8  C   UNL     1      -2.089   4.501 -32.001  1.00  0.00     0.257 C 
HETATM    9  O   UNL     1      -2.005   4.654 -33.215  1.00  0.00    -0.267 OA
HETATM   10  H   UNL     1      -2.954   3.636 -30.347  1.00  0.00     0.169 HD
BRANCH   8  11
HETATM   11  C   UNL     1      -1.248   5.365 -31.130  1.00  0.00     0.050 A 
HETATM   12  C   UNL     1      -1.874   6.365 -30.391  1.00  0.00     0.135 A 
HETATM   13  N   UNL     1      -1.225   7.218 -29.559  1.00  0.00    -0.248 NA
HETATM   14  C   UNL     1       0.111   7.076 -29.476  1.00  0.00     0.125 A 
HETATM   15 CL   UNL     1       0.891   8.176 -28.420  1.00  0.00    -0.063 Cl
HETATM   16  C   UNL     1       0.836   6.129 -30.180  1.00  0.00     0.045 A 
HETATM   17  C   UNL     1       0.143   5.259 -31.027  1.00  0.00     0.022 A 
ENDBRANCH   8  11
ENDBRANCH   4   7
BRANCH   1  18
HETATM   18  N   UNL     1      -6.181  -0.411 -33.784  1.00  0.00    -0.042 N 
HETATM   19  H   UNL     1      -6.953  -0.586 -33.129  1.00  0.00     0.286 HD
BRANCH  18  20
HETATM   20  C   UNL     1      -5.470  -1.742 -33.880  1.00  0.00     0.237 C 
HETATM   21  C   UNL     1      -6.252  -2.720 -34.741  1.00  0.00     0.035 C 
ENDBRANCH  18  20
BRANCH  18  22
HETATM   22  C   UNL     1      -6.862   0.052 -35.052  1.00  0.00     0.237 C 
HETATM   23  C   UNL     1      -8.343   0.335 -34.891  1.00  0.00     0.035 C 
ENDBRANCH  18  22
ENDBRANCH   1  18
TORSDOF 5
ENDMDL
MODEL 5
REMARK VINA RESULT:      -6.8      2.566      3.328
REMARK  5 active torsions:
REMARK  status: ('A' for Active; 'I' for Inactive)
REMARK    1  A    between atoms: C_2  and  N_3 
REMARK    2  A    between atoms: N_3  and  C_5 
REMARK    3  A    between atoms: N_3  and  C_21 
REMARK    4  A    between atoms: C_8  and  N_9 
REMARK       I    between atoms: N_9  and  C_10 
REMARK    5  A    between atoms: C_10  and  C_11 
ROOT
HETATM    1  C   UNL     1      -6.226  -1.315 -33.824  1.00  0.00     0.134 A 
HETATM    2  C   UNL     1      -6.678  -0.592 -32.722  1.00  0.00     0.039 A 
HETATM    3  C   UNL     1      -7.572   0.472 -32.898  1.00  0.00     0.032 A 
HETATM    4  C   UNL     1      -8.016   0.836 -34.170  1.00  0.00     0.035 A 
HETATM    5  C   UNL     1      -7.545   0.113 -35.273  1.00  0.00     0.032 A 
HETATM    6  C   UNL     1      -6.658  -0.958 -35.104  1.00  0.00     0.039 A 
ENDROOT
BRANCH   4   7
HETATM    7  N   UNL     1      -8.922   1.889 -34.423  1.00  0.00    -0.323 N 
HETATM    8  C   UNL     1     -10.297   1.866 -34.238  1.00  0.00     0.257 C 
HETATM    9  O   UNL     1     -10.939   0.929 -33.777  1.00  0.00    -0.267 OA
HETATM   10  H   UNL     1      -8.510   2.758 -34.735  1.00  0.00     0.169 HD
BRANCH   8  11
HETATM   11  C   UNL     1     -11.036   3.100 -34.617  1.00  0.00     0.050 A 
HETATM   12  C   UNL     1     -10.661   4.302 -34.023  1.00  0.00     0.135 A 
HETATM   13  N   UNL     1     -11.250   5.496 -34.281  1.00  0.00    -0.248 NA
HETATM   14  C   UNL     1     -12.272   5.485 -35.158  1.00  0.00     0.125 A 
HETATM   15 CL   UNL     1     -12.991   7.012 -35.450  1.00  0.00    -0.063 Cl
HETATM   16  C   UNL     1     -12.738   4.345 -35.792  1.00  0.00     0.045 A 
HETATM   17  C   UNL     1     -12.111   3.127 -35.512  1.00  0.00     0.022 A 
ENDBRANCH   8  11
ENDBRANCH   4   7
BRANCH   1  18
HETATM   18  N   UNL     1      -5.302  -2.464 -33.688  1.00  0.00    -0.042 N 
HETATM   19  H   UNL     1      -5.720  -3.055 -32.957  1.00  0.00     0.286 HD
BRANCH  18  20
HETATM   20  C   UNL     1      -3.938  -2.110 -33.141  1.00  0.00     0.237 C 
HETATM   21  C   UNL     1      -3.360  -3.254 -32.324  1.00  0.00     0.035 C 
ENDBRANCH  18  20
BRANCH  18  22
HETATM   22  C   UNL     1      -5.298  -3.340 -34.921  1.00  0.00     0.237 C 
HETATM   23  C   UNL     1      -6.289  -4.487 -34.868  1.00  0.00     0.035 C 
ENDBRANCH  18  22
ENDBRANCH   1  18
TORSDOF 5
ENDMDL
MODEL 6
REMARK VINA RESULT:      -6.5      1.958      2.544
REMARK  5 active torsions:
REMARK  status: ('A' for Active; 'I' for Inactive)
REMARK    1  A    between atoms: C_2  and  N_3 
REMARK    2  A    between atoms: N_3  and  C_5 
REMARK    3  A    between atoms: N_3  and  C_21 
REMARK    4  A    between atoms: C_8  and  N_9 
REMARK       I    between atoms: N_9  and  C_10 
REMARK    5  A    between atoms: C_10  and  C_11 
ROOT
HETATM    1  C   UNL     1      -6.058  -1.337 -34.137  1.00  0.00     0.134 A 
HETATM    2  C   UNL     1      -6.424  -0.930 -32.855  1.00  0.00     0.039 A 
HETATM    3  C   UNL     1      -7.465  -0.010 -32.680  1.00  0.00     0.032 A 
HETATM    4  C   UNL     1      -8.144   0.525 -33.776  1.00  0.00     0.035 A 
HETATM    5  C   UNL     1      -7.759   0.123 -35.061  1.00  0.00     0.032 A 
HETATM    6  C   UNL     1      -6.725  -0.804 -35.243  1.00  0.00     0.039 A 
ENDROOT
BRANCH   4   7
HETATM    7  N   UNL     1      -9.207   1.449 -33.676  1.00  0.00    -0.323 N 
HETATM    8  C   UNL     1     -10.539   1.159 -33.421  1.00  0.00     0.257 C 
HETATM    9  O   UNL     1     -10.997   0.044 -33.194  1.00  0.00    -0.267 OA
HETATM   10  H   UNL     1      -8.953   2.423 -33.764  1.00  0.00     0.169 HD
BRANCH   8  11
HETATM   11  C   UNL     1     -11.476   2.314 -33.403  1.00  0.00     0.050 A 
HETATM   12  C   UNL     1     -10.950   3.592 -33.575  1.00  0.00     0.135 A 
HETATM   13  N   UNL     1     -11.693   4.727 -33.581  1.00  0.00    -0.248 NA
HETATM   14  C   UNL     1     -13.018   4.580 -33.389  1.00  0.00     0.125 A 
HETATM   15 CL   UNL     1     -13.916   6.039 -33.397  1.00  0.00    -0.063 Cl
HETATM   16  C   UNL     1     -13.641   3.360 -33.189  1.00  0.00     0.045 A 
HETATM   17  C   UNL     1     -12.854   2.205 -33.191  1.00  0.00     0.022 A 
ENDBRANCH   8  11
ENDBRANCH   4   7
BRANCH   1  18
HETATM   18  N   UNL     1      -4.982  -2.327 -34.373  1.00  0.00    -0.042 N 
HETATM   19  H   UNL     1      -4.325  -1.858 -35.009  1.00  0.00     0.286 HD
BRANCH  18  20
HETATM   20  C   UNL     1      -5.420  -3.557 -35.137  1.00  0.00     0.237 C 
HETATM   21  C   UNL     1      -6.750  -4.079 -34.620  1.00  0.00     0.035 C 
ENDBRANCH  18  20
BRANCH  18  22
HETATM   22  C   UNL     1      -4.171  -2.595 -33.126  1.00  0.00     0.237 C 
HETATM   23  C   UNL     1      -3.490  -3.950 -33.111  1.00  0.00     0.035 C 
ENDBRANCH  18  22
ENDBRANCH   1  18
TORSDOF 5
ENDMDL
MODEL 7
REMARK VINA RESULT:      -6.5      4.705      8.707
REMARK  5 active torsions:
REMARK  status: ('A' for Active; 'I' for Inactive)
REMARK    1  A    between atoms: C_2  and  N_3 
REMARK    2  A    between atoms: N_3  and  C_5 
REMARK    3  A    between atoms: N_3  and  C_21 
REMARK    4  A    between atoms: C_8  and  N_9 
REMARK       I    between atoms: N_9  and  C_10 
REMARK    5  A    between atoms: C_10  and  C_11 
ROOT
HETATM    1  C   UNL     1     -11.334   2.089 -33.342  1.00  0.00     0.134 A 
HETATM    2  C   UNL     1     -10.444   1.284 -34.050  1.00  0.00     0.039 A 
HETATM    3  C   UNL     1      -9.117   1.694 -34.231  1.00  0.00     0.032 A 
HETATM    4  C   UNL     1      -8.664   2.912 -33.722  1.00  0.00     0.035 A 
HETATM    5  C   UNL     1      -9.569   3.722 -33.025  1.00  0.00     0.032 A 
HETATM    6  C   UNL     1     -10.895   3.314 -32.832  1.00  0.00     0.039 A 
ENDROOT
BRANCH   4   7
HETATM    7  N   UNL     1      -7.340   3.386 -33.858  1.00  0.00    -0.323 N 
HETATM    8  C   UNL     1      -6.274   3.128 -33.010  1.00  0.00     0.257 C 
HETATM    9  O   UNL     1      -6.306   2.400 -32.023  1.00  0.00    -0.267 OA
HETATM   10  H   UNL     1      -7.154   3.938 -34.683  1.00  0.00     0.169 HD
BRANCH   8  11
HETATM   11  C   UNL     1      -4.982   3.780 -33.354  1.00  0.00     0.050 A 
HETATM   12  C   UNL     1      -4.964   4.693 -34.405  1.00  0.00     0.135 A 
HETATM   13  N   UNL     1      -3.856   5.356 -34.818  1.00  0.00    -0.248 NA
HETATM   14  C   UNL     1      -2.711   5.081 -34.165  1.00  0.00     0.125 A 
HETATM   15 CL   UNL     1      -1.336   5.936 -34.724  1.00  0.00    -0.063 Cl
HETATM   16  C   UNL     1      -2.612   4.178 -33.120  1.00  0.00     0.045 A 
HETATM   17  C   UNL     1      -3.770   3.510 -32.710  1.00  0.00     0.022 A 
ENDBRANCH   8  11
ENDBRANCH   4   7
BRANCH   1  18
HETATM   18  N   UNL     1     -12.739   1.689 -33.100  1.00  0.00    -0.042 N 
HETATM   19  H   UNL     1     -12.751   1.333 -32.136  1.00  0.00     0.286 HD
BRANCH  18  20
HETATM   20  C   UNL     1     -13.207   0.515 -33.931  1.00  0.00     0.237 C 
HETATM   21  C   UNL     1     -14.675   0.654 -34.297  1.00  0.00     0.035 C 
ENDBRANCH  18  20
BRANCH  18  22
HETATM   22  C   UNL     1     -13.673   2.877 -33.075  1.00  0.00     0.237 C 
HETATM   23  C   UNL     1     -14.319   3.127 -31.725  1.00  0.00     0.035 C 
ENDBRANCH  18  22
ENDBRANCH   1  18
TORSDOF 5
ENDMDL
MODEL 8
REMARK VINA RESULT:      -6.4      3.570      8.315
REMARK  5 active torsions:
REMARK  status: ('A' for Active; 'I' for Inactive)
REMARK    1  A    between atoms: C_2  and  N_3 
REMARK    2  A    between atoms: N_3  and  C_5 
REMARK    3  A    between atoms: N_3  and  C_21 
REMARK    4  A    between atoms: C_8  and  N_9 
REMARK       I    between atoms: N_9  and  C_10 
REMARK    5  A    between atoms: C_10  and  C_11 
ROOT
HETATM    1  C   UNL     1     -11.804   3.036 -33.264  1.00  0.00     0.134 A 
HETATM    2  C   UNL     1     -11.898   2.100 -34.292  1.00  0.00     0.039 A 
HETATM    3  C   UNL     1     -10.908   1.121 -34.445  1.00  0.00     0.032 A 
HETATM    4  C   UNL     1      -9.809   1.070 -33.587  1.00  0.00     0.035 A 
HETATM    5  C   UNL     1      -9.714   2.024 -32.566  1.00  0.00     0.032 A 
HETATM    6  C   UNL     1     -10.705   3.000 -32.401  1.00  0.00     0.039 A 
ENDROOT
BRANCH   4   7
HETATM    7  N   UNL     1      -8.778   0.108 -33.675  1.00  0.00    -0.323 N 
HETATM    8  C   UNL     1      -7.523   0.282 -34.238  1.00  0.00     0.257 C 
HETATM    9  O   UNL     1      -7.092   1.328 -34.712  1.00  0.00    -0.267 OA
HETATM   10  H   UNL     1      -8.974  -0.786 -33.245  1.00  0.00     0.169 HD
BRANCH   8  11
HETATM   11  C   UNL     1      -6.627  -0.905 -34.239  1.00  0.00     0.050 A 
HETATM   12  C   UNL     1      -5.339  -0.760 -33.732  1.00  0.00     0.135 A 
HETATM   13  N   UNL     1      -4.426  -1.761 -33.673  1.00  0.00    -0.248 NA
HETATM   14  C   UNL     1      -4.811  -2.956 -34.161  1.00  0.00     0.125 A 
HETATM   15 CL   UNL     1      -3.625  -4.188 -34.074  1.00  0.00    -0.063 Cl
HETATM   16  C   UNL     1      -6.060  -3.205 -34.706  1.00  0.00     0.045 A 
HETATM   17  C   UNL     1      -6.984  -2.157 -34.750  1.00  0.00     0.022 A 
ENDBRANCH   8  11
ENDBRANCH   4   7
BRANCH   1  18
HETATM   18  N   UNL     1     -12.837   4.073 -33.044  1.00  0.00    -0.042 N 
HETATM   19  H   UNL     1     -13.539   3.907 -33.777  1.00  0.00     0.286 HD
BRANCH  18  20
HETATM   20  C   UNL     1     -12.368   5.488 -33.298  1.00  0.00     0.237 C 
HETATM   21  C   UNL     1     -12.252   5.769 -34.787  1.00  0.00     0.035 C 
ENDBRANCH  18  20
BRANCH  18  22
HETATM   22  C   UNL     1     -13.589   3.862 -31.749  1.00  0.00     0.237 C 
HETATM   23  C   UNL     1     -14.607   2.740 -31.801  1.00  0.00     0.035 C 
ENDBRANCH  18  22
ENDBRANCH   1  18
TORSDOF 5
ENDMDL
MODEL 9
REMARK VINA RESULT:      -6.3     15.496     18.397
REMARK  5 active torsions:
REMARK  status: ('A' for Active; 'I' for Inactive)
REMARK    1  A    between atoms: C_2  and  N_3 
REMARK    2  A    between atoms: N_3  and  C_5 
REMARK    3  A    between atoms: N_3  and  C_21 
REMARK    4  A    between atoms: C_8  and  N_9 
REMARK       I    between atoms: N_9  and  C_10 
REMARK    5  A    between atoms: C_10  and  C_11 
ROOT
HETATM    1  C   UNL     1      -8.538 -13.544 -40.305  1.00  0.00     0.134 A 
HETATM    2  C   UNL     1      -7.736 -12.432 -40.557  1.00  0.00     0.039 A 
HETATM    3  C   UNL     1      -6.362 -12.481 -40.294  1.00  0.00     0.032 A 
HETATM    4  C   UNL     1      -5.772 -13.631 -39.765  1.00  0.00     0.035 A 
HETATM    5  C   UNL     1      -6.587 -14.738 -39.500  1.00  0.00     0.032 A 
HETATM    6  C   UNL     1      -7.961 -14.699 -39.771  1.00  0.00     0.039 A 
ENDROOT
BRANCH   4   7
HETATM    7  N   UNL     1      -4.393 -13.757 -39.484  1.00  0.00    -0.323 N 
HETATM    8  C   UNL     1      -3.362 -13.859 -40.405  1.00  0.00     0.257 C 
HETATM    9  O   UNL     1      -3.486 -13.808 -41.624  1.00  0.00    -0.267 OA
HETATM   10  H   UNL     1      -4.141 -13.730 -38.505  1.00  0.00     0.169 HD
BRANCH   8  11
HETATM   11  C   UNL     1      -1.992 -14.021 -39.849  1.00  0.00     0.050 A 
HETATM   12  C   UNL     1      -0.957 -14.332 -40.727  1.00  0.00     0.135 A 
HETATM   13  N   UNL     1       0.335 -14.505 -40.351  1.00  0.00    -0.248 NA
HETATM   14  C   UNL     1       0.600 -14.381 -39.037  1.00  0.00     0.125 A 
HETATM   15 CL   UNL     1       2.241 -14.614 -38.605  1.00  0.00    -0.063 Cl
HETATM   16  C   UNL     1      -0.355 -14.093 -38.076  1.00  0.00     0.045 A 
HETATM   17  C   UNL     1      -1.678 -13.915 -38.490  1.00  0.00     0.022 A 
ENDBRANCH   8  11
ENDBRANCH   4   7
BRANCH   1  18
HETATM   18  N   UNL     1      -9.990 -13.550 -40.591  1.00  0.00    -0.042 N 
HETATM   19  H   UNL     1     -10.069 -13.252 -41.572  1.00  0.00     0.286 HD
BRANCH  18  20
HETATM   20  C   UNL     1     -10.784 -12.514 -39.827  1.00  0.00     0.237 C 
HETATM   21  C   UNL     1     -10.974 -11.251 -40.651  1.00  0.00     0.035 C 
ENDBRANCH  18  20
BRANCH  18  22
HETATM   22  C   UNL     1     -10.567 -14.948 -40.576  1.00  0.00     0.237 C 
HETATM   23  C   UNL     1     -11.033 -15.438 -41.934  1.00  0.00     0.035 C 
ENDBRANCH  18  22
ENDBRANCH   1  18
TORSDOF 5
ENDMDL
MODEL 10
REMARK VINA RESULT:      -6.2      1.685      2.244
REMARK  5 active torsions:
REMARK  status: ('A' for Active; 'I' for Inactive)
REMARK    1  A    between atoms: C_2  and  N_3 
REMARK    2  A    between atoms: N_3  and  C_5 
REMARK    3  A    between atoms: N_3  and  C_21 
REMARK    4  A    between atoms: C_8  and  N_9 
REMARK       I    between atoms: N_9  and  C_10 
REMARK    5  A    between atoms: C_10  and  C_11 
ROOT
HETATM    1  C   UNL     1      -7.628   0.492 -33.626  1.00  0.00     0.134 A 
HETATM    2  C   UNL     1      -7.959   1.785 -34.026  1.00  0.00     0.039 A 
HETATM    3  C   UNL     1      -9.239   2.293 -33.770  1.00  0.00     0.032 A 
HETATM    4  C   UNL     1     -10.205   1.519 -33.126  1.00  0.00     0.035 A 
HETATM    5  C   UNL     1      -9.869   0.216 -32.741  1.00  0.00     0.032 A 
HETATM    6  C   UNL     1      -8.588  -0.296 -32.985  1.00  0.00     0.039 A 
ENDROOT
BRANCH   4   7
HETATM    7  N   UNL     1     -11.511   1.968 -32.827  1.00  0.00    -0.323 N 
HETATM    8  C   UNL     1     -12.672   1.675 -33.527  1.00  0.00     0.257 C 
HETATM    9  O   UNL     1     -12.751   0.933 -34.500  1.00  0.00    -0.267 OA
HETATM   10  H   UNL     1     -11.602   2.530 -31.992  1.00  0.00     0.169 HD
BRANCH   8  11
HETATM   11  C   UNL     1     -13.922   2.306 -33.028  1.00  0.00     0.050 A 
HETATM   12  C   UNL     1     -13.897   3.663 -32.716  1.00  0.00     0.135 A 
HETATM   13  N   UNL     1     -14.966   4.359 -32.255  1.00  0.00    -0.248 NA
HETATM   14  C   UNL     1     -16.106   3.663 -32.079  1.00  0.00     0.125 A 
HETATM   15 CL   UNL     1     -17.427   4.579 -31.488  1.00  0.00    -0.063 Cl
HETATM   16  C   UNL     1     -16.236   2.309 -32.338  1.00  0.00     0.045 A 
HETATM   17  C   UNL     1     -15.121   1.616 -32.818  1.00  0.00     0.022 A 
ENDBRANCH   8  11
ENDBRANCH   4   7
BRANCH   1  18
HETATM   18  N   UNL     1      -6.281  -0.082 -33.848  1.00  0.00    -0.042 N 
HETATM   19  H   UNL     1      -6.126  -0.009 -34.862  1.00  0.00     0.286 HD
BRANCH  18  20
HETATM   20  C   UNL     1      -6.177  -1.565 -33.567  1.00  0.00     0.237 C 
HETATM   21  C   UNL     1      -6.035  -2.359 -34.855  1.00  0.00     0.035 C 
ENDBRANCH  18  20
BRANCH  18  22
HETATM   22  C   UNL     1      -5.191   0.770 -33.239  1.00  0.00     0.237 C 
HETATM   23  C   UNL     1      -4.317   0.035 -32.241  1.00  0.00     0.035 C 
ENDBRANCH  18  22
ENDBRANCH   1  18
TORSDOF 5
ENDMDL
