MODEL 1
REMARK VINA RESULT:      -9.5      0.000      0.000
REMARK  5 active torsions:
REMARK  status: ('A' for Active; 'I' for Inactive)
REMARK    1  A    between atoms: C_7  and  C_8 
REMARK    2  A    between atoms: C_16  and  C_17 
REMARK    3  A    between atoms: C_20  and  O_21 
REMARK    4  A    between atoms: C_24  and  C_25 
REMARK       I    between atoms: C_25  and  N_26 
REMARK    5  A    between atoms: N_26  and  C_27 
ROOT
HETATM    1  C   UNL     1      -8.081   5.859 -30.780  1.00  0.00     0.070 C 
HETATM    2  C   UNL     1      -7.061   4.867 -31.290  1.00  0.00     0.037 A 
HETATM    3  N   UNL     1      -7.597   3.755 -31.934  1.00  0.00    -0.192 N 
HETATM    4  C   UNL     1      -6.862   2.710 -32.349  1.00  0.00     0.726 A 
HETATM    5  N   UNL     1      -5.509   2.761 -32.220  1.00  0.00    -0.083 N 
HETATM    6  N   UNL     1      -4.934   1.589 -32.558  1.00  0.00    -0.135 NA
HETATM    7  C   UNL     1      -6.001   0.891 -32.995  1.00  0.00     0.199 A 
HETATM    8  N   UNL     1      -7.206   1.557 -32.860  1.00  0.00    -0.041 NA
HETATM    9  C   UNL     1      -4.778   3.901 -31.660  1.00  0.00     0.202 A 
HETATM   10  C   UNL     1      -5.714   4.988 -31.127  1.00  0.00     0.062 A 
HETATM   11  H   UNL     1      -8.609   3.693 -32.004  1.00  0.00     0.184 HD
ENDROOT
BRANCH  10  12
HETATM   12  C   UNL     1      -5.125   6.205 -30.461  1.00  0.00     0.256 C 
HETATM   13  N   UNL     1      -4.968   7.315 -31.270  1.00  0.00    -0.323 N 
HETATM   14  H   UNL     1      -5.365   7.313 -32.195  1.00  0.00     0.169 HD
HETATM   15  O   UNL     1      -4.857   6.174 -29.264  1.00  0.00    -0.267 OA
BRANCH  13  16
HETATM   16  C   UNL     1      -4.348   8.538 -30.922  1.00  0.00     0.035 A 
HETATM   17  C   UNL     1      -5.032   9.655 -30.442  1.00  0.00     0.029 A 
HETATM   18  C   UNL     1      -4.336  10.816 -30.088  1.00  0.00     0.002 A 
HETATM   19  C   UNL     1      -2.950  10.872 -30.218  1.00  0.00     0.000 A 
HETATM   20  C   UNL     1      -2.257   9.765 -30.697  1.00  0.00     0.002 A 
HETATM   21  C   UNL     1      -2.952   8.602 -31.042  1.00  0.00     0.029 A 
ENDBRANCH  13  16
ENDBRANCH  10  12
BRANCH   9  22
HETATM   22  C   UNL     1      -3.761   4.399 -32.686  1.00  0.00    -0.028 A 
HETATM   23  C   UNL     1      -4.152   4.847 -33.960  1.00  0.00     0.012 A 
HETATM   24  C   UNL     1      -3.197   5.269 -34.890  1.00  0.00     0.037 A 
HETATM   25  C   UNL     1      -1.849   5.232 -34.554  1.00  0.00     0.065 A 
HETATM   26  C   UNL     1      -1.438   4.782 -33.306  1.00  0.00     0.037 A 
HETATM   27  C   UNL     1      -2.390   4.363 -32.376  1.00  0.00     0.012 A 
BRANCH  25  28
HETATM   28  O   UNL     1      -0.885   5.624 -35.435  1.00  0.00    -0.361 OA
HETATM   29  H   UNL     1      -0.695   6.564 -35.289  1.00  0.00     0.217 HD
ENDBRANCH  25  28
ENDBRANCH   9  22
BRANCH   7  30
HETATM   30  C   UNL     1      -5.914  -0.458 -33.549  1.00  0.00     0.014 A 
HETATM   31  C   UNL     1      -7.057  -1.112 -34.034  1.00  0.00     0.017 A 
HETATM   32  C   UNL     1      -6.970  -2.407 -34.557  1.00  0.00     0.025 A 
HETATM   33  C   UNL     1      -5.738  -3.055 -34.596  1.00  0.00     0.034 A 
HETATM   34 CL   UNL     1      -5.631  -4.648 -35.236  1.00  0.00    -0.084 Cl
HETATM   35  C   UNL     1      -4.593  -2.420 -34.119  1.00  0.00     0.025 A 
HETATM   36  C   UNL     1      -4.681  -1.127 -33.597  1.00  0.00     0.017 A 
ENDBRANCH   7  30
TORSDOF 5
ENDMDL
MODEL 2
REMARK VINA RESULT:      -9.4      1.698      2.098
REMARK  5 active torsions:
REMARK  status: ('A' for Active; 'I' for Inactive)
REMARK    1  A    between atoms: C_7  and  C_8 
REMARK    2  A    between atoms: C_16  and  C_17 
REMARK    3  A    between atoms: C_20  and  O_21 
REMARK    4  A    between atoms: C_24  and  C_25 
REMARK       I    between atoms: C_25  and  N_26 
REMARK    5  A    between atoms: N_26  and  C_27 
ROOT
HETATM    1  C   UNL     1      -7.814   5.963 -30.471  1.00  0.00     0.070 C 
HETATM    2  C   UNL     1      -6.843   4.955 -31.042  1.00  0.00     0.037 A 
HETATM    3  N   UNL     1      -7.434   3.872 -31.688  1.00  0.00    -0.192 N 
HETATM    4  C   UNL     1      -6.746   2.817 -32.153  1.00  0.00     0.726 A 
HETATM    5  N   UNL     1      -5.388   2.829 -32.077  1.00  0.00    -0.083 N 
HETATM    6  N   UNL     1      -4.859   1.650 -32.462  1.00  0.00    -0.135 NA
HETATM    7  C   UNL     1      -5.961   0.990 -32.870  1.00  0.00     0.199 A 
HETATM    8  N   UNL     1      -7.142   1.686 -32.674  1.00  0.00    -0.041 NA
HETATM    9  C   UNL     1      -4.604   3.937 -31.523  1.00  0.00     0.202 A 
HETATM   10  C   UNL     1      -5.488   5.036 -30.930  1.00  0.00     0.062 A 
HETATM   11  H   UNL     1      -8.450   3.839 -31.718  1.00  0.00     0.184 HD
ENDROOT
BRANCH  10  12
HETATM   12  C   UNL     1      -4.839   6.222 -30.263  1.00  0.00     0.256 C 
HETATM   13  N   UNL     1      -4.408   6.020 -28.965  1.00  0.00    -0.323 N 
HETATM   14  H   UNL     1      -4.415   5.090 -28.581  1.00  0.00     0.169 HD
HETATM   15  O   UNL     1      -4.690   7.266 -30.890  1.00  0.00    -0.267 OA
BRANCH  13  16
HETATM   16  C   UNL     1      -3.868   6.991 -28.090  1.00  0.00     0.035 A 
HETATM   17  C   UNL     1      -2.566   7.486 -28.175  1.00  0.00     0.029 A 
HETATM   18  C   UNL     1      -2.122   8.472 -27.287  1.00  0.00     0.002 A 
HETATM   19  C   UNL     1      -2.974   8.968 -26.303  1.00  0.00     0.000 A 
HETATM   20  C   UNL     1      -4.274   8.481 -26.208  1.00  0.00     0.002 A 
HETATM   21  C   UNL     1      -4.720   7.502 -27.100  1.00  0.00     0.029 A 
ENDBRANCH  13  16
ENDBRANCH  10  12
BRANCH   9  22
HETATM   22  C   UNL     1      -3.614   4.429 -32.577  1.00  0.00    -0.028 A 
HETATM   23  C   UNL     1      -4.034   4.828 -33.859  1.00  0.00     0.012 A 
HETATM   24  C   UNL     1      -3.104   5.246 -34.814  1.00  0.00     0.037 A 
HETATM   25  C   UNL     1      -1.750   5.253 -34.497  1.00  0.00     0.065 A 
HETATM   26  C   UNL     1      -1.311   4.852 -33.243  1.00  0.00     0.037 A 
HETATM   27  C   UNL     1      -2.238   4.437 -32.287  1.00  0.00     0.012 A 
BRANCH  25  28
HETATM   28  O   UNL     1      -0.809   5.643 -35.404  1.00  0.00    -0.361 OA
HETATM   29  H   UNL     1      -0.553   4.873 -35.935  1.00  0.00     0.217 HD
ENDBRANCH  25  28
ENDBRANCH   9  22
BRANCH   7  30
HETATM   30  C   UNL     1      -5.933  -0.348 -33.455  1.00  0.00     0.014 A 
HETATM   31  C   UNL     1      -4.726  -1.054 -33.580  1.00  0.00     0.017 A 
HETATM   32  C   UNL     1      -4.704  -2.332 -34.148  1.00  0.00     0.025 A 
HETATM   33  C   UNL     1      -5.890  -2.912 -34.595  1.00  0.00     0.034 A 
HETATM   34 CL   UNL     1      -5.862  -4.482 -35.296  1.00  0.00    -0.084 Cl
HETATM   35  C   UNL     1      -7.096  -2.225 -34.477  1.00  0.00     0.025 A 
HETATM   36  C   UNL     1      -7.117  -0.948 -33.910  1.00  0.00     0.017 A 
ENDBRANCH   7  30
TORSDOF 5
ENDMDL
MODEL 3
REMARK VINA RESULT:      -8.9      1.781      2.371
REMARK  5 active torsions:
REMARK  status: ('A' for Active; 'I' for Inactive)
REMARK    1  A    between atoms: C_7  and  C_8 
REMARK    2  A    between atoms: C_16  and  C_17 
REMARK    3  A    between atoms: C_20  and  O_21 
REMARK    4  A    between atoms: C_24  and  C_25 
REMARK       I    between atoms: C_25  and  N_26 
REMARK    5  A    between atoms: N_26  and  C_27 
ROOT
HETATM    1  C   UNL     1      -9.326   5.444 -33.161  1.00  0.00     0.070 C 
HETATM    2  C   UNL     1      -8.152   4.492 -33.137  1.00  0.00     0.037 A 
HETATM    3  N   UNL     1      -8.384   3.259 -33.742  1.00  0.00    -0.192 N 
HETATM    4  C   UNL     1      -7.508   2.242 -33.717  1.00  0.00     0.726 A 
HETATM    5  N   UNL     1      -6.287   2.435 -33.150  1.00  0.00    -0.083 N 
HETATM    6  N   UNL     1      -5.582   1.288 -33.087  1.00  0.00    -0.135 NA
HETATM    7  C   UNL     1      -6.401   0.442 -33.743  1.00  0.00     0.199 A 
HETATM    8  N   UNL     1      -7.605   1.005 -34.127  1.00  0.00    -0.041 NA
HETATM    9  C   UNL     1      -5.844   3.703 -32.562  1.00  0.00     0.202 A 
HETATM   10  C   UNL     1      -6.951   4.758 -32.551  1.00  0.00     0.062 A 
HETATM   11  H   UNL     1      -9.306   3.095 -34.137  1.00  0.00     0.184 HD
ENDROOT
BRANCH  10  12
HETATM   12  C   UNL     1      -6.681   6.102 -31.924  1.00  0.00     0.256 C 
HETATM   13  N   UNL     1      -6.743   6.145 -30.544  1.00  0.00    -0.323 N 
HETATM   14  H   UNL     1      -6.823   5.286 -30.026  1.00  0.00     0.169 HD
HETATM   15  O   UNL     1      -6.388   7.057 -32.637  1.00  0.00    -0.267 OA
BRANCH  13  16
HETATM   16  C   UNL     1      -6.634   7.293 -29.725  1.00  0.00     0.035 A 
HETATM   17  C   UNL     1      -5.425   7.809 -29.254  1.00  0.00     0.029 A 
HETATM   18  C   UNL     1      -5.405   8.971 -28.475  1.00  0.00     0.002 A 
HETATM   19  C   UNL     1      -6.593   9.624 -28.155  1.00  0.00     0.000 A 
HETATM   20  C   UNL     1      -7.803   9.118 -28.618  1.00  0.00     0.002 A 
HETATM   21  C   UNL     1      -7.823   7.963 -29.403  1.00  0.00     0.029 A 
ENDBRANCH  13  16
ENDBRANCH  10  12
BRANCH   9  22
HETATM   22  C   UNL     1      -4.556   4.153 -33.249  1.00  0.00    -0.028 A 
HETATM   23  C   UNL     1      -3.299   4.014 -32.635  1.00  0.00     0.012 A 
HETATM   24  C   UNL     1      -2.140   4.461 -33.274  1.00  0.00     0.037 A 
HETATM   25  C   UNL     1      -2.235   5.061 -34.524  1.00  0.00     0.065 A 
HETATM   26  C   UNL     1      -3.466   5.221 -35.146  1.00  0.00     0.037 A 
HETATM   27  C   UNL     1      -4.624   4.773 -34.511  1.00  0.00     0.012 A 
BRANCH  25  28
HETATM   28  O   UNL     1      -1.130   5.522 -35.178  1.00  0.00    -0.361 OA
HETATM   29  H   UNL     1      -1.235   6.474 -35.332  1.00  0.00     0.217 HD
ENDBRANCH  25  28
ENDBRANCH   9  22
BRANCH   7  30
HETATM   30  C   UNL     1      -6.071  -0.955 -34.017  1.00  0.00     0.014 A 
HETATM   31  C   UNL     1      -7.045  -1.842 -34.502  1.00  0.00     0.017 A 
HETATM   32  C   UNL     1      -6.726  -3.181 -34.756  1.00  0.00     0.025 A 
HETATM   33  C   UNL     1      -5.430  -3.638 -34.527  1.00  0.00     0.034 A 
HETATM   34 CL   UNL     1      -5.038  -5.284 -34.837  1.00  0.00    -0.084 Cl
HETATM   35  C   UNL     1      -4.452  -2.771 -34.048  1.00  0.00     0.025 A 
HETATM   36  C   UNL     1      -4.771  -1.433 -33.793  1.00  0.00     0.017 A 
ENDBRANCH   7  30
TORSDOF 5
ENDMDL
MODEL 4
REMARK VINA RESULT:      -8.8      4.803      9.471
REMARK  5 active torsions:
REMARK  status: ('A' for Active; 'I' for Inactive)
REMARK    1  A    between atoms: C_7  and  C_8 
REMARK    2  A    between atoms: C_16  and  C_17 
REMARK    3  A    between atoms: C_20  and  O_21 
REMARK    4  A    between atoms: C_24  and  C_25 
REMARK       I    between atoms: C_25  and  N_26 
REMARK    5  A    between atoms: N_26  and  C_27 
ROOT
HETATM    1  C   UNL     1      -3.512   2.182 -31.781  1.00  0.00     0.070 C 
HETATM    2  C   UNL     1      -4.949   2.506 -31.445  1.00  0.00     0.037 A 
HETATM    3  N   UNL     1      -5.187   3.835 -31.105  1.00  0.00    -0.192 N 
HETATM    4  C   UNL     1      -6.370   4.289 -30.662  1.00  0.00     0.726 A 
HETATM    5  N   UNL     1      -7.430   3.438 -30.618  1.00  0.00    -0.083 N 
HETATM    6  N   UNL     1      -8.501   4.009 -30.029  1.00  0.00    -0.135 NA
HETATM    7  C   UNL     1      -8.053   5.264 -29.833  1.00  0.00     0.199 A 
HETATM    8  N   UNL     1      -6.732   5.457 -30.201  1.00  0.00    -0.041 NA
HETATM    9  C   UNL     1      -7.377   2.035 -31.039  1.00  0.00     0.202 A 
HETATM   10  C   UNL     1      -5.964   1.596 -31.426  1.00  0.00     0.062 A 
HETATM   11  H   UNL     1      -4.392   4.469 -31.101  1.00  0.00     0.184 HD
ENDROOT
BRANCH  10  12
HETATM   12  C   UNL     1      -5.722   0.163 -31.826  1.00  0.00     0.256 C 
HETATM   13  N   UNL     1      -5.754  -0.095 -33.183  1.00  0.00    -0.323 N 
HETATM   14  H   UNL     1      -5.796   0.673 -33.832  1.00  0.00     0.169 HD
HETATM   15  O   UNL     1      -5.475  -0.675 -30.965  1.00  0.00    -0.267 OA
BRANCH  13  16
HETATM   16  C   UNL     1      -5.663  -1.361 -33.809  1.00  0.00     0.035 A 
HETATM   17  C   UNL     1      -4.463  -2.025 -34.064  1.00  0.00     0.029 A 
HETATM   18  C   UNL     1      -4.464  -3.292 -34.658  1.00  0.00     0.002 A 
HETATM   19  C   UNL     1      -5.666  -3.904 -35.006  1.00  0.00     0.000 A 
HETATM   20  C   UNL     1      -6.869  -3.250 -34.757  1.00  0.00     0.002 A 
HETATM   21  C   UNL     1      -6.868  -1.989 -34.156  1.00  0.00     0.029 A 
ENDBRANCH  13  16
ENDBRANCH  10  12
BRANCH   9  22
HETATM   22  C   UNL     1      -8.427   1.796 -32.122  1.00  0.00    -0.028 A 
HETATM   23  C   UNL     1      -9.292   0.687 -32.085  1.00  0.00     0.012 A 
HETATM   24  C   UNL     1     -10.223   0.476 -33.106  1.00  0.00     0.037 A 
HETATM   25  C   UNL     1     -10.284   1.364 -34.173  1.00  0.00     0.065 A 
HETATM   26  C   UNL     1      -9.432   2.458 -34.238  1.00  0.00     0.037 A 
HETATM   27  C   UNL     1      -8.504   2.673 -33.219  1.00  0.00     0.012 A 
BRANCH  25  28
HETATM   28  O   UNL     1     -11.170   1.188 -35.195  1.00  0.00    -0.361 OA
HETATM   29  H   UNL     1     -10.771   0.597 -35.853  1.00  0.00     0.217 HD
ENDBRANCH  25  28
ENDBRANCH   9  22
BRANCH   7  30
HETATM   30  C   UNL     1      -8.868   6.336 -29.266  1.00  0.00     0.014 A 
HETATM   31  C   UNL     1      -8.568   6.880 -28.007  1.00  0.00     0.017 A 
HETATM   32  C   UNL     1      -9.357   7.901 -27.466  1.00  0.00     0.025 A 
HETATM   33  C   UNL     1     -10.450   8.383 -28.181  1.00  0.00     0.034 A 
HETATM   34 CL   UNL     1     -11.422   9.637 -27.515  1.00  0.00    -0.084 Cl
HETATM   35  C   UNL     1     -10.761   7.855 -29.432  1.00  0.00     0.025 A 
HETATM   36  C   UNL     1      -9.973   6.834 -29.972  1.00  0.00     0.017 A 
ENDBRANCH   7  30
TORSDOF 5
ENDMDL
MODEL 5
REMARK VINA RESULT:      -8.7      3.702      6.018
REMARK  5 active torsions:
REMARK  status: ('A' for Active; 'I' for Inactive)
REMARK    1  A    between atoms: C_7  and  C_8 
REMARK    2  A    between atoms: C_16  and  C_17 
REMARK    3  A    between atoms: C_20  and  O_21 
REMARK    4  A    between atoms: C_24  and  C_25 
REMARK       I    between atoms: C_25  and  N_26 
REMARK    5  A    between atoms: N_26  and  C_27 
ROOT
HETATM    1  C   UNL     1      -4.211   0.081 -32.700  1.00  0.00     0.070 C 
HETATM    2  C   UNL     1      -5.495   0.878 -32.744  1.00  0.00     0.037 A 
HETATM    3  N   UNL     1      -6.652   0.117 -32.890  1.00  0.00    -0.192 N 
HETATM    4  C   UNL     1      -7.873   0.647 -33.068  1.00  0.00     0.726 A 
HETATM    5  N   UNL     1      -8.021   1.998 -33.020  1.00  0.00    -0.083 N 
HETATM    6  N   UNL     1      -9.274   2.372 -33.348  1.00  0.00    -0.135 NA
HETATM    7  C   UNL     1      -9.878   1.175 -33.481  1.00  0.00     0.199 A 
HETATM    8  N   UNL     1      -9.028   0.093 -33.329  1.00  0.00    -0.041 NA
HETATM    9  C   UNL     1      -6.923   2.937 -32.771  1.00  0.00     0.202 A 
HETATM   10  C   UNL     1      -5.565   2.237 -32.685  1.00  0.00     0.062 A 
HETATM   11  H   UNL     1      -6.547  -0.891 -32.962  1.00  0.00     0.184 HD
ENDROOT
BRANCH  10  12
HETATM   12  C   UNL     1      -4.321   3.065 -32.493  1.00  0.00     0.256 C 
HETATM   13  N   UNL     1      -4.184   4.150 -33.339  1.00  0.00    -0.323 N 
HETATM   14  H   UNL     1      -4.955   4.416 -33.930  1.00  0.00     0.169 HD
HETATM   15  O   UNL     1      -3.531   2.777 -31.600  1.00  0.00    -0.267 OA
BRANCH  13  16
HETATM   16  C   UNL     1      -3.071   5.016 -33.435  1.00  0.00     0.035 A 
HETATM   17  C   UNL     1      -2.115   4.956 -34.450  1.00  0.00     0.029 A 
HETATM   18  C   UNL     1      -1.061   5.875 -34.490  1.00  0.00     0.002 A 
HETATM   19  C   UNL     1      -0.950   6.860 -33.511  1.00  0.00     0.000 A 
HETATM   20  C   UNL     1      -1.896   6.929 -32.493  1.00  0.00     0.002 A 
HETATM   21  C   UNL     1      -2.954   6.016 -32.459  1.00  0.00     0.029 A 
ENDBRANCH  13  16
ENDBRANCH  10  12
BRANCH   9  22
HETATM   22  C   UNL     1      -7.263   3.796 -31.555  1.00  0.00    -0.028 A 
HETATM   23  C   UNL     1      -7.280   3.265 -30.253  1.00  0.00     0.012 A 
HETATM   24  C   UNL     1      -7.623   4.066 -29.161  1.00  0.00     0.037 A 
HETATM   25  C   UNL     1      -7.965   5.397 -29.367  1.00  0.00     0.065 A 
HETATM   26  C   UNL     1      -7.968   5.942 -30.644  1.00  0.00     0.037 A 
HETATM   27  C   UNL     1      -7.622   5.144 -31.736  1.00  0.00     0.012 A 
BRANCH  25  28
HETATM   28  O   UNL     1      -8.317   6.210 -28.331  1.00  0.00    -0.361 OA
HETATM   29  H   UNL     1      -8.981   5.753 -27.790  1.00  0.00     0.217 HD
ENDBRANCH  25  28
ENDBRANCH   9  22
BRANCH   7  30
HETATM   30  C   UNL     1     -11.299   1.014 -33.776  1.00  0.00     0.014 A 
HETATM   31  C   UNL     1     -12.003   1.999 -34.488  1.00  0.00     0.017 A 
HETATM   32  C   UNL     1     -13.366   1.844 -34.761  1.00  0.00     0.025 A 
HETATM   33  C   UNL     1     -14.033   0.702 -34.325  1.00  0.00     0.034 A 
HETATM   34 CL   UNL     1     -15.710   0.512 -34.659  1.00  0.00    -0.084 Cl
HETATM   35  C   UNL     1     -13.350  -0.286 -33.619  1.00  0.00     0.025 A 
HETATM   36  C   UNL     1     -11.988  -0.129 -33.345  1.00  0.00     0.017 A 
ENDBRANCH   7  30
TORSDOF 5
ENDMDL
MODEL 6
REMARK VINA RESULT:      -8.7      4.948      7.351
REMARK  5 active torsions:
REMARK  status: ('A' for Active; 'I' for Inactive)
REMARK    1  A    between atoms: C_7  and  C_8 
REMARK    2  A    between atoms: C_16  and  C_17 
REMARK    3  A    between atoms: C_20  and  O_21 
REMARK    4  A    between atoms: C_24  and  C_25 
REMARK       I    between atoms: C_25  and  N_26 
REMARK    5  A    between atoms: N_26  and  C_27 
ROOT
HETATM    1  C   UNL     1      -8.869   5.525 -31.579  1.00  0.00     0.070 C 
HETATM    2  C   UNL     1      -8.892   4.257 -32.402  1.00  0.00     0.037 A 
HETATM    3  N   UNL     1      -7.962   3.294 -32.020  1.00  0.00    -0.192 N 
HETATM    4  C   UNL     1      -7.748   2.155 -32.699  1.00  0.00     0.726 A 
HETATM    5  N   UNL     1      -8.533   1.870 -33.773  1.00  0.00    -0.083 N 
HETATM    6  N   UNL     1      -8.107   0.766 -34.419  1.00  0.00    -0.135 NA
HETATM    7  C   UNL     1      -7.108   0.359 -33.612  1.00  0.00     0.199 A 
HETATM    8  N   UNL     1      -6.856   1.212 -32.550  1.00  0.00    -0.041 NA
HETATM    9  C   UNL     1      -9.625   2.726 -34.245  1.00  0.00     0.202 A 
HETATM   10  C   UNL     1      -9.714   4.039 -33.466  1.00  0.00     0.062 A 
HETATM   11  H   UNL     1      -7.349   3.515 -31.240  1.00  0.00     0.184 HD
ENDROOT
BRANCH  10  12
HETATM   12  C   UNL     1     -10.747   5.063 -33.865  1.00  0.00     0.256 C 
HETATM   13  N   UNL     1     -10.586   5.622 -35.118  1.00  0.00    -0.323 N 
HETATM   14  H   UNL     1      -9.898   5.238 -35.746  1.00  0.00     0.169 HD
HETATM   15  O   UNL     1     -11.675   5.318 -33.104  1.00  0.00    -0.267 OA
BRANCH  13  16
HETATM   16  C   UNL     1     -11.348   6.670 -35.684  1.00  0.00     0.035 A 
HETATM   17  C   UNL     1     -10.831   7.923 -36.020  1.00  0.00     0.029 A 
HETATM   18  C   UNL     1     -11.649   8.893 -36.609  1.00  0.00     0.002 A 
HETATM   19  C   UNL     1     -12.992   8.623 -36.862  1.00  0.00     0.000 A 
HETATM   20  C   UNL     1     -13.518   7.378 -36.530  1.00  0.00     0.002 A 
HETATM   21  C   UNL     1     -12.699   6.406 -35.950  1.00  0.00     0.029 A 
ENDBRANCH  13  16
ENDBRANCH  10  12
BRANCH   9  22
HETATM   22  C   UNL     1     -10.923   1.920 -34.264  1.00  0.00    -0.028 A 
HETATM   23  C   UNL     1     -12.010   2.284 -35.078  1.00  0.00     0.012 A 
HETATM   24  C   UNL     1     -13.197   1.546 -35.054  1.00  0.00     0.037 A 
HETATM   25  C   UNL     1     -13.305   0.449 -34.206  1.00  0.00     0.065 A 
HETATM   26  C   UNL     1     -12.250   0.078 -33.385  1.00  0.00     0.037 A 
HETATM   27  C   UNL     1     -11.064   0.812 -33.409  1.00  0.00     0.012 A 
BRANCH  25  28
HETATM   28  O   UNL     1     -14.449  -0.291 -34.144  1.00  0.00    -0.361 OA
HETATM   29  H   UNL     1     -14.708  -0.383 -33.213  1.00  0.00     0.217 HD
ENDBRANCH  25  28
ENDBRANCH   9  22
BRANCH   7  30
HETATM   30  C   UNL     1      -6.335  -0.861 -33.830  1.00  0.00     0.014 A 
HETATM   31  C   UNL     1      -6.874  -1.933 -34.559  1.00  0.00     0.017 A 
HETATM   32  C   UNL     1      -6.133  -3.103 -34.759  1.00  0.00     0.025 A 
HETATM   33  C   UNL     1      -4.848  -3.206 -34.231  1.00  0.00     0.034 A 
HETATM   34 CL   UNL     1      -3.939  -4.646 -34.475  1.00  0.00    -0.084 Cl
HETATM   35  C   UNL     1      -4.298  -2.152 -33.507  1.00  0.00     0.025 A 
HETATM   36  C   UNL     1      -5.040  -0.983 -33.307  1.00  0.00     0.017 A 
ENDBRANCH   7  30
TORSDOF 5
ENDMDL
MODEL 7
REMARK VINA RESULT:      -8.6      3.403      5.260
REMARK  5 active torsions:
REMARK  status: ('A' for Active; 'I' for Inactive)
REMARK    1  A    between atoms: C_7  and  C_8 
REMARK    2  A    between atoms: C_16  and  C_17 
REMARK    3  A    between atoms: C_20  and  O_21 
REMARK    4  A    between atoms: C_24  and  C_25 
REMARK       I    between atoms: C_25  and  N_26 
REMARK    5  A    between atoms: N_26  and  C_27 
ROOT
HETATM    1  C   UNL     1      -3.251   0.872 -31.490  1.00  0.00     0.070 C 
HETATM    2  C   UNL     1      -4.472   1.631 -31.958  1.00  0.00     0.037 A 
HETATM    3  N   UNL     1      -5.661   0.908 -31.923  1.00  0.00    -0.192 N 
HETATM    4  C   UNL     1      -6.826   1.367 -32.408  1.00  0.00     0.726 A 
HETATM    5  N   UNL     1      -6.887   2.639 -32.887  1.00  0.00    -0.083 N 
HETATM    6  N   UNL     1      -8.081   2.899 -33.454  1.00  0.00    -0.135 NA
HETATM    7  C   UNL     1      -8.751   1.760 -33.188  1.00  0.00     0.199 A 
HETATM    8  N   UNL     1      -7.990   0.792 -32.556  1.00  0.00    -0.041 NA
HETATM    9  C   UNL     1      -5.753   3.569 -32.900  1.00  0.00     0.202 A 
HETATM   10  C   UNL     1      -4.456   2.912 -32.422  1.00  0.00     0.062 A 
HETATM   11  H   UNL     1      -5.617  -0.055 -31.600  1.00  0.00     0.184 HD
ENDROOT
BRANCH  10  12
HETATM   12  C   UNL     1      -3.179   3.713 -32.431  1.00  0.00     0.256 C 
HETATM   13  N   UNL     1      -2.854   4.338 -31.242  1.00  0.00    -0.323 N 
HETATM   14  H   UNL     1      -3.384   4.129 -30.412  1.00  0.00     0.169 HD
HETATM   15  O   UNL     1      -2.487   3.743 -33.444  1.00  0.00    -0.267 OA
BRANCH  13  16
HETATM   16  C   UNL     1      -1.776   5.226 -31.017  1.00  0.00     0.035 A 
HETATM   17  C   UNL     1      -0.456   4.821 -30.809  1.00  0.00     0.029 A 
HETATM   18  C   UNL     1       0.557   5.768 -30.627  1.00  0.00     0.002 A 
HETATM   19  C   UNL     1       0.260   7.129 -30.647  1.00  0.00     0.000 A 
HETATM   20  C   UNL     1      -1.053   7.544 -30.852  1.00  0.00     0.002 A 
HETATM   21  C   UNL     1      -2.063   6.598 -31.042  1.00  0.00     0.029 A 
ENDBRANCH  13  16
ENDBRANCH  10  12
BRANCH   9  22
HETATM   22  C   UNL     1      -6.133   4.835 -32.135  1.00  0.00    -0.028 A 
HETATM   23  C   UNL     1      -6.113   6.103 -32.744  1.00  0.00     0.012 A 
HETATM   24  C   UNL     1      -6.437   7.249 -32.012  1.00  0.00     0.037 A 
HETATM   25  C   UNL     1      -6.768   7.133 -30.667  1.00  0.00     0.065 A 
HETATM   26  C   UNL     1      -6.783   5.895 -30.041  1.00  0.00     0.037 A 
HETATM   27  C   UNL     1      -6.462   4.749 -30.770  1.00  0.00     0.012 A 
BRANCH  25  28
HETATM   28  O   UNL     1      -7.079   8.228 -29.915  1.00  0.00    -0.361 OA
HETATM   29  H   UNL     1      -7.142   7.957 -28.985  1.00  0.00     0.217 HD
ENDBRANCH  25  28
ENDBRANCH   9  22
BRANCH   7  30
HETATM   30  C   UNL     1     -10.151   1.542 -33.542  1.00  0.00     0.014 A 
HETATM   31  C   UNL     1     -10.873   2.514 -34.253  1.00  0.00     0.017 A 
HETATM   32  C   UNL     1     -12.216   2.304 -34.583  1.00  0.00     0.025 A 
HETATM   33  C   UNL     1     -12.845   1.120 -34.203  1.00  0.00     0.034 A 
HETATM   34 CL   UNL     1     -14.497   0.863 -34.606  1.00  0.00    -0.084 Cl
HETATM   35  C   UNL     1     -12.143   0.146 -33.497  1.00  0.00     0.025 A 
HETATM   36  C   UNL     1     -10.801   0.357 -33.167  1.00  0.00     0.017 A 
ENDBRANCH   7  30
TORSDOF 5
ENDMDL
MODEL 8
REMARK VINA RESULT:      -8.6      3.766      6.515
REMARK  5 active torsions:
REMARK  status: ('A' for Active; 'I' for Inactive)
REMARK    1  A    between atoms: C_7  and  C_8 
REMARK    2  A    between atoms: C_16  and  C_17 
REMARK    3  A    between atoms: C_20  and  O_21 
REMARK    4  A    between atoms: C_24  and  C_25 
REMARK       I    between atoms: C_25  and  N_26 
REMARK    5  A    between atoms: N_26  and  C_27 
ROOT
HETATM    1  C   UNL     1     -11.384   3.556 -35.092  1.00  0.00     0.070 C 
HETATM    2  C   UNL     1     -10.331   2.854 -34.265  1.00  0.00     0.037 A 
HETATM    3  N   UNL     1      -9.539   1.951 -34.968  1.00  0.00    -0.192 N 
HETATM    4  C   UNL     1      -8.633   1.147 -34.388  1.00  0.00     0.726 A 
HETATM    5  N   UNL     1      -8.401   1.268 -33.053  1.00  0.00    -0.083 N 
HETATM    6  N   UNL     1      -7.568   0.307 -32.605  1.00  0.00    -0.135 NA
HETATM    7  C   UNL     1      -7.239  -0.311 -33.756  1.00  0.00     0.199 A 
HETATM    8  N   UNL     1      -7.898   0.180 -34.870  1.00  0.00    -0.041 NA
HETATM    9  C   UNL     1      -9.073   2.240 -32.186  1.00  0.00     0.202 A 
HETATM   10  C   UNL     1     -10.154   3.031 -32.926  1.00  0.00     0.062 A 
HETATM   11  H   UNL     1      -9.730   1.829 -35.959  1.00  0.00     0.184 HD
ENDROOT
BRANCH  10  12
HETATM   12  C   UNL     1     -10.984   4.032 -32.164  1.00  0.00     0.256 C 
HETATM   13  N   UNL     1     -12.258   3.620 -31.822  1.00  0.00    -0.323 N 
HETATM   14  H   UNL     1     -12.521   2.659 -31.963  1.00  0.00     0.169 HD
HETATM   15  O   UNL     1     -10.499   5.116 -31.856  1.00  0.00    -0.267 OA
BRANCH  13  16
HETATM   16  C   UNL     1     -13.265   4.398 -31.204  1.00  0.00     0.035 A 
HETATM   17  C   UNL     1     -13.198   4.870 -29.893  1.00  0.00     0.029 A 
HETATM   18  C   UNL     1     -14.225   5.663 -29.370  1.00  0.00     0.002 A 
HETATM   19  C   UNL     1     -15.331   5.988 -30.153  1.00  0.00     0.000 A 
HETATM   20  C   UNL     1     -15.409   5.522 -31.462  1.00  0.00     0.002 A 
HETATM   21  C   UNL     1     -14.379   4.736 -31.986  1.00  0.00     0.029 A 
ENDBRANCH  13  16
ENDBRANCH  10  12
BRANCH   9  22
HETATM   22  C   UNL     1      -8.022   3.109 -31.497  1.00  0.00    -0.028 A 
HETATM   23  C   UNL     1      -7.067   3.838 -32.228  1.00  0.00     0.012 A 
HETATM   24  C   UNL     1      -6.098   4.601 -31.571  1.00  0.00     0.037 A 
HETATM   25  C   UNL     1      -6.073   4.628 -30.181  1.00  0.00     0.065 A 
HETATM   26  C   UNL     1      -6.998   3.908 -29.438  1.00  0.00     0.037 A 
HETATM   27  C   UNL     1      -7.967   3.147 -30.092  1.00  0.00     0.012 A 
BRANCH  25  28
HETATM   28  O   UNL     1      -5.138   5.351 -29.501  1.00  0.00    -0.361 OA
HETATM   29  H   UNL     1      -4.619   5.866 -30.140  1.00  0.00     0.217 HD
ENDBRANCH  25  28
ENDBRANCH   9  22
BRANCH   7  30
HETATM   30  C   UNL     1      -6.286  -1.415 -33.838  1.00  0.00     0.014 A 
HETATM   31  C   UNL     1      -5.048  -1.348 -33.178  1.00  0.00     0.017 A 
HETATM   32  C   UNL     1      -4.136  -2.405 -33.267  1.00  0.00     0.025 A 
HETATM   33  C   UNL     1      -4.456  -3.535 -34.016  1.00  0.00     0.034 A 
HETATM   34 CL   UNL     1      -3.333  -4.833 -34.127  1.00  0.00    -0.084 Cl
HETATM   35  C   UNL     1      -5.680  -3.618 -34.676  1.00  0.00     0.025 A 
HETATM   36  C   UNL     1      -6.591  -2.561 -34.588  1.00  0.00     0.017 A 
ENDBRANCH   7  30
TORSDOF 5
ENDMDL
MODEL 9
REMARK VINA RESULT:      -8.5      4.059      9.220
REMARK  5 active torsions:
REMARK  status: ('A' for Active; 'I' for Inactive)
REMARK    1  A    between atoms: C_7  and  C_8 
REMARK    2  A    between atoms: C_16  and  C_17 
REMARK    3  A    between atoms: C_20  and  O_21 
REMARK    4  A    between atoms: C_24  and  C_25 
REMARK       I    between atoms: C_25  and  N_26 
REMARK    5  A    between atoms: N_26  and  C_27 
ROOT
HETATM    1  C   UNL     1      -3.971   5.180 -35.300  1.00  0.00     0.070 C 
HETATM    2  C   UNL     1      -3.871   5.394 -33.807  1.00  0.00     0.037 A 
HETATM    3  N   UNL     1      -2.963   6.374 -33.415  1.00  0.00    -0.192 N 
HETATM    4  C   UNL     1      -2.647   6.625 -32.134  1.00  0.00     0.726 A 
HETATM    5  N   UNL     1      -3.304   5.957 -31.148  1.00  0.00    -0.083 N 
HETATM    6  N   UNL     1      -2.782   6.224 -29.934  1.00  0.00    -0.135 NA
HETATM    7  C   UNL     1      -1.865   7.162 -30.245  1.00  0.00     0.199 A 
HETATM    8  N   UNL     1      -1.752   7.414 -31.601  1.00  0.00    -0.041 NA
HETATM    9  C   UNL     1      -4.362   4.970 -31.386  1.00  0.00     0.202 A 
HETATM   10  C   UNL     1      -4.568   4.686 -32.875  1.00  0.00     0.062 A 
HETATM   11  H   UNL     1      -2.443   6.853 -34.145  1.00  0.00     0.184 HD
ENDROOT
BRANCH  10  12
HETATM   12  C   UNL     1      -5.578   3.648 -33.293  1.00  0.00     0.256 C 
HETATM   13  N   UNL     1      -5.170   2.332 -33.181  1.00  0.00    -0.323 N 
HETATM   14  H   UNL     1      -4.304   2.122 -32.712  1.00  0.00     0.169 HD
HETATM   15  O   UNL     1      -6.694   3.999 -33.664  1.00  0.00    -0.267 OA
BRANCH  13  16
HETATM   16  C   UNL     1      -5.881   1.184 -33.601  1.00  0.00     0.035 A 
HETATM   17  C   UNL     1      -6.733   1.149 -34.705  1.00  0.00     0.029 A 
HETATM   18  C   UNL     1      -7.372  -0.040 -35.072  1.00  0.00     0.002 A 
HETATM   19  C   UNL     1      -7.170  -1.204 -34.334  1.00  0.00     0.000 A 
HETATM   20  C   UNL     1      -6.323  -1.181 -33.230  1.00  0.00     0.002 A 
HETATM   21  C   UNL     1      -5.678   0.005 -32.869  1.00  0.00     0.029 A 
ENDBRANCH  13  16
ENDBRANCH  10  12
BRANCH   9  22
HETATM   22  C   UNL     1      -5.628   5.402 -30.650  1.00  0.00    -0.028 A 
HETATM   23  C   UNL     1      -6.276   6.617 -30.938  1.00  0.00     0.012 A 
HETATM   24  C   UNL     1      -7.416   7.002 -30.228  1.00  0.00     0.037 A 
HETATM   25  C   UNL     1      -7.905   6.181 -29.218  1.00  0.00     0.065 A 
HETATM   26  C   UNL     1      -7.276   4.984 -28.907  1.00  0.00     0.037 A 
HETATM   27  C   UNL     1      -6.139   4.596 -29.616  1.00  0.00     0.012 A 
BRANCH  25  28
HETATM   28  O   UNL     1      -9.008   6.525 -28.494  1.00  0.00    -0.361 OA
HETATM   29  H   UNL     1      -9.296   7.410 -28.769  1.00  0.00     0.217 HD
ENDBRANCH  25  28
ENDBRANCH   9  22
BRANCH   7  30
HETATM   30  C   UNL     1      -1.042   7.849 -29.253  1.00  0.00     0.014 A 
HETATM   31  C   UNL     1      -1.582   8.867 -28.451  1.00  0.00     0.017 A 
HETATM   32  C   UNL     1      -0.787   9.528 -27.508  1.00  0.00     0.025 A 
HETATM   33  C   UNL     1       0.553   9.173 -27.362  1.00  0.00     0.034 A 
HETATM   34 CL   UNL     1       1.530   9.987 -26.204  1.00  0.00    -0.084 Cl
HETATM   35  C   UNL     1       1.103   8.165 -28.149  1.00  0.00     0.025 A 
HETATM   36  C   UNL     1       0.309   7.506 -29.092  1.00  0.00     0.017 A 
ENDBRANCH   7  30
TORSDOF 5
ENDMDL
MODEL 10
REMARK VINA RESULT:      -8.4      2.742      4.192
REMARK  5 active torsions:
REMARK  status: ('A' for Active; 'I' for Inactive)
REMARK    1  A    between atoms: C_7  and  C_8 
REMARK    2  A    between atoms: C_16  and  C_17 
REMARK    3  A    between atoms: C_20  and  O_21 
REMARK    4  A    between atoms: C_24  and  C_25 
REMARK       I    between atoms: C_25  and  N_26 
REMARK    5  A    between atoms: N_26  and  C_27 
ROOT
HETATM    1  C   UNL     1      -5.151   9.515 -29.772  1.00  0.00     0.070 C 
HETATM    2  C   UNL     1      -5.044   8.092 -30.271  1.00  0.00     0.037 A 
HETATM    3  N   UNL     1      -6.257   7.495 -30.603  1.00  0.00    -0.192 N 
HETATM    4  C   UNL     1      -6.380   6.203 -30.949  1.00  0.00     0.726 A 
HETATM    5  N   UNL     1      -5.259   5.443 -31.073  1.00  0.00    -0.083 N 
HETATM    6  N   UNL     1      -5.561   4.148 -31.295  1.00  0.00    -0.135 NA
HETATM    7  C   UNL     1      -6.902   4.206 -31.405  1.00  0.00     0.199 A 
HETATM    8  N   UNL     1      -7.433   5.464 -31.179  1.00  0.00    -0.041 NA
HETATM    9  C   UNL     1      -3.898   5.943 -30.862  1.00  0.00     0.202 A 
HETATM   10  C   UNL     1      -3.879   7.393 -30.372  1.00  0.00     0.062 A 
HETATM   11  H   UNL     1      -7.103   8.046 -30.479  1.00  0.00     0.184 HD
ENDROOT
BRANCH  10  12
HETATM   12  C   UNL     1      -2.559   8.043 -30.048  1.00  0.00     0.256 C 
HETATM   13  N   UNL     1      -2.036   7.753 -28.802  1.00  0.00    -0.323 N 
HETATM   14  H   UNL     1      -2.468   7.039 -28.239  1.00  0.00     0.169 HD
HETATM   15  O   UNL     1      -2.004   8.744 -30.888  1.00  0.00    -0.267 OA
BRANCH  13  16
HETATM   16  C   UNL     1      -0.876   8.311 -28.217  1.00  0.00     0.035 A 
HETATM   17  C   UNL     1       0.418   7.833 -28.432  1.00  0.00     0.029 A 
HETATM   18  C   UNL     1       1.516   8.467 -27.840  1.00  0.00     0.002 A 
HETATM   19  C   UNL     1       1.330   9.580 -27.024  1.00  0.00     0.000 A 
HETATM   20  C   UNL     1       0.045  10.064 -26.801  1.00  0.00     0.002 A 
HETATM   21  C   UNL     1      -1.051   9.437 -27.400  1.00  0.00     0.029 A 
ENDBRANCH  13  16
ENDBRANCH  10  12
BRANCH   9  22
HETATM   22  C   UNL     1      -3.071   5.698 -32.123  1.00  0.00    -0.028 A 
HETATM   23  C   UNL     1      -1.797   5.104 -32.072  1.00  0.00     0.012 A 
HETATM   24  C   UNL     1      -1.050   4.919 -33.238  1.00  0.00     0.037 A 
HETATM   25  C   UNL     1      -1.568   5.337 -34.458  1.00  0.00     0.065 A 
HETATM   26  C   UNL     1      -2.818   5.936 -34.533  1.00  0.00     0.037 A 
HETATM   27  C   UNL     1      -3.567   6.121 -33.370  1.00  0.00     0.012 A 
BRANCH  25  28
HETATM   28  O   UNL     1      -0.867   5.185 -35.618  1.00  0.00    -0.361 OA
HETATM   29  H   UNL     1      -0.069   5.736 -35.572  1.00  0.00     0.217 HD
ENDBRANCH  25  28
ENDBRANCH   9  22
BRANCH   7  30
HETATM   30  C   UNL     1      -7.740   3.052 -31.718  1.00  0.00     0.014 A 
HETATM   31  C   UNL     1      -9.048   3.221 -32.200  1.00  0.00     0.017 A 
HETATM   32  C   UNL     1      -9.850   2.112 -32.490  1.00  0.00     0.025 A 
HETATM   33  C   UNL     1      -9.347   0.826 -32.301  1.00  0.00     0.034 A 
HETATM   34 CL   UNL     1     -10.334  -0.537 -32.656  1.00  0.00    -0.084 Cl
HETATM   35  C   UNL     1      -8.052   0.641 -31.824  1.00  0.00     0.025 A 
HETATM   36  C   UNL     1      -7.251   1.750 -31.533  1.00  0.00     0.017 A 
ENDBRANCH   7  30
TORSDOF 5
ENDMDL
