MODEL 1
REMARK VINA RESULT:     -10.1      0.000      0.000
REMARK  3 active torsions:
REMARK  status: ('A' for Active; 'I' for Inactive)
REMARK    1  A    between atoms: C_6  and  C_7 
REMARK    2  A    between atoms: C_11  and  C_12 
REMARK       I    between atoms: C_12  and  N_13 
REMARK    3  A    between atoms: N_13  and  N_14 
ROOT
HETATM    1  C   UNL     1     -10.047   2.141 -32.787  1.00  0.00     0.289 C 
HETATM    2  N   UNL     1     -11.253   2.216 -33.464  1.00  0.00    -0.241 N 
HETATM    3  O   UNL     1      -9.796   2.768 -31.760  1.00  0.00    -0.264 OA
HETATM    4  H   UNL     1     -11.410   1.671 -34.311  1.00  0.00     0.192 HD
ENDROOT
BRANCH   1   5
HETATM    5  C   UNL     1      -9.072   1.256 -33.372  1.00  0.00     0.121 A 
HETATM    6  N   UNL     1      -8.746   1.353 -34.694  1.00  0.00    -0.272 N 
HETATM    7  N   UNL     1      -7.826   0.469 -35.101  1.00  0.00    -0.174 NA
HETATM    8  H   UNL     1      -9.128   2.012 -35.365  1.00  0.00     0.189 HD
HETATM    9  C   UNL     1      -7.526  -0.247 -34.004  1.00  0.00     0.089 A 
HETATM   10  C   UNL     1      -8.293   0.220 -32.895  1.00  0.00     0.071 A 
BRANCH   9  11
HETATM   11  C   UNL     1      -6.535  -1.332 -34.047  1.00  0.00    -0.005 A 
HETATM   12  C   UNL     1      -6.801  -2.550 -34.691  1.00  0.00     0.021 A 
HETATM   13  C   UNL     1      -5.850  -3.590 -34.729  1.00  0.00    -0.055 A 
HETATM   14  C   UNL     1      -4.610  -3.417 -34.086  1.00  0.00    -0.056 A 
HETATM   15  C   UNL     1      -6.201  -4.870 -35.437  1.00  0.00     0.049 C 
HETATM   16  C   UNL     1      -3.533  -4.466 -34.084  1.00  0.00     0.049 C 
HETATM   17  C   UNL     1      -4.336  -2.193 -33.459  1.00  0.00     0.008 A 
HETATM   18  C   UNL     1      -5.285  -1.169 -33.438  1.00  0.00     0.014 A 
ENDBRANCH   9  11
ENDBRANCH   1   5
BRANCH   2  19
HETATM   19  N   UNL     1     -12.255   3.026 -33.001  1.00  0.00    -0.165 NA
HETATM   20  C   UNL     1     -13.442   2.514 -32.950  1.00  0.00     0.157 A 
HETATM   21  C   UNL     1     -13.889   1.102 -33.340  1.00  0.00     0.277 A 
HETATM   22  C   UNL     1     -14.642   3.202 -32.493  1.00  0.00     0.027 A 
HETATM   23  O   UNL     1     -13.153   0.239 -33.769  1.00  0.00    -0.266 OA
HETATM   24  N   UNL     1     -15.245   1.063 -33.098  1.00  0.00    -0.321 N 
HETATM   25  C   UNL     1     -15.690   2.289 -32.602  1.00  0.00     0.048 A 
HETATM   26  H   UNL     1     -15.819   0.250 -33.262  1.00  0.00     0.169 HD
HETATM   27  C   UNL     1     -16.977   2.631 -32.246  1.00  0.00     0.030 A 
HETATM   28  C   UNL     1     -17.186   3.932 -31.770  1.00  0.00     0.002 A 
HETATM   29  C   UNL     1     -16.120   4.851 -31.661  1.00  0.00     0.001 A 
HETATM   30  C   UNL     1     -14.822   4.487 -32.027  1.00  0.00     0.016 A 
ENDBRANCH   2  19
TORSDOF 3
ENDMDL
MODEL 2
REMARK VINA RESULT:      -9.5      6.701      9.703
REMARK  3 active torsions:
REMARK  status: ('A' for Active; 'I' for Inactive)
REMARK    1  A    between atoms: C_6  and  C_7 
REMARK    2  A    between atoms: C_11  and  C_12 
REMARK       I    between atoms: C_12  and  N_13 
REMARK    3  A    between atoms: N_13  and  N_14 
ROOT
HETATM    1  C   UNL     1      -4.919   3.683 -30.992  1.00  0.00     0.289 C 
HETATM    2  N   UNL     1      -4.162   4.714 -31.522  1.00  0.00    -0.241 N 
HETATM    3  O   UNL     1      -5.280   3.630 -29.818  1.00  0.00    -0.264 OA
HETATM    4  H   UNL     1      -3.891   4.711 -32.505  1.00  0.00     0.192 HD
ENDROOT
BRANCH   1   5
HETATM    5  C   UNL     1      -5.274   2.644 -31.925  1.00  0.00     0.121 A 
HETATM    6  N   UNL     1      -5.909   2.943 -33.095  1.00  0.00    -0.272 N 
HETATM    7  N   UNL     1      -6.175   1.881 -33.866  1.00  0.00    -0.174 NA
HETATM    8  H   UNL     1      -6.184   3.867 -33.415  1.00  0.00     0.189 HD
HETATM    9  C   UNL     1      -5.697   0.829 -33.179  1.00  0.00     0.089 A 
HETATM   10  C   UNL     1      -5.122   1.271 -31.950  1.00  0.00     0.071 A 
BRANCH   9  11
HETATM   11  C   UNL     1      -5.800  -0.539 -33.709  1.00  0.00    -0.005 A 
HETATM   12  C   UNL     1      -4.786  -1.487 -33.506  1.00  0.00     0.021 A 
HETATM   13  C   UNL     1      -4.886  -2.797 -34.017  1.00  0.00    -0.055 A 
HETATM   14  C   UNL     1      -6.018  -3.161 -34.771  1.00  0.00    -0.056 A 
HETATM   15  C   UNL     1      -3.762  -3.764 -33.762  1.00  0.00     0.049 C 
HETATM   16  C   UNL     1      -6.213  -4.537 -35.345  1.00  0.00     0.049 C 
HETATM   17  C   UNL     1      -7.040  -2.219 -34.958  1.00  0.00     0.008 A 
HETATM   18  C   UNL     1      -6.931  -0.929 -34.438  1.00  0.00     0.014 A 
ENDBRANCH   9  11
ENDBRANCH   1   5
BRANCH   2  19
HETATM   19  N   UNL     1      -3.764   5.757 -30.729  1.00  0.00    -0.165 NA
HETATM   20  C   UNL     1      -2.491   5.891 -30.536  1.00  0.00     0.157 A 
HETATM   21  C   UNL     1      -1.349   5.030 -31.082  1.00  0.00     0.277 A 
HETATM   22  C   UNL     1      -1.861   6.927 -29.728  1.00  0.00     0.027 A 
HETATM   23  O   UNL     1      -1.495   4.064 -31.800  1.00  0.00    -0.266 OA
HETATM   24  N   UNL     1      -0.193   5.591 -30.584  1.00  0.00    -0.321 N 
HETATM   25  C   UNL     1      -0.487   6.701 -29.792  1.00  0.00     0.048 A 
HETATM   26  H   UNL     1       0.730   5.233 -30.778  1.00  0.00     0.169 HD
HETATM   27  C   UNL     1       0.403   7.516 -29.127  1.00  0.00     0.030 A 
HETATM   28  C   UNL     1      -0.130   8.579 -28.386  1.00  0.00     0.002 A 
HETATM   29  C   UNL     1      -1.523   8.803 -28.327  1.00  0.00     0.001 A 
HETATM   30  C   UNL     1      -2.411   7.966 -29.008  1.00  0.00     0.016 A 
ENDBRANCH   2  19
TORSDOF 3
ENDMDL
MODEL 3
REMARK VINA RESULT:      -9.5      3.249      4.148
REMARK  3 active torsions:
REMARK  status: ('A' for Active; 'I' for Inactive)
REMARK    1  A    between atoms: C_6  and  C_7 
REMARK    2  A    between atoms: C_11  and  C_12 
REMARK       I    between atoms: C_12  and  N_13 
REMARK    3  A    between atoms: N_13  and  N_14 
ROOT
HETATM    1  C   UNL     1     -10.491   2.199 -33.843  1.00  0.00     0.289 C 
HETATM    2  N   UNL     1     -10.376   2.986 -34.977  1.00  0.00    -0.241 N 
HETATM    3  O   UNL     1     -11.472   2.202 -33.103  1.00  0.00    -0.264 OA
HETATM    4  H   UNL     1      -9.540   2.944 -35.559  1.00  0.00     0.192 HD
ENDROOT
BRANCH   1   5
HETATM    5  C   UNL     1      -9.360   1.348 -33.574  1.00  0.00     0.121 A 
HETATM    6  N   UNL     1      -8.664   1.461 -32.405  1.00  0.00    -0.272 N 
HETATM    7  N   UNL     1      -7.640   0.606 -32.288  1.00  0.00    -0.174 NA
HETATM    8  H   UNL     1      -8.852   2.112 -31.649  1.00  0.00     0.189 HD
HETATM    9  C   UNL     1      -7.653  -0.106 -33.428  1.00  0.00     0.089 A 
HETATM   10  C   UNL     1      -8.724   0.334 -34.263  1.00  0.00     0.071 A 
BRANCH   9  11
HETATM   11  C   UNL     1      -6.665  -1.165 -33.679  1.00  0.00    -0.005 A 
HETATM   12  C   UNL     1      -6.990  -2.320 -34.405  1.00  0.00     0.021 A 
HETATM   13  C   UNL     1      -6.041  -3.337 -34.641  1.00  0.00    -0.055 A 
HETATM   14  C   UNL     1      -4.741  -3.205 -34.118  1.00  0.00    -0.056 A 
HETATM   15  C   UNL     1      -6.456  -4.549 -35.429  1.00  0.00     0.049 C 
HETATM   16  C   UNL     1      -3.664  -4.232 -34.329  1.00  0.00     0.049 C 
HETATM   17  C   UNL     1      -4.411  -2.041 -33.407  1.00  0.00     0.008 A 
HETATM   18  C   UNL     1      -5.359  -1.040 -33.189  1.00  0.00     0.014 A 
ENDBRANCH   9  11
ENDBRANCH   1   5
BRANCH   2  19
HETATM   19  N   UNL     1     -11.388   3.836 -35.333  1.00  0.00    -0.165 NA
HETATM   20  C   UNL     1     -11.123   5.102 -35.309  1.00  0.00     0.157 A 
HETATM   21  C   UNL     1      -9.810   5.794 -34.931  1.00  0.00     0.277 A 
HETATM   22  C   UNL     1     -12.054   6.170 -35.648  1.00  0.00     0.027 A 
HETATM   23  O   UNL     1      -8.800   5.217 -34.587  1.00  0.00    -0.266 OA
HETATM   24  N   UNL     1     -10.050   7.144 -35.067  1.00  0.00    -0.321 N 
HETATM   25  C   UNL     1     -11.361   7.369 -35.487  1.00  0.00     0.048 A 
HETATM   26  H   UNL     1      -9.358   7.855 -34.884  1.00  0.00     0.169 HD
HETATM   27  C   UNL     1     -11.966   8.583 -35.730  1.00  0.00     0.030 A 
HETATM   28  C   UNL     1     -13.304   8.561 -36.146  1.00  0.00     0.002 A 
HETATM   29  C   UNL     1     -13.999   7.343 -36.308  1.00  0.00     0.001 A 
HETATM   30  C   UNL     1     -13.370   6.121 -36.057  1.00  0.00     0.016 A 
ENDBRANCH   2  19
TORSDOF 3
ENDMDL
MODEL 4
REMARK VINA RESULT:      -9.4      7.346     10.293
REMARK  3 active torsions:
REMARK  status: ('A' for Active; 'I' for Inactive)
REMARK    1  A    between atoms: C_6  and  C_7 
REMARK    2  A    between atoms: C_11  and  C_12 
REMARK       I    between atoms: C_12  and  N_13 
REMARK    3  A    between atoms: N_13  and  N_14 
ROOT
HETATM    1  C   UNL     1      -4.787   4.733 -30.889  1.00  0.00     0.289 C 
HETATM    2  N   UNL     1      -3.611   5.402 -31.186  1.00  0.00    -0.241 N 
HETATM    3  O   UNL     1      -5.500   4.994 -29.923  1.00  0.00    -0.264 OA
HETATM    4  H   UNL     1      -3.058   5.147 -32.003  1.00  0.00     0.192 HD
ENDROOT
BRANCH   1   5
HETATM    5  C   UNL     1      -5.139   3.682 -31.809  1.00  0.00     0.121 A 
HETATM    6  N   UNL     1      -5.647   3.972 -33.042  1.00  0.00    -0.272 N 
HETATM    7  N   UNL     1      -5.927   2.899 -33.791  1.00  0.00    -0.174 NA
HETATM    8  H   UNL     1      -5.821   4.898 -33.422  1.00  0.00     0.189 HD
HETATM    9  C   UNL     1      -5.593   1.847 -33.024  1.00  0.00     0.089 A 
HETATM   10  C   UNL     1      -5.093   2.301 -31.767  1.00  0.00     0.071 A 
BRANCH   9  11
HETATM   11  C   UNL     1      -5.756   0.467 -33.506  1.00  0.00    -0.005 A 
HETATM   12  C   UNL     1      -4.817  -0.533 -33.213  1.00  0.00     0.021 A 
HETATM   13  C   UNL     1      -4.974  -1.854 -33.679  1.00  0.00    -0.055 A 
HETATM   14  C   UNL     1      -6.086  -2.178 -34.479  1.00  0.00    -0.056 A 
HETATM   15  C   UNL     1      -3.930  -2.878 -33.326  1.00  0.00     0.049 C 
HETATM   16  C   UNL     1      -6.339  -3.561 -35.011  1.00  0.00     0.049 C 
HETATM   17  C   UNL     1      -7.034  -1.183 -34.758  1.00  0.00     0.008 A 
HETATM   18  C   UNL     1      -6.870   0.119 -34.281  1.00  0.00     0.014 A 
ENDBRANCH   9  11
ENDBRANCH   1   5
BRANCH   2  19
HETATM   19  N   UNL     1      -3.174   6.420 -30.382  1.00  0.00    -0.165 NA
HETATM   20  C   UNL     1      -1.911   6.441 -30.102  1.00  0.00     0.157 A 
HETATM   21  C   UNL     1      -0.818   5.469 -30.554  1.00  0.00     0.277 A 
HETATM   22  C   UNL     1      -1.245   7.432 -29.267  1.00  0.00     0.027 A 
HETATM   23  O   UNL     1      -1.003   4.506 -31.267  1.00  0.00    -0.266 OA
HETATM   24  N   UNL     1       0.348   5.932 -29.984  1.00  0.00    -0.321 N 
HETATM   25  C   UNL     1       0.104   7.080 -29.230  1.00  0.00     0.048 A 
HETATM   26  H   UNL     1       1.245   5.488 -30.108  1.00  0.00     0.169 HD
HETATM   27  C   UNL     1       1.018   7.824 -28.516  1.00  0.00     0.030 A 
HETATM   28  C   UNL     1       0.535   8.946 -27.830  1.00  0.00     0.002 A 
HETATM   29  C   UNL     1      -0.832   9.297 -27.871  1.00  0.00     0.001 A 
HETATM   30  C   UNL     1      -1.745   8.531 -28.601  1.00  0.00     0.016 A 
ENDBRANCH   2  19
TORSDOF 3
ENDMDL
MODEL 5
REMARK VINA RESULT:      -9.3      7.601     10.961
REMARK  3 active torsions:
REMARK  status: ('A' for Active; 'I' for Inactive)
REMARK    1  A    between atoms: C_6  and  C_7 
REMARK    2  A    between atoms: C_11  and  C_12 
REMARK       I    between atoms: C_12  and  N_13 
REMARK    3  A    between atoms: N_13  and  N_14 
ROOT
HETATM    1  C   UNL     1      -4.538   4.029 -32.640  1.00  0.00     0.289 C 
HETATM    2  N   UNL     1      -4.984   2.879 -32.010  1.00  0.00    -0.241 N 
HETATM    3  O   UNL     1      -4.650   4.238 -33.845  1.00  0.00    -0.264 OA
HETATM    4  H   UNL     1      -4.869   2.756 -31.004  1.00  0.00     0.192 HD
ENDROOT
BRANCH   1   5
HETATM    5  C   UNL     1      -3.916   4.997 -31.772  1.00  0.00     0.121 A 
HETATM    6  N   UNL     1      -4.643   6.016 -31.228  1.00  0.00    -0.272 N 
HETATM    7  N   UNL     1      -3.938   6.838 -30.441  1.00  0.00    -0.174 NA
HETATM    8  H   UNL     1      -5.634   6.192 -31.364  1.00  0.00     0.189 HD
HETATM    9  C   UNL     1      -2.687   6.348 -30.464  1.00  0.00     0.089 A 
HETATM   10  C   UNL     1      -2.634   5.187 -31.293  1.00  0.00     0.071 A 
BRANCH   9  11
HETATM   11  C   UNL     1      -1.602   6.988 -29.705  1.00  0.00    -0.005 A 
HETATM   12  C   UNL     1      -1.784   8.213 -29.048  1.00  0.00     0.021 A 
HETATM   13  C   UNL     1      -0.741   8.827 -28.324  1.00  0.00    -0.055 A 
HETATM   14  C   UNL     1       0.523   8.210 -28.275  1.00  0.00    -0.056 A 
HETATM   15  C   UNL     1      -1.005  10.141 -27.642  1.00  0.00     0.049 C 
HETATM   16  C   UNL     1       1.688   8.785 -27.519  1.00  0.00     0.049 C 
HETATM   17  C   UNL     1       0.700   6.975 -28.916  1.00  0.00     0.008 A 
HETATM   18  C   UNL     1      -0.344   6.376 -29.622  1.00  0.00     0.014 A 
ENDBRANCH   9  11
ENDBRANCH   1   5
BRANCH   2  19
HETATM   19  N   UNL     1      -5.590   1.887 -32.732  1.00  0.00    -0.165 NA
HETATM   20  C   UNL     1      -4.955   0.764 -32.829  1.00  0.00     0.157 A 
HETATM   21  C   UNL     1      -3.596   0.384 -32.235  1.00  0.00     0.277 A 
HETATM   22  C   UNL     1      -5.420  -0.414 -33.550  1.00  0.00     0.027 A 
HETATM   23  O   UNL     1      -2.904   1.122 -31.566  1.00  0.00    -0.266 OA
HETATM   24  N   UNL     1      -3.371  -0.918 -32.628  1.00  0.00    -0.321 N 
HETATM   25  C   UNL     1      -4.435  -1.389 -33.397  1.00  0.00     0.048 A 
HETATM   26  H   UNL     1      -2.544  -1.440 -32.382  1.00  0.00     0.169 HD
HETATM   27  C   UNL     1      -4.571  -2.637 -33.966  1.00  0.00     0.030 A 
HETATM   28  C   UNL     1      -5.737  -2.883 -34.702  1.00  0.00     0.002 A 
HETATM   29  C   UNL     1      -6.730  -1.891 -34.853  1.00  0.00     0.001 A 
HETATM   30  C   UNL     1      -6.576  -0.631 -34.269  1.00  0.00     0.016 A 
ENDBRANCH   2  19
TORSDOF 3
ENDMDL
MODEL 6
REMARK VINA RESULT:      -9.2      6.034      8.696
REMARK  3 active torsions:
REMARK  status: ('A' for Active; 'I' for Inactive)
REMARK    1  A    between atoms: C_6  and  C_7 
REMARK    2  A    between atoms: C_11  and  C_12 
REMARK       I    between atoms: C_12  and  N_13 
REMARK    3  A    between atoms: N_13  and  N_14 
ROOT
HETATM    1  C   UNL     1      -5.869   3.716 -32.788  1.00  0.00     0.289 C 
HETATM    2  N   UNL     1      -4.636   4.338 -32.891  1.00  0.00    -0.241 N 
HETATM    3  O   UNL     1      -6.871   4.251 -32.319  1.00  0.00    -0.264 OA
HETATM    4  H   UNL     1      -3.836   3.849 -33.291  1.00  0.00     0.192 HD
ENDROOT
BRANCH   1   5
HETATM    5  C   UNL     1      -5.912   2.362 -33.280  1.00  0.00     0.121 A 
HETATM    6  N   UNL     1      -6.770   2.009 -34.281  1.00  0.00    -0.272 N 
HETATM    7  N   UNL     1      -6.701   0.721 -34.638  1.00  0.00    -0.174 NA
HETATM    8  H   UNL     1      -7.427   2.619 -34.757  1.00  0.00     0.189 HD
HETATM    9  C   UNL     1      -5.757   0.192 -33.840  1.00  0.00     0.089 A 
HETATM   10  C   UNL     1      -5.238   1.196 -32.970  1.00  0.00     0.071 A 
BRANCH   9  11
HETATM   11  C   UNL     1      -5.386  -1.228 -33.934  1.00  0.00    -0.005 A 
HETATM   12  C   UNL     1      -6.177  -2.153 -34.631  1.00  0.00     0.021 A 
HETATM   13  C   UNL     1      -5.821  -3.515 -34.717  1.00  0.00    -0.055 A 
HETATM   14  C   UNL     1      -4.656  -3.967 -34.068  1.00  0.00    -0.056 A 
HETATM   15  C   UNL     1      -6.714  -4.453 -35.481  1.00  0.00     0.049 C 
HETATM   16  C   UNL     1      -4.194  -5.397 -34.115  1.00  0.00     0.049 C 
HETATM   17  C   UNL     1      -3.856  -3.039 -33.387  1.00  0.00     0.008 A 
HETATM   18  C   UNL     1      -4.217  -1.692 -33.318  1.00  0.00     0.014 A 
ENDBRANCH   9  11
ENDBRANCH   1   5
BRANCH   2  19
HETATM   19  N   UNL     1      -4.474   5.625 -32.455  1.00  0.00    -0.165 NA
HETATM   20  C   UNL     1      -3.448   5.862 -31.703  1.00  0.00     0.157 A 
HETATM   21  C   UNL     1      -2.370   4.884 -31.226  1.00  0.00     0.277 A 
HETATM   22  C   UNL     1      -3.094   7.156 -31.134  1.00  0.00     0.027 A 
HETATM   23  O   UNL     1      -2.338   3.704 -31.503  1.00  0.00    -0.266 OA
HETATM   24  N   UNL     1      -1.508   5.632 -30.453  1.00  0.00    -0.321 N 
HETATM   25  C   UNL     1      -1.927   6.961 -30.396  1.00  0.00     0.048 A 
HETATM   26  H   UNL     1      -0.691   5.251 -30.000  1.00  0.00     0.169 HD
HETATM   27  C   UNL     1      -1.325   8.002 -29.724  1.00  0.00     0.030 A 
HETATM   28  C   UNL     1      -1.933   9.261 -29.812  1.00  0.00     0.002 A 
HETATM   29  C   UNL     1      -3.115   9.451 -30.561  1.00  0.00     0.001 A 
HETATM   30  C   UNL     1      -3.712   8.384 -31.238  1.00  0.00     0.016 A 
ENDBRANCH   2  19
TORSDOF 3
ENDMDL
MODEL 7
REMARK VINA RESULT:      -9.2      8.579     11.452
REMARK  3 active torsions:
REMARK  status: ('A' for Active; 'I' for Inactive)
REMARK    1  A    between atoms: C_6  and  C_7 
REMARK    2  A    between atoms: C_11  and  C_12 
REMARK       I    between atoms: C_12  and  N_13 
REMARK    3  A    between atoms: N_13  and  N_14 
ROOT
HETATM    1  C   UNL     1      -3.115   4.758 -32.335  1.00  0.00     0.289 C 
HETATM    2  N   UNL     1      -4.034   3.865 -31.808  1.00  0.00    -0.241 N 
HETATM    3  O   UNL     1      -3.037   5.038 -33.528  1.00  0.00    -0.264 OA
HETATM    4  H   UNL     1      -4.057   3.670 -30.808  1.00  0.00     0.192 HD
ENDROOT
BRANCH   1   5
HETATM    5  C   UNL     1      -2.228   5.359 -31.371  1.00  0.00     0.121 A 
HETATM    6  N   UNL     1      -1.144   4.678 -30.898  1.00  0.00    -0.272 N 
HETATM    7  N   UNL     1      -0.408   5.359 -30.011  1.00  0.00    -0.174 NA
HETATM    8  H   UNL     1      -0.863   3.736 -31.154  1.00  0.00     0.189 HD
HETATM    9  C   UNL     1      -1.028   6.545 -29.887  1.00  0.00     0.089 A 
HETATM   10  C   UNL     1      -2.180   6.582 -30.729  1.00  0.00     0.071 A 
BRANCH   9  11
HETATM   11  C   UNL     1      -0.511   7.587 -28.988  1.00  0.00    -0.005 A 
HETATM   12  C   UNL     1      -1.298   8.679 -28.593  1.00  0.00     0.021 A 
HETATM   13  C   UNL     1      -0.798   9.678 -27.733  1.00  0.00    -0.055 A 
HETATM   14  C   UNL     1       0.530   9.596 -27.276  1.00  0.00    -0.056 A 
HETATM   15  C   UNL     1      -1.697  10.822 -27.348  1.00  0.00     0.049 C 
HETATM   16  C   UNL     1       1.143  10.610 -26.349  1.00  0.00     0.049 C 
HETATM   17  C   UNL     1       1.312   8.496 -27.656  1.00  0.00     0.008 A 
HETATM   18  C   UNL     1       0.800   7.509 -28.500  1.00  0.00     0.014 A 
ENDBRANCH   9  11
ENDBRANCH   1   5
BRANCH   2  19
HETATM   19  N   UNL     1      -4.927   3.231 -32.628  1.00  0.00    -0.165 NA
HETATM   20  C   UNL     1      -4.818   1.945 -32.726  1.00  0.00     0.157 A 
HETATM   21  C   UNL     1      -3.812   1.019 -32.038  1.00  0.00     0.277 A 
HETATM   22  C   UNL     1      -5.663   1.082 -33.542  1.00  0.00     0.027 A 
HETATM   23  O   UNL     1      -2.943   1.387 -31.277  1.00  0.00    -0.266 OA
HETATM   24  N   UNL     1      -4.119  -0.252 -32.474  1.00  0.00    -0.321 N 
HETATM   25  C   UNL     1      -5.202  -0.220 -33.354  1.00  0.00     0.048 A 
HETATM   26  H   UNL     1      -3.619  -1.078 -32.185  1.00  0.00     0.169 HD
HETATM   27  C   UNL     1      -5.794  -1.287 -33.993  1.00  0.00     0.030 A 
HETATM   28  C   UNL     1      -6.877  -1.009 -34.838  1.00  0.00     0.002 A 
HETATM   29  C   UNL     1      -7.339   0.312 -35.023  1.00  0.00     0.001 A 
HETATM   30  C   UNL     1      -6.727   1.382 -34.366  1.00  0.00     0.016 A 
ENDBRANCH   2  19
TORSDOF 3
ENDMDL
MODEL 8
REMARK VINA RESULT:      -9.1      8.245     11.049
REMARK  3 active torsions:
REMARK  status: ('A' for Active; 'I' for Inactive)
REMARK    1  A    between atoms: C_6  and  C_7 
REMARK    2  A    between atoms: C_11  and  C_12 
REMARK       I    between atoms: C_12  and  N_13 
REMARK    3  A    between atoms: N_13  and  N_14 
ROOT
HETATM    1  C   UNL     1      -3.866   5.413 -33.420  1.00  0.00     0.289 C 
HETATM    2  N   UNL     1      -4.509   4.416 -32.705  1.00  0.00    -0.241 N 
HETATM    3  O   UNL     1      -4.010   5.594 -34.626  1.00  0.00    -0.264 OA
HETATM    4  H   UNL     1      -4.355   4.311 -31.703  1.00  0.00     0.192 HD
ENDROOT
BRANCH   1   5
HETATM    5  C   UNL     1      -2.992   6.255 -32.642  1.00  0.00     0.121 A 
HETATM    6  N   UNL     1      -2.405   7.355 -33.197  1.00  0.00    -0.272 N 
HETATM    7  N   UNL     1      -1.621   8.044 -32.359  1.00  0.00    -0.174 NA
HETATM    8  H   UNL     1      -2.512   7.679 -34.154  1.00  0.00     0.189 HD
HETATM    9  C   UNL     1      -1.688   7.375 -31.196  1.00  0.00     0.089 A 
HETATM   10  C   UNL     1      -2.542   6.240 -31.336  1.00  0.00     0.071 A 
BRANCH   9  11
HETATM   11  C   UNL     1      -0.950   7.831 -30.009  1.00  0.00    -0.005 A 
HETATM   12  C   UNL     1      -1.436   8.860 -29.188  1.00  0.00     0.021 A 
HETATM   13  C   UNL     1      -0.725   9.298 -28.052  1.00  0.00    -0.055 A 
HETATM   14  C   UNL     1       0.515   8.708 -27.742  1.00  0.00    -0.056 A 
HETATM   15  C   UNL     1      -1.304  10.405 -27.214  1.00  0.00     0.049 C 
HETATM   16  C   UNL     1       1.336   9.104 -26.546  1.00  0.00     0.049 C 
HETATM   17  C   UNL     1       0.992   7.667 -28.552  1.00  0.00     0.008 A 
HETATM   18  C   UNL     1       0.273   7.238 -29.668  1.00  0.00     0.014 A 
ENDBRANCH   9  11
ENDBRANCH   1   5
BRANCH   2  19
HETATM   19  N   UNL     1      -5.362   3.554 -33.338  1.00  0.00    -0.165 NA
HETATM   20  C   UNL     1      -5.139   2.289 -33.179  1.00  0.00     0.157 A 
HETATM   21  C   UNL     1      -4.032   1.612 -32.366  1.00  0.00     0.277 A 
HETATM   22  C   UNL     1      -5.923   1.210 -33.765  1.00  0.00     0.027 A 
HETATM   23  O   UNL     1      -3.180   2.201 -31.735  1.00  0.00    -0.266 OA
HETATM   24  N   UNL     1      -4.234   0.258 -32.522  1.00  0.00    -0.321 N 
HETATM   25  C   UNL     1      -5.339   0.017 -33.339  1.00  0.00     0.048 A 
HETATM   26  H   UNL     1      -3.652  -0.447 -32.095  1.00  0.00     0.169 HD
HETATM   27  C   UNL     1      -5.848  -1.204 -33.723  1.00  0.00     0.030 A 
HETATM   28  C   UNL     1      -6.975  -1.197 -34.555  1.00  0.00     0.002 A 
HETATM   29  C   UNL     1      -7.562   0.014 -34.981  1.00  0.00     0.001 A 
HETATM   30  C   UNL     1      -7.032   1.244 -34.583  1.00  0.00     0.016 A 
ENDBRANCH   2  19
TORSDOF 3
ENDMDL
MODEL 9
REMARK VINA RESULT:      -8.6      3.663     10.101
REMARK  3 active torsions:
REMARK  status: ('A' for Active; 'I' for Inactive)
REMARK    1  A    between atoms: C_6  and  C_7 
REMARK    2  A    between atoms: C_11  and  C_12 
REMARK       I    between atoms: C_12  and  N_13 
REMARK    3  A    between atoms: N_13  and  N_14 
ROOT
HETATM    1  C   UNL     1      -9.274   1.094 -34.169  1.00  0.00     0.289 C 
HETATM    2  N   UNL     1      -8.255   0.698 -35.019  1.00  0.00    -0.241 N 
HETATM    3  O   UNL     1      -9.903   0.325 -33.446  1.00  0.00    -0.264 OA
HETATM    4  H   UNL     1      -7.763   1.379 -35.597  1.00  0.00     0.192 HD
ENDROOT
BRANCH   1   5
HETATM    5  C   UNL     1      -9.564   2.506 -34.180  1.00  0.00     0.121 A 
HETATM    6  N   UNL     1      -8.934   3.355 -33.316  1.00  0.00    -0.272 N 
HETATM    7  N   UNL     1      -9.299   4.637 -33.438  1.00  0.00    -0.174 NA
HETATM    8  H   UNL     1      -8.240   3.103 -32.619  1.00  0.00     0.189 HD
HETATM    9  C   UNL     1     -10.211   4.643 -34.425  1.00  0.00     0.089 A 
HETATM   10  C   UNL     1     -10.405   3.317 -34.917  1.00  0.00     0.071 A 
BRANCH   9  11
HETATM   11  C   UNL     1     -10.855   5.891 -34.862  1.00  0.00    -0.005 A 
HETATM   12  C   UNL     1     -10.283   6.712 -35.844  1.00  0.00     0.021 A 
HETATM   13  C   UNL     1     -10.901   7.909 -36.260  1.00  0.00    -0.055 A 
HETATM   14  C   UNL     1     -12.111   8.307 -35.660  1.00  0.00    -0.056 A 
HETATM   15  C   UNL     1     -10.233   8.743 -37.319  1.00  0.00     0.049 C 
HETATM   16  C   UNL     1     -12.845   9.561 -36.047  1.00  0.00     0.049 C 
HETATM   17  C   UNL     1     -12.693   7.477 -34.691  1.00  0.00     0.008 A 
HETATM   18  C   UNL     1     -12.073   6.290 -34.297  1.00  0.00     0.014 A 
ENDBRANCH   9  11
ENDBRANCH   1   5
BRANCH   2  19
HETATM   19  N   UNL     1      -7.892  -0.619 -35.095  1.00  0.00    -0.165 NA
HETATM   20  C   UNL     1      -6.740  -0.937 -34.601  1.00  0.00     0.157 A 
HETATM   21  C   UNL     1      -5.707  -0.027 -33.929  1.00  0.00     0.277 A 
HETATM   22  C   UNL     1      -6.166  -2.276 -34.581  1.00  0.00     0.027 A 
HETATM   23  O   UNL     1      -5.842   1.167 -33.766  1.00  0.00    -0.266 OA
HETATM   24  N   UNL     1      -4.658  -0.851 -33.582  1.00  0.00    -0.321 N 
HETATM   25  C   UNL     1      -4.922  -2.167 -33.961  1.00  0.00     0.048 A 
HETATM   26  H   UNL     1      -3.824  -0.527 -33.117  1.00  0.00     0.169 HD
HETATM   27  C   UNL     1      -4.113  -3.269 -33.783  1.00  0.00     0.030 A 
HETATM   28  C   UNL     1      -4.593  -4.499 -34.250  1.00  0.00     0.002 A 
HETATM   29  C   UNL     1      -5.854  -4.603 -34.877  1.00  0.00     0.001 A 
HETATM   30  C   UNL     1      -6.661  -3.475 -35.049  1.00  0.00     0.016 A 
ENDBRANCH   2  19
TORSDOF 3
ENDMDL
MODEL 10
REMARK VINA RESULT:      -8.4      7.514     10.920
REMARK  3 active torsions:
REMARK  status: ('A' for Active; 'I' for Inactive)
REMARK    1  A    between atoms: C_6  and  C_7 
REMARK    2  A    between atoms: C_11  and  C_12 
REMARK       I    between atoms: C_12  and  N_13 
REMARK    3  A    between atoms: N_13  and  N_14 
ROOT
HETATM    1  C   UNL     1      -4.696   4.258 -32.894  1.00  0.00     0.289 C 
HETATM    2  N   UNL     1      -5.069   3.114 -32.209  1.00  0.00    -0.241 N 
HETATM    3  O   UNL     1      -4.838   4.409 -34.106  1.00  0.00    -0.264 OA
HETATM    4  H   UNL     1      -4.932   3.041 -31.201  1.00  0.00     0.192 HD
ENDROOT
BRANCH   1   5
HETATM    5  C   UNL     1      -4.117   5.296 -32.080  1.00  0.00     0.121 A 
HETATM    6  N   UNL     1      -4.138   6.598 -32.487  1.00  0.00    -0.272 N 
HETATM    7  N   UNL     1      -3.566   7.454 -31.631  1.00  0.00    -0.174 NA
HETATM    8  H   UNL     1      -4.537   6.955 -33.350  1.00  0.00     0.189 HD
HETATM    9  C   UNL     1      -3.144   6.689 -30.610  1.00  0.00     0.089 A 
HETATM   10  C   UNL     1      -3.473   5.323 -30.857  1.00  0.00     0.071 A 
BRANCH   9  11
HETATM   11  C   UNL     1      -2.456   7.276 -29.450  1.00  0.00    -0.005 A 
HETATM   12  C   UNL     1      -1.061   7.424 -29.417  1.00  0.00     0.021 A 
HETATM   13  C   UNL     1      -0.403   7.984 -28.303  1.00  0.00    -0.055 A 
HETATM   14  C   UNL     1      -1.157   8.384 -27.183  1.00  0.00    -0.056 A 
HETATM   15  C   UNL     1       1.095   8.114 -28.333  1.00  0.00     0.049 C 
HETATM   16  C   UNL     1      -0.542   9.000 -25.957  1.00  0.00     0.049 C 
HETATM   17  C   UNL     1      -2.553   8.253 -27.224  1.00  0.00     0.008 A 
HETATM   18  C   UNL     1      -3.191   7.705 -28.338  1.00  0.00     0.014 A 
ENDBRANCH   9  11
ENDBRANCH   1   5
BRANCH   2  19
HETATM   19  N   UNL     1      -5.629   2.060 -32.879  1.00  0.00    -0.165 NA
HETATM   20  C   UNL     1      -4.959   0.953 -32.891  1.00  0.00     0.157 A 
HETATM   21  C   UNL     1      -3.603   0.654 -32.247  1.00  0.00     0.277 A 
HETATM   22  C   UNL     1      -5.373  -0.282 -33.544  1.00  0.00     0.027 A 
HETATM   23  O   UNL     1      -2.948   1.454 -31.613  1.00  0.00    -0.266 OA
HETATM   24  N   UNL     1      -3.331  -0.663 -32.551  1.00  0.00    -0.321 N 
HETATM   25  C   UNL     1      -4.364  -1.214 -33.309  1.00  0.00     0.048 A 
HETATM   26  H   UNL     1      -2.495  -1.143 -32.255  1.00  0.00     0.169 HD
HETATM   27  C   UNL     1      -4.450  -2.499 -33.800  1.00  0.00     0.030 A 
HETATM   28  C   UNL     1      -5.592  -2.827 -34.542  1.00  0.00     0.002 A 
HETATM   29  C   UNL     1      -6.611  -1.878 -34.775  1.00  0.00     0.001 A 
HETATM   30  C   UNL     1      -6.507  -0.580 -34.270  1.00  0.00     0.016 A 
ENDBRANCH   2  19
TORSDOF 3
ENDMDL
