MODEL 1
REMARK VINA RESULT:      -8.1      0.000      0.000
REMARK  9 active torsions:
REMARK  status: ('A' for Active; 'I' for Inactive)
REMARK    1  A    between atoms: C_2  and  N_3 
REMARK    2  A    between atoms: N_3  and  C_30 
REMARK    3  A    between atoms: N_3  and  C_5 
REMARK    4  A    between atoms: C_5  and  C_6 
REMARK    5  A    between atoms: C_5  and  C_14 
REMARK    6  A    between atoms: C_8  and  O_9 
REMARK    7  A    between atoms: C_14  and  N_15 
REMARK       I    between atoms: N_15  and  C_16 
REMARK    8  A    between atoms: C_16  and  C_17 
REMARK    9  A    between atoms: C_18  and  N_19 
ROOT
HETATM    1  C   UNL     1      -3.237   2.402 -31.792  1.00  0.00     0.161 C 
ENDROOT
BRANCH   1   2
HETATM    2  C   UNL     1      -3.958   3.792 -31.820  1.00  0.00     0.238 C 
BRANCH   2   3
HETATM    3  N   UNL     1      -5.415   3.690 -32.368  1.00  0.00    -0.062 N 
HETATM    4  H   UNL     1      -5.525   2.710 -32.651  1.00  0.00     0.280 HD
BRANCH   3   5
HETATM    5  C   UNL     1      -5.614   4.491 -33.655  1.00  0.00     0.231 C 
HETATM    6  C   UNL     1      -6.968   5.174 -33.730  1.00  0.00     0.034 C 
ENDBRANCH   3   5
BRANCH   3   7
HETATM    7  C   UNL     1      -6.472   3.957 -31.308  1.00  0.00     0.231 C 
HETATM    8  C   UNL     1      -6.263   3.110 -30.063  1.00  0.00     0.034 C 
ENDBRANCH   3   7
ENDBRANCH   2   3
BRANCH   2   9
HETATM    9  C   UNL     1      -3.133   4.786 -32.633  1.00  0.00    -0.023 A 
HETATM   10  C   UNL     1      -3.019   6.137 -32.255  1.00  0.00     0.046 A 
HETATM   11  C   UNL     1      -2.251   7.022 -33.015  1.00  0.00     0.068 A 
HETATM   12  C   UNL     1      -1.541   6.559 -34.119  1.00  0.00     0.037 A 
HETATM   13  C   UNL     1      -1.645   5.225 -34.506  1.00  0.00     0.003 A 
HETATM   14  C   UNL     1      -2.448   4.347 -33.778  1.00  0.00     0.009 A 
BRANCH  11  15
HETATM   15  O   UNL     1      -2.095   8.344 -32.706  1.00  0.00    -0.356 OA
HETATM   16  C   UNL     1      -2.290   8.647 -31.327  1.00  0.00     0.210 C 
ENDBRANCH  11  15
ENDBRANCH   2   9
ENDBRANCH   1   2
BRANCH   1  17
HETATM   17  N   UNL     1      -3.918   1.379 -32.560  1.00  0.00    -0.354 N 
HETATM   18  C   UNL     1      -4.097   0.124 -32.013  1.00  0.00     0.253 C 
HETATM   19  O   UNL     1      -3.787  -0.139 -30.857  1.00  0.00    -0.268 OA
HETATM   20  H   UNL     1      -4.047   1.479 -33.563  1.00  0.00     0.162 HD
BRANCH  18  21
HETATM   21  C   UNL     1      -4.714  -0.861 -32.926  1.00  0.00     0.053 A 
HETATM   22  C   UNL     1      -5.970  -0.629 -33.523  1.00  0.00     0.026 A 
HETATM   23  C   UNL     1      -6.468  -1.655 -34.345  1.00  0.00     0.025 A 
HETATM   24  C   UNL     1      -5.773  -2.859 -34.530  1.00  0.00     0.008 A 
HETATM   25  C   UNL     1      -4.543  -3.077 -33.910  1.00  0.00    -0.061 A 
HETATM   26  C   UNL     1      -3.795  -4.364 -34.097  1.00  0.00     0.048 C 
HETATM   27  C   UNL     1      -4.012  -2.065 -33.108  1.00  0.00     0.025 A 
BRANCH  22  28
HETATM   28  N   UNL     1      -6.673   0.576 -33.317  1.00  0.00    -0.283 NA
HETATM   29  C   UNL     1      -7.782   0.591 -32.342  1.00  0.00     0.096 C 
HETATM   30  C   UNL     1      -9.036   0.839 -33.169  1.00  0.00     0.016 C 
HETATM   31  C   UNL     1      -8.519   1.756 -34.260  1.00  0.00     0.016 C 
HETATM   32  C   UNL     1      -7.165   1.139 -34.600  1.00  0.00     0.096 C 
ENDBRANCH  22  28
ENDBRANCH  18  21
ENDBRANCH   1  17
TORSDOF 9
ENDMDL
MODEL 2
REMARK VINA RESULT:      -8.0      1.918      3.979
REMARK  9 active torsions:
REMARK  status: ('A' for Active; 'I' for Inactive)
REMARK    1  A    between atoms: C_2  and  N_3 
REMARK    2  A    between atoms: N_3  and  C_30 
REMARK    3  A    between atoms: N_3  and  C_5 
REMARK    4  A    between atoms: C_5  and  C_6 
REMARK    5  A    between atoms: C_5  and  C_14 
REMARK    6  A    between atoms: C_8  and  O_9 
REMARK    7  A    between atoms: C_14  and  N_15 
REMARK       I    between atoms: N_15  and  C_16 
REMARK    8  A    between atoms: C_16  and  C_17 
REMARK    9  A    between atoms: C_18  and  N_19 
ROOT
HETATM    1  C   UNL     1      -3.395   2.087 -31.668  1.00  0.00     0.161 C 
ENDROOT
BRANCH   1   2
HETATM    2  C   UNL     1      -4.053   3.491 -31.888  1.00  0.00     0.238 C 
BRANCH   2   3
HETATM    3  N   UNL     1      -3.295   4.623 -31.128  1.00  0.00    -0.062 N 
HETATM    4  H   UNL     1      -3.378   4.379 -30.135  1.00  0.00     0.280 HD
BRANCH   3   5
HETATM    5  C   UNL     1      -3.990   5.979 -31.254  1.00  0.00     0.231 C 
HETATM    6  C   UNL     1      -4.324   6.606 -29.912  1.00  0.00     0.034 C 
ENDBRANCH   3   5
BRANCH   3   7
HETATM    7  C   UNL     1      -1.808   4.662 -31.443  1.00  0.00     0.231 C 
HETATM    8  C   UNL     1      -1.536   5.075 -32.880  1.00  0.00     0.034 C 
ENDBRANCH   3   7
ENDBRANCH   2   3
BRANCH   2   9
HETATM    9  C   UNL     1      -5.523   3.442 -31.480  1.00  0.00    -0.023 A 
HETATM   10  C   UNL     1      -6.548   3.852 -32.354  1.00  0.00     0.046 A 
HETATM   11  C   UNL     1      -7.885   3.790 -31.954  1.00  0.00     0.068 A 
HETATM   12  C   UNL     1      -8.217   3.263 -30.710  1.00  0.00     0.037 A 
HETATM   13  C   UNL     1      -7.214   2.854 -29.834  1.00  0.00     0.003 A 
HETATM   14  C   UNL     1      -5.875   2.958 -30.209  1.00  0.00     0.009 A 
BRANCH  11  15
HETATM   15  O   UNL     1      -8.928   4.169 -32.750  1.00  0.00    -0.356 OA
HETATM   16  C   UNL     1     -10.202   3.716 -32.296  1.00  0.00     0.210 C 
ENDBRANCH  11  15
ENDBRANCH   2   9
ENDBRANCH   1   2
BRANCH   1  17
HETATM   17  N   UNL     1      -3.957   1.045 -32.503  1.00  0.00    -0.354 N 
HETATM   18  C   UNL     1      -4.125  -0.225 -31.986  1.00  0.00     0.253 C 
HETATM   19  O   UNL     1      -3.906  -0.489 -30.810  1.00  0.00    -0.268 OA
HETATM   20  H   UNL     1      -4.001   1.152 -33.512  1.00  0.00     0.162 HD
BRANCH  18  21
HETATM   21  C   UNL     1      -4.613  -1.224 -32.959  1.00  0.00     0.053 A 
HETATM   22  C   UNL     1      -5.805  -1.027 -33.686  1.00  0.00     0.026 A 
HETATM   23  C   UNL     1      -6.183  -2.064 -34.556  1.00  0.00     0.025 A 
HETATM   24  C   UNL     1      -5.438  -3.247 -34.667  1.00  0.00     0.008 A 
HETATM   25  C   UNL     1      -4.274  -3.431 -33.920  1.00  0.00    -0.061 A 
HETATM   26  C   UNL     1      -3.473  -4.695 -34.027  1.00  0.00     0.048 C 
HETATM   27  C   UNL     1      -3.860  -2.406 -33.067  1.00  0.00     0.025 A 
BRANCH  22  28
HETATM   28  N   UNL     1      -6.560   0.156 -33.556  1.00  0.00    -0.283 NA
HETATM   29  C   UNL     1      -7.679   0.179 -32.590  1.00  0.00     0.096 C 
HETATM   30  C   UNL     1      -8.934   0.325 -33.440  1.00  0.00     0.016 C 
HETATM   31  C   UNL     1      -8.446   1.199 -34.578  1.00  0.00     0.016 C 
HETATM   32  C   UNL     1      -7.064   0.623 -34.872  1.00  0.00     0.096 C 
ENDBRANCH  22  28
ENDBRANCH  18  21
ENDBRANCH   1  17
TORSDOF 9
ENDMDL
MODEL 3
REMARK VINA RESULT:      -8.0      2.101      4.085
REMARK  9 active torsions:
REMARK  status: ('A' for Active; 'I' for Inactive)
REMARK    1  A    between atoms: C_2  and  N_3 
REMARK    2  A    between atoms: N_3  and  C_30 
REMARK    3  A    between atoms: N_3  and  C_5 
REMARK    4  A    between atoms: C_5  and  C_6 
REMARK    5  A    between atoms: C_5  and  C_14 
REMARK    6  A    between atoms: C_8  and  O_9 
REMARK    7  A    between atoms: C_14  and  N_15 
REMARK       I    between atoms: N_15  and  C_16 
REMARK    8  A    between atoms: C_16  and  C_17 
REMARK    9  A    between atoms: C_18  and  N_19 
ROOT
HETATM    1  C   UNL     1      -8.066   2.080 -34.408  1.00  0.00     0.161 C 
ENDROOT
BRANCH   1   2
HETATM    2  C   UNL     1      -7.909   2.887 -33.075  1.00  0.00     0.238 C 
BRANCH   2   3
HETATM    3  N   UNL     1      -9.024   3.964 -32.903  1.00  0.00    -0.062 N 
HETATM    4  H   UNL     1      -8.524   4.834 -32.690  1.00  0.00     0.280 HD
BRANCH   3   5
HETATM    5  C   UNL     1      -9.900   3.710 -31.677  1.00  0.00     0.231 C 
HETATM    6  C   UNL     1      -9.269   2.756 -30.678  1.00  0.00     0.034 C 
ENDBRANCH   3   5
BRANCH   3   7
HETATM    7  C   UNL     1      -9.812   4.219 -34.179  1.00  0.00     0.231 C 
HETATM    8  C   UNL     1      -9.616   5.632 -34.701  1.00  0.00     0.034 C 
ENDBRANCH   3   7
ENDBRANCH   2   3
BRANCH   2   9
HETATM    9  C   UNL     1      -6.521   3.518 -33.013  1.00  0.00    -0.023 A 
HETATM   10  C   UNL     1      -5.953   4.169 -34.124  1.00  0.00     0.046 A 
HETATM   11  C   UNL     1      -4.682   4.742 -34.035  1.00  0.00     0.068 A 
HETATM   12  C   UNL     1      -3.994   4.729 -32.824  1.00  0.00     0.037 A 
HETATM   13  C   UNL     1      -4.543   4.088 -31.717  1.00  0.00     0.003 A 
HETATM   14  C   UNL     1      -5.791   3.472 -31.814  1.00  0.00     0.009 A 
BRANCH  11  15
HETATM   15  O   UNL     1      -4.072   5.390 -35.071  1.00  0.00    -0.356 OA
HETATM   16  C   UNL     1      -2.647   5.343 -35.030  1.00  0.00     0.210 C 
ENDBRANCH  11  15
ENDBRANCH   2   9
ENDBRANCH   1   2
BRANCH   1  17
HETATM   17  N   UNL     1      -7.195   0.925 -34.493  1.00  0.00    -0.354 N 
HETATM   18  C   UNL     1      -7.569  -0.256 -33.882  1.00  0.00     0.253 C 
HETATM   19  O   UNL     1      -8.662  -0.400 -33.347  1.00  0.00    -0.268 OA
HETATM   20  H   UNL     1      -6.223   1.025 -34.771  1.00  0.00     0.162 HD
BRANCH  18  21
HETATM   21  C   UNL     1      -6.557  -1.330 -33.952  1.00  0.00     0.053 A 
HETATM   22  C   UNL     1      -5.288  -1.190 -33.354  1.00  0.00     0.026 A 
HETATM   23  C   UNL     1      -4.400  -2.266 -33.519  1.00  0.00     0.025 A 
HETATM   24  C   UNL     1      -4.740  -3.401 -34.270  1.00  0.00     0.008 A 
HETATM   25  C   UNL     1      -5.993  -3.508 -34.874  1.00  0.00    -0.061 A 
HETATM   26  C   UNL     1      -6.365  -4.714 -35.684  1.00  0.00     0.048 C 
HETATM   27  C   UNL     1      -6.906  -2.464 -34.705  1.00  0.00     0.025 A 
BRANCH  22  28
HETATM   28  N   UNL     1      -4.945  -0.039 -32.616  1.00  0.00    -0.283 NA
HETATM   29  C   UNL     1      -3.534   0.400 -32.604  1.00  0.00     0.096 C 
HETATM   30  C   UNL     1      -3.073   0.217 -31.165  1.00  0.00     0.016 C 
HETATM   31  C   UNL     1      -4.332   0.542 -30.386  1.00  0.00     0.016 C 
HETATM   32  C   UNL     1      -5.420  -0.135 -31.213  1.00  0.00     0.096 C 
ENDBRANCH  22  28
ENDBRANCH  18  21
ENDBRANCH   1  17
TORSDOF 9
ENDMDL
MODEL 4
REMARK VINA RESULT:      -7.9      3.720      6.641
REMARK  9 active torsions:
REMARK  status: ('A' for Active; 'I' for Inactive)
REMARK    1  A    between atoms: C_2  and  N_3 
REMARK    2  A    between atoms: N_3  and  C_30 
REMARK    3  A    between atoms: N_3  and  C_5 
REMARK    4  A    between atoms: C_5  and  C_6 
REMARK    5  A    between atoms: C_5  and  C_14 
REMARK    6  A    between atoms: C_8  and  O_9 
REMARK    7  A    between atoms: C_14  and  N_15 
REMARK       I    between atoms: N_15  and  C_16 
REMARK    8  A    between atoms: C_16  and  C_17 
REMARK    9  A    between atoms: C_18  and  N_19 
ROOT
HETATM    1  C   UNL     1      -9.428   0.605 -32.937  1.00  0.00     0.161 C 
ENDROOT
BRANCH   1   2
HETATM    2  C   UNL     1      -9.148   2.042 -33.495  1.00  0.00     0.238 C 
BRANCH   2   3
HETATM    3  N   UNL     1      -8.684   3.027 -32.379  1.00  0.00    -0.062 N 
HETATM    4  H   UNL     1      -9.049   3.943 -32.663  1.00  0.00     0.280 HD
BRANCH   3   5
HETATM    5  C   UNL     1      -7.166   3.206 -32.349  1.00  0.00     0.231 C 
HETATM    6  C   UNL     1      -6.528   3.132 -33.725  1.00  0.00     0.034 C 
ENDBRANCH   3   5
BRANCH   3   7
HETATM    7  C   UNL     1      -9.293   2.721 -31.019  1.00  0.00     0.231 C 
HETATM    8  C   UNL     1     -10.336   3.750 -30.614  1.00  0.00     0.034 C 
ENDBRANCH   3   7
ENDBRANCH   2   3
BRANCH   2   9
HETATM    9  C   UNL     1     -10.387   2.568 -34.214  1.00  0.00    -0.023 A 
HETATM   10  C   UNL     1     -11.561   1.798 -34.325  1.00  0.00     0.046 A 
HETATM   11  C   UNL     1     -12.681   2.309 -34.984  1.00  0.00     0.068 A 
HETATM   12  C   UNL     1     -12.666   3.610 -35.480  1.00  0.00     0.037 A 
HETATM   13  C   UNL     1     -11.512   4.383 -35.377  1.00  0.00     0.003 A 
HETATM   14  C   UNL     1     -10.375   3.860 -34.763  1.00  0.00     0.009 A 
BRANCH  11  15
HETATM   15  O   UNL     1     -13.852   1.620 -35.128  1.00  0.00    -0.356 OA
HETATM   16  C   UNL     1     -14.009   0.540 -34.210  1.00  0.00     0.210 C 
ENDBRANCH  11  15
ENDBRANCH   2   9
ENDBRANCH   1   2
BRANCH   1  17
HETATM   17  N   UNL     1      -8.269  -0.264 -32.966  1.00  0.00    -0.354 N 
HETATM   18  C   UNL     1      -7.650  -0.535 -34.171  1.00  0.00     0.253 C 
HETATM   19  O   UNL     1      -7.983   0.010 -35.216  1.00  0.00    -0.268 OA
HETATM   20  H   UNL     1      -8.051  -0.868 -32.178  1.00  0.00     0.162 HD
BRANCH  18  21
HETATM   21  C   UNL     1      -6.544  -1.511 -34.087  1.00  0.00     0.053 A 
HETATM   22  C   UNL     1      -5.353  -1.219 -33.390  1.00  0.00     0.026 A 
HETATM   23  C   UNL     1      -4.361  -2.214 -33.412  1.00  0.00     0.025 A 
HETATM   24  C   UNL     1      -4.528  -3.414 -34.118  1.00  0.00     0.008 A 
HETATM   25  C   UNL     1      -5.705  -3.672 -34.821  1.00  0.00    -0.061 A 
HETATM   26  C   UNL     1      -5.892  -4.949 -35.584  1.00  0.00     0.048 C 
HETATM   27  C   UNL     1      -6.720  -2.712 -34.796  1.00  0.00     0.025 A 
BRANCH  22  28
HETATM   28  N   UNL     1      -5.183  -0.003 -32.698  1.00  0.00    -0.283 NA
HETATM   29  C   UNL     1      -3.879   0.686 -32.789  1.00  0.00     0.096 C 
HETATM   30  C   UNL     1      -3.303   0.634 -31.380  1.00  0.00     0.016 C 
HETATM   31  C   UNL     1      -4.550   0.747 -30.525  1.00  0.00     0.016 C 
HETATM   32  C   UNL     1      -5.544  -0.143 -31.265  1.00  0.00     0.096 C 
ENDBRANCH  22  28
ENDBRANCH  18  21
ENDBRANCH   1  17
TORSDOF 9
ENDMDL
MODEL 5
REMARK VINA RESULT:      -7.6      3.578      7.502
REMARK  9 active torsions:
REMARK  status: ('A' for Active; 'I' for Inactive)
REMARK    1  A    between atoms: C_2  and  N_3 
REMARK    2  A    between atoms: N_3  and  C_30 
REMARK    3  A    between atoms: N_3  and  C_5 
REMARK    4  A    between atoms: C_5  and  C_6 
REMARK    5  A    between atoms: C_5  and  C_14 
REMARK    6  A    between atoms: C_8  and  O_9 
REMARK    7  A    between atoms: C_14  and  N_15 
REMARK       I    between atoms: N_15  and  C_16 
REMARK    8  A    between atoms: C_16  and  C_17 
REMARK    9  A    between atoms: C_18  and  N_19 
ROOT
HETATM    1  C   UNL     1      -7.873   1.043 -34.644  1.00  0.00     0.161 C 
ENDROOT
BRANCH   1   2
HETATM    2  C   UNL     1      -6.968   0.880 -33.377  1.00  0.00     0.238 C 
BRANCH   2   3
HETATM    3  N   UNL     1      -6.123   2.158 -33.087  1.00  0.00    -0.062 N 
HETATM    4  H   UNL     1      -5.158   1.824 -32.989  1.00  0.00     0.280 HD
BRANCH   3   5
HETATM    5  C   UNL     1      -6.455   2.785 -31.733  1.00  0.00     0.231 C 
HETATM    6  C   UNL     1      -7.275   1.874 -30.837  1.00  0.00     0.034 C 
ENDBRANCH   3   5
BRANCH   3   7
HETATM    7  C   UNL     1      -6.123   3.150 -34.240  1.00  0.00     0.231 C 
HETATM    8  C   UNL     1      -6.621   4.522 -33.816  1.00  0.00     0.034 C 
ENDBRANCH   3   7
ENDBRANCH   2   3
BRANCH   2   9
HETATM    9  C   UNL     1      -6.073  -0.347 -33.534  1.00  0.00    -0.023 A 
HETATM   10  C   UNL     1      -6.349  -1.347 -34.486  1.00  0.00     0.046 A 
HETATM   11  C   UNL     1      -5.508  -2.455 -34.612  1.00  0.00     0.068 A 
HETATM   12  C   UNL     1      -4.354  -2.547 -33.838  1.00  0.00     0.037 A 
HETATM   13  C   UNL     1      -4.069  -1.566 -32.891  1.00  0.00     0.003 A 
HETATM   14  C   UNL     1      -4.930  -0.481 -32.729  1.00  0.00     0.009 A 
BRANCH  11  15
HETATM   15  O   UNL     1      -5.713  -3.460 -35.514  1.00  0.00    -0.356 OA
HETATM   16  C   UNL     1      -6.629  -4.461 -35.074  1.00  0.00     0.210 C 
ENDBRANCH  11  15
ENDBRANCH   2   9
ENDBRANCH   1   2
BRANCH   1  17
HETATM   17  N   UNL     1      -9.164   1.635 -34.363  1.00  0.00    -0.354 N 
HETATM   18  C   UNL     1     -10.078   0.942 -33.593  1.00  0.00     0.253 C 
HETATM   19  O   UNL     1      -9.807  -0.123 -33.052  1.00  0.00    -0.268 OA
HETATM   20  H   UNL     1      -9.507   2.421 -34.907  1.00  0.00     0.162 HD
BRANCH  18  21
HETATM   21  C   UNL     1     -11.393   1.602 -33.458  1.00  0.00     0.053 A 
HETATM   22  C   UNL     1     -11.531   2.849 -32.815  1.00  0.00     0.026 A 
HETATM   23  C   UNL     1     -12.837   3.359 -32.718  1.00  0.00     0.025 A 
HETATM   24  C   UNL     1     -13.948   2.650 -33.200  1.00  0.00     0.008 A 
HETATM   25  C   UNL     1     -13.791   1.406 -33.812  1.00  0.00    -0.061 A 
HETATM   26  C   UNL     1     -14.972   0.637 -34.324  1.00  0.00     0.048 C 
HETATM   27  C   UNL     1     -12.501   0.887 -33.945  1.00  0.00     0.025 A 
BRANCH  22  28
HETATM   28  N   UNL     1     -10.414   3.548 -32.315  1.00  0.00    -0.283 NA
HETATM   29  C   UNL     1     -10.304   3.758 -30.857  1.00  0.00     0.096 C 
HETATM   30  C   UNL     1     -10.428   5.263 -30.661  1.00  0.00     0.016 C 
HETATM   31  C   UNL     1      -9.748   5.801 -31.904  1.00  0.00     0.016 C 
HETATM   32  C   UNL     1     -10.249   4.858 -32.994  1.00  0.00     0.096 C 
ENDBRANCH  22  28
ENDBRANCH  18  21
ENDBRANCH   1  17
TORSDOF 9
ENDMDL
MODEL 6
REMARK VINA RESULT:      -7.5      2.853      5.410
REMARK  9 active torsions:
REMARK  status: ('A' for Active; 'I' for Inactive)
REMARK    1  A    between atoms: C_2  and  N_3 
REMARK    2  A    between atoms: N_3  and  C_30 
REMARK    3  A    between atoms: N_3  and  C_5 
REMARK    4  A    between atoms: C_5  and  C_6 
REMARK    5  A    between atoms: C_5  and  C_14 
REMARK    6  A    between atoms: C_8  and  O_9 
REMARK    7  A    between atoms: C_14  and  N_15 
REMARK       I    between atoms: N_15  and  C_16 
REMARK    8  A    between atoms: C_16  and  C_17 
REMARK    9  A    between atoms: C_18  and  N_19 
ROOT
HETATM    1  C   UNL     1      -9.485   1.116 -34.412  1.00  0.00     0.161 C 
ENDROOT
BRANCH   1   2
HETATM    2  C   UNL     1     -10.177   1.800 -33.185  1.00  0.00     0.238 C 
BRANCH   2   3
HETATM    3  N   UNL     1     -11.364   2.717 -33.612  1.00  0.00    -0.062 N 
HETATM    4  H   UNL     1     -11.327   3.517 -32.970  1.00  0.00     0.280 HD
BRANCH   3   5
HETATM    5  C   UNL     1     -12.725   2.073 -33.351  1.00  0.00     0.231 C 
HETATM    6  C   UNL     1     -13.143   1.097 -34.437  1.00  0.00     0.034 C 
ENDBRANCH   3   5
BRANCH   3   7
HETATM    7  C   UNL     1     -11.209   3.281 -35.016  1.00  0.00     0.231 C 
HETATM    8  C   UNL     1     -10.853   4.759 -35.005  1.00  0.00     0.034 C 
ENDBRANCH   3   7
ENDBRANCH   2   3
BRANCH   2   9
HETATM    9  C   UNL     1      -9.143   2.579 -32.376  1.00  0.00    -0.023 A 
HETATM   10  C   UNL     1      -8.071   3.250 -32.995  1.00  0.00     0.046 A 
HETATM   11  C   UNL     1      -7.143   3.959 -32.229  1.00  0.00     0.068 A 
HETATM   12  C   UNL     1      -7.310   4.062 -30.851  1.00  0.00     0.037 A 
HETATM   13  C   UNL     1      -8.365   3.404 -30.224  1.00  0.00     0.003 A 
HETATM   14  C   UNL     1      -9.267   2.654 -30.979  1.00  0.00     0.009 A 
BRANCH  11  15
HETATM   15  O   UNL     1      -6.082   4.634 -32.763  1.00  0.00    -0.356 OA
HETATM   16  C   UNL     1      -5.750   4.240 -34.093  1.00  0.00     0.210 C 
ENDBRANCH  11  15
ENDBRANCH   2   9
ENDBRANCH   1   2
BRANCH   1  17
HETATM   17  N   UNL     1      -8.458   0.164 -34.043  1.00  0.00    -0.354 N 
HETATM   18  C   UNL     1      -7.324   0.050 -34.823  1.00  0.00     0.253 C 
HETATM   19  O   UNL     1      -7.100   0.795 -35.770  1.00  0.00    -0.268 OA
HETATM   20  H   UNL     1      -8.653  -0.583 -33.383  1.00  0.00     0.162 HD
BRANCH  18  21
HETATM   21  C   UNL     1      -6.396  -1.022 -34.404  1.00  0.00     0.053 A 
HETATM   22  C   UNL     1      -5.362  -0.783 -33.477  1.00  0.00     0.026 A 
HETATM   23  C   UNL     1      -4.524  -1.873 -33.185  1.00  0.00     0.025 A 
HETATM   24  C   UNL     1      -4.682  -3.119 -33.809  1.00  0.00     0.008 A 
HETATM   25  C   UNL     1      -5.698  -3.326 -34.742  1.00  0.00    -0.061 A 
HETATM   26  C   UNL     1      -5.872  -4.652 -35.420  1.00  0.00     0.048 C 
HETATM   27  C   UNL     1      -6.562  -2.268 -35.033  1.00  0.00     0.025 A 
BRANCH  22  28
HETATM   28  N   UNL     1      -5.195   0.477 -32.867  1.00  0.00    -0.283 NA
HETATM   29  C   UNL     1      -3.830   1.028 -32.741  1.00  0.00     0.096 C 
HETATM   30  C   UNL     1      -3.553   1.069 -31.244  1.00  0.00     0.016 C 
HETATM   31  C   UNL     1      -4.923   1.385 -30.678  1.00  0.00     0.016 C 
HETATM   32  C   UNL     1      -5.846   0.520 -31.533  1.00  0.00     0.096 C 
ENDBRANCH  22  28
ENDBRANCH  18  21
ENDBRANCH   1  17
TORSDOF 9
ENDMDL
MODEL 7
REMARK VINA RESULT:      -7.4      1.904      3.413
REMARK  9 active torsions:
REMARK  status: ('A' for Active; 'I' for Inactive)
REMARK    1  A    between atoms: C_2  and  N_3 
REMARK    2  A    between atoms: N_3  and  C_30 
REMARK    3  A    between atoms: N_3  and  C_5 
REMARK    4  A    between atoms: C_5  and  C_6 
REMARK    5  A    between atoms: C_5  and  C_14 
REMARK    6  A    between atoms: C_8  and  O_9 
REMARK    7  A    between atoms: C_14  and  N_15 
REMARK       I    between atoms: N_15  and  C_16 
REMARK    8  A    between atoms: C_16  and  C_17 
REMARK    9  A    between atoms: C_18  and  N_19 
ROOT
HETATM    1  C   UNL     1      -3.333   2.429 -31.811  1.00  0.00     0.161 C 
ENDROOT
BRANCH   1   2
HETATM    2  C   UNL     1      -3.308   3.818 -32.535  1.00  0.00     0.238 C 
BRANCH   2   3
HETATM    3  N   UNL     1      -1.896   4.479 -32.495  1.00  0.00    -0.062 N 
HETATM    4  H   UNL     1      -1.240   3.721 -32.713  1.00  0.00     0.280 HD
BRANCH   3   5
HETATM    5  C   UNL     1      -1.504   4.938 -31.090  1.00  0.00     0.231 C 
HETATM    6  C   UNL     1      -0.014   5.183 -30.935  1.00  0.00     0.034 C 
ENDBRANCH   3   5
BRANCH   3   7
HETATM    7  C   UNL     1      -1.702   5.542 -33.565  1.00  0.00     0.231 C 
HETATM    8  C   UNL     1      -1.766   4.961 -34.968  1.00  0.00     0.034 C 
ENDBRANCH   3   7
ENDBRANCH   2   3
BRANCH   2   9
HETATM    9  C   UNL     1      -4.364   4.737 -31.928  1.00  0.00    -0.023 A 
HETATM   10  C   UNL     1      -4.897   4.506 -30.646  1.00  0.00     0.046 A 
HETATM   11  C   UNL     1      -5.859   5.368 -30.113  1.00  0.00     0.068 A 
HETATM   12  C   UNL     1      -6.249   6.500 -30.823  1.00  0.00     0.037 A 
HETATM   13  C   UNL     1      -5.731   6.741 -32.093  1.00  0.00     0.003 A 
HETATM   14  C   UNL     1      -4.807   5.858 -32.649  1.00  0.00     0.009 A 
BRANCH  11  15
HETATM   15  O   UNL     1      -6.416   5.206 -28.877  1.00  0.00    -0.356 OA
HETATM   16  C   UNL     1      -5.643   5.754 -27.812  1.00  0.00     0.210 C 
ENDBRANCH  11  15
ENDBRANCH   2   9
ENDBRANCH   1   2
BRANCH   1  17
HETATM   17  N   UNL     1      -3.952   1.378 -32.592  1.00  0.00    -0.354 N 
HETATM   18  C   UNL     1      -4.197   0.151 -32.008  1.00  0.00     0.253 C 
HETATM   19  O   UNL     1      -3.999  -0.061 -30.818  1.00  0.00    -0.268 OA
HETATM   20  H   UNL     1      -3.986   1.433 -33.606  1.00  0.00     0.162 HD
BRANCH  18  21
HETATM   21  C   UNL     1      -4.739  -0.870 -32.929  1.00  0.00     0.053 A 
HETATM   22  C   UNL     1      -5.981  -0.697 -33.575  1.00  0.00     0.026 A 
HETATM   23  C   UNL     1      -6.405  -1.753 -34.400  1.00  0.00     0.025 A 
HETATM   24  C   UNL     1      -5.656  -2.930 -34.543  1.00  0.00     0.008 A 
HETATM   25  C   UNL     1      -4.441  -3.090 -33.875  1.00  0.00    -0.061 A 
HETATM   26  C   UNL     1      -3.636  -4.347 -34.016  1.00  0.00     0.048 C 
HETATM   27  C   UNL     1      -3.982  -2.046 -33.068  1.00  0.00     0.025 A 
BRANCH  22  28
HETATM   28  N   UNL     1      -6.738   0.480 -33.412  1.00  0.00    -0.283 NA
HETATM   29  C   UNL     1      -7.819   0.493 -32.405  1.00  0.00     0.096 C 
HETATM   30  C   UNL     1      -9.107   0.632 -33.204  1.00  0.00     0.016 C 
HETATM   31  C   UNL     1      -8.670   1.512 -34.358  1.00  0.00     0.016 C 
HETATM   32  C   UNL     1      -7.296   0.946 -34.707  1.00  0.00     0.096 C 
ENDBRANCH  22  28
ENDBRANCH  18  21
ENDBRANCH   1  17
TORSDOF 9
ENDMDL
MODEL 8
REMARK VINA RESULT:      -7.3      1.789      7.331
REMARK  9 active torsions:
REMARK  status: ('A' for Active; 'I' for Inactive)
REMARK    1  A    between atoms: C_2  and  N_3 
REMARK    2  A    between atoms: N_3  and  C_30 
REMARK    3  A    between atoms: N_3  and  C_5 
REMARK    4  A    between atoms: C_5  and  C_6 
REMARK    5  A    between atoms: C_5  and  C_14 
REMARK    6  A    between atoms: C_8  and  O_9 
REMARK    7  A    between atoms: C_14  and  N_15 
REMARK       I    between atoms: N_15  and  C_16 
REMARK    8  A    between atoms: C_16  and  C_17 
REMARK    9  A    between atoms: C_18  and  N_19 
ROOT
HETATM    1  C   UNL     1      -5.080   0.167 -32.665  1.00  0.00     0.161 C 
ENDROOT
BRANCH   1   2
HETATM    2  C   UNL     1      -6.155  -0.424 -33.639  1.00  0.00     0.238 C 
BRANCH   2   3
HETATM    3  N   UNL     1      -7.600  -0.305 -33.065  1.00  0.00    -0.062 N 
HETATM    4  H   UNL     1      -7.935  -1.271 -32.983  1.00  0.00     0.280 HD
BRANCH   3   5
HETATM    5  C   UNL     1      -8.566   0.360 -34.045  1.00  0.00     0.231 C 
HETATM    6  C   UNL     1      -7.957   0.604 -35.414  1.00  0.00     0.034 C 
ENDBRANCH   3   5
BRANCH   3   7
HETATM    7  C   UNL     1      -7.641   0.288 -31.665  1.00  0.00     0.231 C 
HETATM    8  C   UNL     1      -8.828   1.216 -31.469  1.00  0.00     0.034 C 
ENDBRANCH   3   7
ENDBRANCH   2   3
BRANCH   2   9
HETATM    9  C   UNL     1      -5.812  -1.874 -33.968  1.00  0.00    -0.023 A 
HETATM   10  C   UNL     1      -4.624  -2.477 -33.510  1.00  0.00     0.046 A 
HETATM   11  C   UNL     1      -4.340  -3.808 -33.823  1.00  0.00     0.068 A 
HETATM   12  C   UNL     1      -5.262  -4.568 -34.538  1.00  0.00     0.037 A 
HETATM   13  C   UNL     1      -6.440  -3.986 -34.998  1.00  0.00     0.003 A 
HETATM   14  C   UNL     1      -6.707  -2.644 -34.730  1.00  0.00     0.009 A 
BRANCH  11  15
HETATM   15  O   UNL     1      -3.211  -4.456 -33.411  1.00  0.00    -0.356 OA
HETATM   16  C   UNL     1      -2.764  -4.080 -32.110  1.00  0.00     0.210 C 
ENDBRANCH  11  15
ENDBRANCH   2   9
ENDBRANCH   1   2
BRANCH   1  17
HETATM   17  N   UNL     1      -4.804   1.572 -32.889  1.00  0.00    -0.354 N 
HETATM   18  C   UNL     1      -3.764   2.177 -32.212  1.00  0.00     0.253 C 
HETATM   19  O   UNL     1      -2.995   1.550 -31.493  1.00  0.00    -0.268 OA
HETATM   20  H   UNL     1      -5.492   2.174 -33.333  1.00  0.00     0.162 HD
BRANCH  18  21
HETATM   21  C   UNL     1      -3.643   3.631 -32.447  1.00  0.00     0.053 A 
HETATM   22  C   UNL     1      -4.610   4.540 -31.970  1.00  0.00     0.026 A 
HETATM   23  C   UNL     1      -4.403   5.893 -32.287  1.00  0.00     0.025 A 
HETATM   24  C   UNL     1      -3.317   6.314 -33.067  1.00  0.00     0.008 A 
HETATM   25  C   UNL     1      -2.384   5.395 -33.550  1.00  0.00    -0.061 A 
HETATM   26  C   UNL     1      -1.223   5.834 -34.390  1.00  0.00     0.048 C 
HETATM   27  C   UNL     1      -2.551   4.046 -33.228  1.00  0.00     0.025 A 
BRANCH  22  28
HETATM   28  N   UNL     1      -5.711   4.108 -31.202  1.00  0.00    -0.283 NA
HETATM   29  C   UNL     1      -7.074   4.425 -31.677  1.00  0.00     0.096 C 
HETATM   30  C   UNL     1      -7.644   5.384 -30.640  1.00  0.00     0.016 C 
HETATM   31  C   UNL     1      -7.018   4.871 -29.358  1.00  0.00     0.016 C 
HETATM   32  C   UNL     1      -5.590   4.550 -29.790  1.00  0.00     0.096 C 
ENDBRANCH  22  28
ENDBRANCH  18  21
ENDBRANCH   1  17
TORSDOF 9
ENDMDL
MODEL 9
REMARK VINA RESULT:      -7.3      2.582      4.841
REMARK  9 active torsions:
REMARK  status: ('A' for Active; 'I' for Inactive)
REMARK    1  A    between atoms: C_2  and  N_3 
REMARK    2  A    between atoms: N_3  and  C_30 
REMARK    3  A    between atoms: N_3  and  C_5 
REMARK    4  A    between atoms: C_5  and  C_6 
REMARK    5  A    between atoms: C_5  and  C_14 
REMARK    6  A    between atoms: C_8  and  O_9 
REMARK    7  A    between atoms: C_14  and  N_15 
REMARK       I    between atoms: N_15  and  C_16 
REMARK    8  A    between atoms: C_16  and  C_17 
REMARK    9  A    between atoms: C_18  and  N_19 
ROOT
HETATM    1  C   UNL     1      -9.550   0.686 -33.563  1.00  0.00     0.161 C 
ENDROOT
BRANCH   1   2
HETATM    2  C   UNL     1      -9.597   1.743 -32.407  1.00  0.00     0.238 C 
BRANCH   2   3
HETATM    3  N   UNL     1     -10.933   2.548 -32.399  1.00  0.00    -0.062 N 
HETATM    4  H   UNL     1     -11.520   2.082 -31.698  1.00  0.00     0.280 HD
BRANCH   3   5
HETATM    5  C   UNL     1     -11.708   2.411 -33.709  1.00  0.00     0.231 C 
HETATM    6  C   UNL     1     -13.147   1.970 -33.508  1.00  0.00     0.034 C 
ENDBRANCH   3   5
BRANCH   3   7
HETATM    7  C   UNL     1     -10.762   3.986 -31.933  1.00  0.00     0.231 C 
HETATM    8  C   UNL     1     -11.129   4.162 -30.469  1.00  0.00     0.034 C 
ENDBRANCH   3   7
ENDBRANCH   2   3
BRANCH   2   9
HETATM    9  C   UNL     1      -8.393   2.676 -32.510  1.00  0.00    -0.023 A 
HETATM   10  C   UNL     1      -7.503   2.857 -31.434  1.00  0.00     0.046 A 
HETATM   11  C   UNL     1      -6.407   3.713 -31.559  1.00  0.00     0.068 A 
HETATM   12  C   UNL     1      -6.150   4.344 -32.773  1.00  0.00     0.037 A 
HETATM   13  C   UNL     1      -7.021   4.175 -33.846  1.00  0.00     0.003 A 
HETATM   14  C   UNL     1      -8.144   3.359 -33.711  1.00  0.00     0.009 A 
BRANCH  11  15
HETATM   15  O   UNL     1      -5.503   3.934 -30.559  1.00  0.00    -0.356 OA
HETATM   16  C   UNL     1      -4.235   4.404 -31.011  1.00  0.00     0.210 C 
ENDBRANCH  11  15
ENDBRANCH   2   9
ENDBRANCH   1   2
BRANCH   1  17
HETATM   17  N   UNL     1      -8.460  -0.260 -33.439  1.00  0.00    -0.354 N 
HETATM   18  C   UNL     1      -7.515  -0.345 -34.442  1.00  0.00     0.253 C 
HETATM   19  O   UNL     1      -7.502   0.421 -35.398  1.00  0.00    -0.268 OA
HETATM   20  H   UNL     1      -8.506  -1.023 -32.769  1.00  0.00     0.162 HD
BRANCH  18  21
HETATM   21  C   UNL     1      -6.512  -1.413 -34.251  1.00  0.00     0.053 A 
HETATM   22  C   UNL     1      -5.385  -1.230 -33.423  1.00  0.00     0.026 A 
HETATM   23  C   UNL     1      -4.485  -2.307 -33.349  1.00  0.00     0.025 A 
HETATM   24  C   UNL     1      -4.674  -3.483 -34.089  1.00  0.00     0.008 A 
HETATM   25  C   UNL     1      -5.783  -3.633 -34.922  1.00  0.00    -0.061 A 
HETATM   26  C   UNL     1      -5.991  -4.885 -35.721  1.00  0.00     0.048 C 
HETATM   27  C   UNL     1      -6.708  -2.590 -34.994  1.00  0.00     0.025 A 
BRANCH  22  28
HETATM   28  N   UNL     1      -5.191  -0.037 -32.697  1.00  0.00    -0.283 NA
HETATM   29  C   UNL     1      -3.852   0.587 -32.706  1.00  0.00     0.096 C 
HETATM   30  C   UNL     1      -3.353   0.479 -31.272  1.00  0.00     0.016 C 
HETATM   31  C   UNL     1      -4.634   0.638 -30.478  1.00  0.00     0.016 C 
HETATM   32  C   UNL     1      -5.632  -0.186 -31.287  1.00  0.00     0.096 C 
ENDBRANCH  22  28
ENDBRANCH  18  21
ENDBRANCH   1  17
TORSDOF 9
ENDMDL
MODEL 10
REMARK VINA RESULT:      -7.3      2.027      7.855
REMARK  9 active torsions:
REMARK  status: ('A' for Active; 'I' for Inactive)
REMARK    1  A    between atoms: C_2  and  N_3 
REMARK    2  A    between atoms: N_3  and  C_30 
REMARK    3  A    between atoms: N_3  and  C_5 
REMARK    4  A    between atoms: C_5  and  C_6 
REMARK    5  A    between atoms: C_5  and  C_14 
REMARK    6  A    between atoms: C_8  and  O_9 
REMARK    7  A    between atoms: C_14  and  N_15 
REMARK       I    between atoms: N_15  and  C_16 
REMARK    8  A    between atoms: C_16  and  C_17 
REMARK    9  A    between atoms: C_18  and  N_19 
ROOT
HETATM    1  C   UNL     1      -4.713   1.244 -33.081  1.00  0.00     0.161 C 
ENDROOT
BRANCH   1   2
HETATM    2  C   UNL     1      -6.074   0.507 -33.318  1.00  0.00     0.238 C 
BRANCH   2   3
HETATM    3  N   UNL     1      -7.006   0.573 -32.069  1.00  0.00    -0.062 N 
HETATM    4  H   UNL     1      -6.936   1.541 -31.735  1.00  0.00     0.280 HD
BRANCH   3   5
HETATM    5  C   UNL     1      -6.490  -0.277 -30.908  1.00  0.00     0.231 C 
HETATM    6  C   UNL     1      -5.997   0.551 -29.734  1.00  0.00     0.034 C 
ENDBRANCH   3   5
BRANCH   3   7
HETATM    7  C   UNL     1      -8.471   0.335 -32.402  1.00  0.00     0.231 C 
HETATM    8  C   UNL     1      -9.321   1.572 -32.164  1.00  0.00     0.034 C 
ENDBRANCH   3   7
ENDBRANCH   2   3
BRANCH   2   9
HETATM    9  C   UNL     1      -5.815  -0.937 -33.736  1.00  0.00    -0.023 A 
HETATM   10  C   UNL     1      -4.676  -1.641 -33.300  1.00  0.00     0.046 A 
HETATM   11  C   UNL     1      -4.468  -2.964 -33.694  1.00  0.00     0.068 A 
HETATM   12  C   UNL     1      -5.421  -3.619 -34.471  1.00  0.00     0.037 A 
HETATM   13  C   UNL     1      -6.552  -2.936 -34.910  1.00  0.00     0.003 A 
HETATM   14  C   UNL     1      -6.741  -1.599 -34.559  1.00  0.00     0.009 A 
BRANCH  11  15
HETATM   15  O   UNL     1      -3.388  -3.706 -33.308  1.00  0.00    -0.356 OA
HETATM   16  C   UNL     1      -3.027  -3.543 -31.938  1.00  0.00     0.210 C 
ENDBRANCH  11  15
ENDBRANCH   2   9
ENDBRANCH   1   2
BRANCH   1  17
HETATM   17  N   UNL     1      -4.859   2.554 -32.481  1.00  0.00    -0.354 N 
HETATM   18  C   UNL     1      -3.947   2.973 -31.531  1.00  0.00     0.253 C 
HETATM   19  O   UNL     1      -2.954   2.318 -31.240  1.00  0.00    -0.268 OA
HETATM   20  H   UNL     1      -5.733   3.066 -32.552  1.00  0.00     0.162 HD
BRANCH  18  21
HETATM   21  C   UNL     1      -4.256   4.283 -30.920  1.00  0.00     0.053 A 
HETATM   22  C   UNL     1      -3.506   5.437 -31.227  1.00  0.00     0.026 A 
HETATM   23  C   UNL     1      -3.875   6.615 -30.556  1.00  0.00     0.025 A 
HETATM   24  C   UNL     1      -4.905   6.636 -29.604  1.00  0.00     0.008 A 
HETATM   25  C   UNL     1      -5.618   5.476 -29.298  1.00  0.00    -0.061 A 
HETATM   26  C   UNL     1      -6.716   5.486 -28.277  1.00  0.00     0.048 C 
HETATM   27  C   UNL     1      -5.291   4.296 -29.969  1.00  0.00     0.025 A 
BRANCH  22  28
HETATM   28  N   UNL     1      -2.459   5.406 -32.171  1.00  0.00    -0.283 NA
HETATM   29  C   UNL     1      -1.065   5.418 -31.682  1.00  0.00     0.096 C 
HETATM   30  C   UNL     1      -0.489   6.745 -32.156  1.00  0.00     0.016 C 
HETATM   31  C   UNL     1      -1.189   6.936 -33.487  1.00  0.00     0.016 C 
HETATM   32  C   UNL     1      -2.613   6.481 -33.183  1.00  0.00     0.096 C 
ENDBRANCH  22  28
ENDBRANCH  18  21
ENDBRANCH   1  17
TORSDOF 9
ENDMDL
