MODEL 1
REMARK VINA RESULT:      -8.8      0.000      0.000
REMARK  9 active torsions:
REMARK  status: ('A' for Active; 'I' for Inactive)
REMARK    1  A    between atoms: O_2  and  C_3 
REMARK    2  A    between atoms: C_3  and  C_4 
REMARK    3  A    between atoms: C_6  and  C_7 
REMARK    4  A    between atoms: C_7  and  N_8 
REMARK       I    between atoms: N_8  and  C_9 
REMARK    5  A    between atoms: C_9  and  C_10 
REMARK    6  A    between atoms: C_10  and  S_11 
REMARK    7  A    between atoms: S_11  and  C_12 
REMARK    8  A    between atoms: C_12  and  C_13 
REMARK       I    between atoms: C_13  and  N_14 
REMARK    9  A    between atoms: N_14  and  C_15 
ROOT
HETATM    1  S   UNL     1      -7.334   4.048 -33.852  1.00  0.00    -0.150 SA
ENDROOT
BRANCH   1   2
HETATM    2  C   UNL     1      -6.005   5.258 -33.554  1.00  0.00     0.177 C 
BRANCH   2   3
HETATM    3  C   UNL     1      -4.598   4.730 -33.793  1.00  0.00     0.227 C 
HETATM    4  N   UNL     1      -3.792   5.481 -34.607  1.00  0.00    -0.354 N 
HETATM    5  H   UNL     1      -4.126   6.380 -34.940  1.00  0.00     0.162 HD
HETATM    6  O   UNL     1      -4.203   3.710 -33.231  1.00  0.00    -0.273 OA
BRANCH   4   7
HETATM    7  C   UNL     1      -2.390   5.181 -34.781  1.00  0.00     0.187 C 
BRANCH   7   8
HETATM    8  C   UNL     1      -1.611   5.814 -33.690  1.00  0.00     0.071 A 
HETATM    9  O   UNL     1      -1.098   4.990 -32.727  1.00  0.00    -0.307 OA
HETATM   10  C   UNL     1      -0.417   5.775 -31.833  1.00  0.00     0.150 A 
HETATM   11  C   UNL     1      -0.491   7.096 -32.238  1.00  0.00     0.046 A 
HETATM   12  C   UNL     1      -1.260   7.121 -33.425  1.00  0.00     0.037 A 
BRANCH  10  13
HETATM   13  C   UNL     1       0.240   5.185 -30.688  1.00  0.00     0.316 C 
HETATM   14  O   UNL     1       1.185   4.406 -30.743  1.00  0.00    -0.257 OA
BRANCH  13  15
HETATM   15  O   UNL     1      -0.338   5.618 -29.530  1.00  0.00    -0.321 OA
HETATM   16  C   UNL     1       0.597   5.959 -28.508  1.00  0.00     0.213 C 
ENDBRANCH  13  15
ENDBRANCH  10  13
ENDBRANCH   7   8
ENDBRANCH   4   7
ENDBRANCH   2   3
ENDBRANCH   1   2
BRANCH   1  17
HETATM   17  C   UNL     1      -7.469   3.345 -32.166  1.00  0.00     0.177 C 
BRANCH  17  18
HETATM   18  C   UNL     1      -7.163   1.847 -32.139  1.00  0.00     0.231 C 
HETATM   19  N   UNL     1      -6.322   1.430 -33.154  1.00  0.00    -0.327 N 
HETATM   20  H   UNL     1      -5.947   2.176 -33.734  1.00  0.00     0.169 HD
HETATM   21  O   UNL     1      -7.712   1.124 -31.312  1.00  0.00    -0.272 OA
BRANCH  19  22
HETATM   22  C   UNL     1      -5.842   0.133 -33.419  1.00  0.00     0.035 A 
HETATM   23  C   UNL     1      -6.614  -0.888 -33.978  1.00  0.00     0.042 A 
HETATM   24  C   UNL     1      -6.076  -2.172 -34.189  1.00  0.00    -0.024 A 
HETATM   25  C   UNL     1      -4.731  -2.430 -33.842  1.00  0.00    -0.026 A 
HETATM   26  C   UNL     1      -6.850  -3.208 -34.735  1.00  0.00     0.012 A 
HETATM   27  C   UNL     1      -3.960  -1.398 -33.292  1.00  0.00     0.014 A 
HETATM   28  C   UNL     1      -4.198  -3.713 -34.049  1.00  0.00     0.012 A 
HETATM   29  C   UNL     1      -4.511  -0.131 -33.081  1.00  0.00     0.030 A 
HETATM   30  C   UNL     1      -4.984  -4.732 -34.591  1.00  0.00     0.001 A 
HETATM   31  C   UNL     1      -6.308  -4.479 -34.933  1.00  0.00     0.001 A 
ENDBRANCH  19  22
ENDBRANCH  17  18
ENDBRANCH   1  17
TORSDOF 9
ENDMDL
MODEL 2
REMARK VINA RESULT:      -8.3      3.542      7.658
REMARK  9 active torsions:
REMARK  status: ('A' for Active; 'I' for Inactive)
REMARK    1  A    between atoms: O_2  and  C_3 
REMARK    2  A    between atoms: C_3  and  C_4 
REMARK    3  A    between atoms: C_6  and  C_7 
REMARK    4  A    between atoms: C_7  and  N_8 
REMARK       I    between atoms: N_8  and  C_9 
REMARK    5  A    between atoms: C_9  and  C_10 
REMARK    6  A    between atoms: C_10  and  S_11 
REMARK    7  A    between atoms: S_11  and  C_12 
REMARK    8  A    between atoms: C_12  and  C_13 
REMARK       I    between atoms: C_13  and  N_14 
REMARK    9  A    between atoms: N_14  and  C_15 
ROOT
HETATM    1  S   UNL     1      -4.483   4.449 -31.077  1.00  0.00    -0.150 SA
ENDROOT
BRANCH   1   2
HETATM    2  C   UNL     1      -5.533   4.422 -32.567  1.00  0.00     0.177 C 
BRANCH   2   3
HETATM    3  C   UNL     1      -7.026   4.524 -32.295  1.00  0.00     0.227 C 
HETATM    4  N   UNL     1      -7.714   3.343 -32.197  1.00  0.00    -0.354 N 
HETATM    5  H   UNL     1      -7.199   2.468 -32.223  1.00  0.00     0.162 HD
HETATM    6  O   UNL     1      -7.561   5.617 -32.118  1.00  0.00    -0.273 OA
BRANCH   4   7
HETATM    7  C   UNL     1      -9.095   3.295 -31.779  1.00  0.00     0.187 C 
BRANCH   7   8
HETATM    8  C   UNL     1      -9.749   2.105 -32.375  1.00  0.00     0.071 A 
HETATM    9  O   UNL     1     -10.880   2.315 -33.113  1.00  0.00    -0.307 OA
HETATM   10  C   UNL     1     -11.308   1.095 -33.569  1.00  0.00     0.150 A 
HETATM   11  C   UNL     1     -10.440   0.114 -33.126  1.00  0.00     0.046 A 
HETATM   12  C   UNL     1      -9.444   0.760 -32.357  1.00  0.00     0.037 A 
BRANCH  10  13
HETATM   13  C   UNL     1     -12.497   0.991 -34.384  1.00  0.00     0.316 C 
HETATM   14  O   UNL     1     -12.616   1.445 -35.517  1.00  0.00    -0.257 OA
BRANCH  13  15
HETATM   15  O   UNL     1     -13.475   0.311 -33.718  1.00  0.00    -0.321 OA
HETATM   16  C   UNL     1     -14.591   1.118 -33.345  1.00  0.00     0.213 C 
ENDBRANCH  13  15
ENDBRANCH  10  13
ENDBRANCH   7   8
ENDBRANCH   4   7
ENDBRANCH   2   3
ENDBRANCH   1   2
BRANCH   1  17
HETATM   17  C   UNL     1      -3.525   2.916 -31.371  1.00  0.00     0.177 C 
BRANCH  17  18
HETATM   18  C   UNL     1      -4.429   1.706 -31.608  1.00  0.00     0.231 C 
HETATM   19  N   UNL     1      -4.124   0.998 -32.756  1.00  0.00    -0.327 N 
HETATM   20  H   UNL     1      -3.293   1.314 -33.247  1.00  0.00     0.169 HD
HETATM   21  O   UNL     1      -5.373   1.488 -30.853  1.00  0.00    -0.272 OA
BRANCH  19  22
HETATM   22  C   UNL     1      -4.749  -0.156 -33.268  1.00  0.00     0.035 A 
HETATM   23  C   UNL     1      -4.142  -1.412 -33.329  1.00  0.00     0.042 A 
HETATM   24  C   UNL     1      -4.817  -2.518 -33.880  1.00  0.00    -0.024 A 
HETATM   25  C   UNL     1      -6.133  -2.359 -34.369  1.00  0.00    -0.026 A 
HETATM   26  C   UNL     1      -4.208  -3.781 -33.961  1.00  0.00     0.012 A 
HETATM   27  C   UNL     1      -6.740  -1.099 -34.293  1.00  0.00     0.014 A 
HETATM   28  C   UNL     1      -6.803  -3.463 -34.922  1.00  0.00     0.012 A 
HETATM   29  C   UNL     1      -6.053  -0.009 -33.750  1.00  0.00     0.030 A 
HETATM   30  C   UNL     1      -6.180  -4.710 -34.996  1.00  0.00     0.001 A 
HETATM   31  C   UNL     1      -4.884  -4.868 -34.516  1.00  0.00     0.001 A 
ENDBRANCH  19  22
ENDBRANCH  17  18
ENDBRANCH   1  17
TORSDOF 9
ENDMDL
MODEL 3
REMARK VINA RESULT:      -8.2      1.637      2.093
REMARK  9 active torsions:
REMARK  status: ('A' for Active; 'I' for Inactive)
REMARK    1  A    between atoms: O_2  and  C_3 
REMARK    2  A    between atoms: C_3  and  C_4 
REMARK    3  A    between atoms: C_6  and  C_7 
REMARK    4  A    between atoms: C_7  and  N_8 
REMARK       I    between atoms: N_8  and  C_9 
REMARK    5  A    between atoms: C_9  and  C_10 
REMARK    6  A    between atoms: C_10  and  S_11 
REMARK    7  A    between atoms: S_11  and  C_12 
REMARK    8  A    between atoms: C_12  and  C_13 
REMARK       I    between atoms: C_13  and  N_14 
REMARK    9  A    between atoms: N_14  and  C_15 
ROOT
HETATM    1  S   UNL     1      -7.499   3.738 -30.065  1.00  0.00    -0.150 SA
ENDROOT
BRANCH   1   2
HETATM    2  C   UNL     1      -7.533   4.955 -31.422  1.00  0.00     0.177 C 
BRANCH   2   3
HETATM    3  C   UNL     1      -6.914   4.472 -32.725  1.00  0.00     0.227 C 
HETATM    4  N   UNL     1      -5.879   5.217 -33.225  1.00  0.00    -0.354 N 
HETATM    5  H   UNL     1      -5.518   5.992 -32.676  1.00  0.00     0.162 HD
HETATM    6  O   UNL     1      -7.298   3.433 -33.258  1.00  0.00    -0.273 OA
BRANCH   4   7
HETATM    7  C   UNL     1      -5.099   4.779 -34.358  1.00  0.00     0.187 C 
BRANCH   7   8
HETATM    8  C   UNL     1      -3.659   4.996 -34.080  1.00  0.00     0.071 A 
HETATM    9  O   UNL     1      -3.262   4.964 -32.773  1.00  0.00    -0.307 OA
HETATM   10  C   UNL     1      -1.907   5.178 -32.748  1.00  0.00     0.150 A 
HETATM   11  C   UNL     1      -1.448   5.336 -34.043  1.00  0.00     0.046 A 
HETATM   12  C   UNL     1      -2.571   5.224 -34.896  1.00  0.00     0.037 A 
BRANCH  10  13
HETATM   13  C   UNL     1      -1.190   5.204 -31.493  1.00  0.00     0.316 C 
HETATM   14  O   UNL     1      -0.215   4.511 -31.225  1.00  0.00    -0.257 OA
BRANCH  13  15
HETATM   15  O   UNL     1      -1.749   6.113 -30.643  1.00  0.00    -0.321 OA
HETATM   16  C   UNL     1      -1.232   7.435 -30.787  1.00  0.00     0.213 C 
ENDBRANCH  13  15
ENDBRANCH  10  13
ENDBRANCH   7   8
ENDBRANCH   4   7
ENDBRANCH   2   3
ENDBRANCH   1   2
BRANCH   1  17
HETATM   17  C   UNL     1      -5.734   3.256 -30.154  1.00  0.00     0.177 C 
BRANCH  17  18
HETATM   18  C   UNL     1      -5.556   1.782 -30.517  1.00  0.00     0.231 C 
HETATM   19  N   UNL     1      -5.393   1.557 -31.872  1.00  0.00    -0.327 N 
HETATM   20  H   UNL     1      -5.325   2.395 -32.441  1.00  0.00     0.169 HD
HETATM   21  O   UNL     1      -5.642   0.920 -29.645  1.00  0.00    -0.272 OA
BRANCH  19  22
HETATM   22  C   UNL     1      -5.205   0.332 -32.541  1.00  0.00     0.035 A 
HETATM   23  C   UNL     1      -6.239  -0.416 -33.108  1.00  0.00     0.042 A 
HETATM   24  C   UNL     1      -5.982  -1.649 -33.739  1.00  0.00    -0.024 A 
HETATM   25  C   UNL     1      -4.656  -2.132 -33.810  1.00  0.00    -0.026 A 
HETATM   26  C   UNL     1      -7.018  -2.415 -34.297  1.00  0.00     0.012 A 
HETATM   27  C   UNL     1      -3.623  -1.371 -33.249  1.00  0.00     0.014 A 
HETATM   28  C   UNL     1      -4.402  -3.364 -34.435  1.00  0.00     0.012 A 
HETATM   29  C   UNL     1      -3.896  -0.153 -32.619  1.00  0.00     0.030 A 
HETATM   30  C   UNL     1      -5.445  -4.113 -34.982  1.00  0.00     0.001 A 
HETATM   31  C   UNL     1      -6.751  -3.638 -34.913  1.00  0.00     0.001 A 
ENDBRANCH  19  22
ENDBRANCH  17  18
ENDBRANCH   1  17
TORSDOF 9
ENDMDL
MODEL 4
REMARK VINA RESULT:      -8.2      2.680      3.845
REMARK  9 active torsions:
REMARK  status: ('A' for Active; 'I' for Inactive)
REMARK    1  A    between atoms: O_2  and  C_3 
REMARK    2  A    between atoms: C_3  and  C_4 
REMARK    3  A    between atoms: C_6  and  C_7 
REMARK    4  A    between atoms: C_7  and  N_8 
REMARK       I    between atoms: N_8  and  C_9 
REMARK    5  A    between atoms: C_9  and  C_10 
REMARK    6  A    between atoms: C_10  and  S_11 
REMARK    7  A    between atoms: S_11  and  C_12 
REMARK    8  A    between atoms: C_12  and  C_13 
REMARK       I    between atoms: C_13  and  N_14 
REMARK    9  A    between atoms: N_14  and  C_15 
ROOT
HETATM    1  S   UNL     1      -9.020   4.050 -33.085  1.00  0.00    -0.150 SA
ENDROOT
BRANCH   1   2
HETATM    2  C   UNL     1      -9.293   3.708 -31.315  1.00  0.00     0.177 C 
BRANCH   2   3
HETATM    3  C   UNL     1      -8.021   3.572 -30.491  1.00  0.00     0.227 C 
HETATM    4  N   UNL     1      -7.091   2.673 -30.942  1.00  0.00    -0.354 N 
HETATM    5  H   UNL     1      -7.244   2.209 -31.833  1.00  0.00     0.162 HD
HETATM    6  O   UNL     1      -7.830   4.281 -29.505  1.00  0.00    -0.273 OA
BRANCH   4   7
HETATM    7  C   UNL     1      -5.778   2.568 -30.350  1.00  0.00     0.187 C 
BRANCH   7   8
HETATM    8  C   UNL     1      -4.757   3.005 -31.333  1.00  0.00     0.071 A 
HETATM    9  O   UNL     1      -5.102   4.014 -32.188  1.00  0.00    -0.307 OA
HETATM   10  C   UNL     1      -4.020   4.259 -32.994  1.00  0.00     0.150 A 
HETATM   11  C   UNL     1      -2.988   3.410 -32.640  1.00  0.00     0.046 A 
HETATM   12  C   UNL     1      -3.461   2.604 -31.579  1.00  0.00     0.037 A 
BRANCH  10  13
HETATM   13  C   UNL     1      -4.080   5.281 -34.015  1.00  0.00     0.316 C 
HETATM   14  O   UNL     1      -4.589   5.142 -35.121  1.00  0.00    -0.257 OA
BRANCH  13  15
HETATM   15  O   UNL     1      -3.492   6.431 -33.574  1.00  0.00    -0.321 OA
HETATM   16  C   UNL     1      -2.205   6.676 -34.140  1.00  0.00     0.213 C 
ENDBRANCH  13  15
ENDBRANCH  10  13
ENDBRANCH   7   8
ENDBRANCH   4   7
ENDBRANCH   2   3
ENDBRANCH   1   2
BRANCH   1  17
HETATM   17  C   UNL     1      -9.741   2.521 -33.789  1.00  0.00     0.177 C 
BRANCH  17  18
HETATM   18  C   UNL     1      -8.949   1.274 -33.395  1.00  0.00     0.231 C 
HETATM   19  N   UNL     1      -7.918   0.970 -34.265  1.00  0.00    -0.327 N 
HETATM   20  H   UNL     1      -7.762   1.653 -35.001  1.00  0.00     0.169 HD
HETATM   21  O   UNL     1      -9.301   0.603 -32.428  1.00  0.00    -0.272 OA
BRANCH  19  22
HETATM   22  C   UNL     1      -7.002  -0.098 -34.201  1.00  0.00     0.035 A 
HETATM   23  C   UNL     1      -7.285  -1.399 -34.622  1.00  0.00     0.042 A 
HETATM   24  C   UNL     1      -6.329  -2.425 -34.501  1.00  0.00    -0.024 A 
HETATM   25  C   UNL     1      -5.059  -2.134 -33.956  1.00  0.00    -0.026 A 
HETATM   26  C   UNL     1      -6.612  -3.740 -34.906  1.00  0.00     0.012 A 
HETATM   27  C   UNL     1      -4.777  -0.824 -33.547  1.00  0.00     0.014 A 
HETATM   28  C   UNL     1      -4.108  -3.160 -33.833  1.00  0.00     0.012 A 
HETATM   29  C   UNL     1      -5.740   0.182 -33.666  1.00  0.00     0.030 A 
HETATM   30  C   UNL     1      -4.408  -4.462 -34.239  1.00  0.00     0.001 A 
HETATM   31  C   UNL     1      -5.659  -4.750 -34.774  1.00  0.00     0.001 A 
ENDBRANCH  19  22
ENDBRANCH  17  18
ENDBRANCH   1  17
TORSDOF 9
ENDMDL
MODEL 5
REMARK VINA RESULT:      -8.1      1.799      2.791
REMARK  9 active torsions:
REMARK  status: ('A' for Active; 'I' for Inactive)
REMARK    1  A    between atoms: O_2  and  C_3 
REMARK    2  A    between atoms: C_3  and  C_4 
REMARK    3  A    between atoms: C_6  and  C_7 
REMARK    4  A    between atoms: C_7  and  N_8 
REMARK       I    between atoms: N_8  and  C_9 
REMARK    5  A    between atoms: C_9  and  C_10 
REMARK    6  A    between atoms: C_10  and  S_11 
REMARK    7  A    between atoms: S_11  and  C_12 
REMARK    8  A    between atoms: C_12  and  C_13 
REMARK       I    between atoms: C_13  and  N_14 
REMARK    9  A    between atoms: N_14  and  C_15 
ROOT
HETATM    1  S   UNL     1      -7.758   3.769 -32.496  1.00  0.00    -0.150 SA
ENDROOT
BRANCH   1   2
HETATM    2  C   UNL     1      -7.561   2.936 -30.886  1.00  0.00     0.177 C 
BRANCH   2   3
HETATM    3  C   UNL     1      -6.178   2.354 -30.637  1.00  0.00     0.227 C 
HETATM    4  N   UNL     1      -5.179   2.762 -31.482  1.00  0.00    -0.354 N 
HETATM    5  H   UNL     1      -5.377   3.485 -32.168  1.00  0.00     0.162 HD
HETATM    6  O   UNL     1      -5.972   1.601 -29.687  1.00  0.00    -0.273 OA
BRANCH   4   7
HETATM    7  C   UNL     1      -3.796   2.417 -31.254  1.00  0.00     0.187 C 
BRANCH   7   8
HETATM    8  C   UNL     1      -2.922   3.435 -31.886  1.00  0.00     0.071 A 
HETATM    9  O   UNL     1      -1.901   3.940 -31.130  1.00  0.00    -0.307 OA
HETATM   10  C   UNL     1      -1.226   4.848 -31.905  1.00  0.00     0.150 A 
HETATM   11  C   UNL     1      -1.816   4.909 -33.154  1.00  0.00     0.046 A 
HETATM   12  C   UNL     1      -2.906   4.007 -33.140  1.00  0.00     0.037 A 
BRANCH  10  13
HETATM   13  C   UNL     1      -0.084   5.559 -31.375  1.00  0.00     0.316 C 
HETATM   14  O   UNL     1       0.018   6.780 -31.314  1.00  0.00    -0.257 OA
BRANCH  13  15
HETATM   15  O   UNL     1       0.870   4.682 -30.950  1.00  0.00    -0.321 OA
HETATM   16  C   UNL     1       1.154   4.767 -29.554  1.00  0.00     0.213 C 
ENDBRANCH  13  15
ENDBRANCH  10  13
ENDBRANCH   7   8
ENDBRANCH   4   7
ENDBRANCH   2   3
ENDBRANCH   1   2
BRANCH   1  17
HETATM   17  C   UNL     1      -8.908   2.587 -33.294  1.00  0.00     0.177 C 
BRANCH  17  18
HETATM   18  C   UNL     1      -8.431   1.140 -33.164  1.00  0.00     0.231 C 
HETATM   19  N   UNL     1      -7.192   0.908 -33.734  1.00  0.00    -0.327 N 
HETATM   20  H   UNL     1      -6.720   1.735 -34.086  1.00  0.00     0.169 HD
HETATM   21  O   UNL     1      -9.166   0.295 -32.661  1.00  0.00    -0.272 OA
BRANCH  19  22
HETATM   22  C   UNL     1      -6.466  -0.297 -33.792  1.00  0.00     0.035 A 
HETATM   23  C   UNL     1      -5.486  -0.665 -32.867  1.00  0.00     0.042 A 
HETATM   24  C   UNL     1      -4.777  -1.874 -33.003  1.00  0.00    -0.024 A 
HETATM   25  C   UNL     1      -5.068  -2.735 -34.084  1.00  0.00    -0.026 A 
HETATM   26  C   UNL     1      -3.779  -2.244 -32.087  1.00  0.00     0.012 A 
HETATM   27  C   UNL     1      -6.060  -2.365 -35.002  1.00  0.00     0.014 A 
HETATM   28  C   UNL     1      -4.358  -3.939 -34.220  1.00  0.00     0.012 A 
HETATM   29  C   UNL     1      -6.749  -1.157 -34.857  1.00  0.00     0.030 A 
HETATM   30  C   UNL     1      -3.367  -4.289 -33.301  1.00  0.00     0.001 A 
HETATM   31  C   UNL     1      -3.079  -3.442 -32.236  1.00  0.00     0.001 A 
ENDBRANCH  19  22
ENDBRANCH  17  18
ENDBRANCH   1  17
TORSDOF 9
ENDMDL
MODEL 6
REMARK VINA RESULT:      -8.0      4.648      9.098
REMARK  9 active torsions:
REMARK  status: ('A' for Active; 'I' for Inactive)
REMARK    1  A    between atoms: O_2  and  C_3 
REMARK    2  A    between atoms: C_3  and  C_4 
REMARK    3  A    between atoms: C_6  and  C_7 
REMARK    4  A    between atoms: C_7  and  N_8 
REMARK       I    between atoms: N_8  and  C_9 
REMARK    5  A    between atoms: C_9  and  C_10 
REMARK    6  A    between atoms: C_10  and  S_11 
REMARK    7  A    between atoms: S_11  and  C_12 
REMARK    8  A    between atoms: C_12  and  C_13 
REMARK       I    between atoms: C_13  and  N_14 
REMARK    9  A    between atoms: N_14  and  C_15 
ROOT
HETATM    1  S   UNL     1      -7.914   3.568 -30.550  1.00  0.00    -0.150 SA
ENDROOT
BRANCH   1   2
HETATM    2  C   UNL     1      -8.970   2.206 -31.143  1.00  0.00     0.177 C 
BRANCH   2   3
HETATM    3  C   UNL     1      -9.656   2.468 -32.475  1.00  0.00     0.227 C 
HETATM    4  N   UNL     1     -10.312   1.408 -33.046  1.00  0.00    -0.354 N 
HETATM    5  H   UNL     1     -10.386   0.537 -32.529  1.00  0.00     0.162 HD
HETATM    6  O   UNL     1      -9.661   3.592 -32.972  1.00  0.00    -0.273 OA
BRANCH   4   7
HETATM    7  C   UNL     1     -11.138   1.563 -34.219  1.00  0.00     0.187 C 
BRANCH   7   8
HETATM    8  C   UNL     1     -12.546   1.246 -33.876  1.00  0.00     0.071 A 
HETATM    9  O   UNL     1     -13.274   2.222 -33.255  1.00  0.00    -0.307 OA
HETATM   10  C   UNL     1     -14.533   1.723 -33.041  1.00  0.00     0.150 A 
HETATM   11  C   UNL     1     -14.603   0.434 -33.537  1.00  0.00     0.046 A 
HETATM   12  C   UNL     1     -13.328   0.127 -34.068  1.00  0.00     0.037 A 
BRANCH  10  13
HETATM   13  C   UNL     1     -15.542   2.529 -32.390  1.00  0.00     0.316 C 
HETATM   14  O   UNL     1     -15.314   3.482 -31.654  1.00  0.00    -0.257 OA
BRANCH  13  15
HETATM   15  O   UNL     1     -16.791   2.081 -32.712  1.00  0.00    -0.321 OA
HETATM   16  C   UNL     1     -17.844   2.779 -32.048  1.00  0.00     0.213 C 
ENDBRANCH  13  15
ENDBRANCH  10  13
ENDBRANCH   7   8
ENDBRANCH   4   7
ENDBRANCH   2   3
ENDBRANCH   1   2
BRANCH   1  17
HETATM   17  C   UNL     1      -6.473   3.317 -31.651  1.00  0.00     0.177 C 
BRANCH  17  18
HETATM   18  C   UNL     1      -6.008   1.860 -31.671  1.00  0.00     0.231 C 
HETATM   19  N   UNL     1      -6.014   1.290 -32.931  1.00  0.00    -0.327 N 
HETATM   20  H   UNL     1      -6.240   1.927 -33.690  1.00  0.00     0.169 HD
HETATM   21  O   UNL     1      -5.747   1.285 -30.618  1.00  0.00    -0.272 OA
BRANCH  19  22
HETATM   22  C   UNL     1      -5.649  -0.019 -33.304  1.00  0.00     0.035 A 
HETATM   23  C   UNL     1      -6.537  -0.958 -33.832  1.00  0.00     0.042 A 
HETATM   24  C   UNL     1      -6.108  -2.259 -34.156  1.00  0.00    -0.024 A 
HETATM   25  C   UNL     1      -4.757  -2.619 -33.955  1.00  0.00    -0.026 A 
HETATM   26  C   UNL     1      -6.999  -3.215 -34.672  1.00  0.00     0.012 A 
HETATM   27  C   UNL     1      -3.870  -1.667 -33.436  1.00  0.00     0.014 A 
HETATM   28  C   UNL     1      -4.332  -3.919 -34.275  1.00  0.00     0.012 A 
HETATM   29  C   UNL     1      -4.313  -0.382 -33.111  1.00  0.00     0.030 A 
HETATM   30  C   UNL     1      -5.232  -4.856 -34.785  1.00  0.00     0.001 A 
HETATM   31  C   UNL     1      -6.564  -4.504 -34.982  1.00  0.00     0.001 A 
ENDBRANCH  19  22
ENDBRANCH  17  18
ENDBRANCH   1  17
TORSDOF 9
ENDMDL
MODEL 7
REMARK VINA RESULT:      -7.9      3.797      7.961
REMARK  9 active torsions:
REMARK  status: ('A' for Active; 'I' for Inactive)
REMARK    1  A    between atoms: O_2  and  C_3 
REMARK    2  A    between atoms: C_3  and  C_4 
REMARK    3  A    between atoms: C_6  and  C_7 
REMARK    4  A    between atoms: C_7  and  N_8 
REMARK       I    between atoms: N_8  and  C_9 
REMARK    5  A    between atoms: C_9  and  C_10 
REMARK    6  A    between atoms: C_10  and  S_11 
REMARK    7  A    between atoms: S_11  and  C_12 
REMARK    8  A    between atoms: C_12  and  C_13 
REMARK       I    between atoms: C_13  and  N_14 
REMARK    9  A    between atoms: N_14  and  C_15 
ROOT
HETATM    1  S   UNL     1      -5.405   4.020 -32.006  1.00  0.00    -0.150 SA
ENDROOT
BRANCH   1   2
HETATM    2  C   UNL     1      -6.951   3.593 -31.140  1.00  0.00     0.177 C 
BRANCH   2   3
HETATM    3  C   UNL     1      -7.918   2.741 -31.948  1.00  0.00     0.227 C 
HETATM    4  N   UNL     1      -8.255   3.207 -33.191  1.00  0.00    -0.354 N 
HETATM    5  H   UNL     1      -7.791   4.036 -33.550  1.00  0.00     0.162 HD
HETATM    6  O   UNL     1      -8.322   1.663 -31.515  1.00  0.00    -0.273 OA
BRANCH   4   7
HETATM    7  C   UNL     1      -9.027   2.417 -34.121  1.00  0.00     0.187 C 
BRANCH   7   8
HETATM    8  C   UNL     1     -10.446   2.847 -34.074  1.00  0.00     0.071 A 
HETATM    9  O   UNL     1     -11.396   1.867 -34.019  1.00  0.00    -0.307 OA
HETATM   10  C   UNL     1     -12.621   2.482 -33.975  1.00  0.00     0.150 A 
HETATM   11  C   UNL     1     -12.442   3.853 -33.992  1.00  0.00     0.046 A 
HETATM   12  C   UNL     1     -11.049   4.087 -34.060  1.00  0.00     0.037 A 
BRANCH  10  13
HETATM   13  C   UNL     1     -13.835   1.699 -33.915  1.00  0.00     0.316 C 
HETATM   14  O   UNL     1     -14.397   1.197 -34.882  1.00  0.00    -0.257 OA
BRANCH  13  15
HETATM   15  O   UNL     1     -14.272   1.593 -32.627  1.00  0.00    -0.321 OA
HETATM   16  C   UNL     1     -15.427   2.380 -32.340  1.00  0.00     0.213 C 
ENDBRANCH  13  15
ENDBRANCH  10  13
ENDBRANCH   7   8
ENDBRANCH   4   7
ENDBRANCH   2   3
ENDBRANCH   1   2
BRANCH   1  17
HETATM   17  C   UNL     1      -4.281   2.820 -31.200  1.00  0.00     0.177 C 
BRANCH  17  18
HETATM   18  C   UNL     1      -4.729   1.374 -31.418  1.00  0.00     0.231 C 
HETATM   19  N   UNL     1      -4.868   1.027 -32.749  1.00  0.00    -0.327 N 
HETATM   20  H   UNL     1      -4.575   1.740 -33.411  1.00  0.00     0.169 HD
HETATM   21  O   UNL     1      -5.002   0.664 -30.452  1.00  0.00    -0.272 OA
BRANCH  19  22
HETATM   22  C   UNL     1      -5.258  -0.211 -33.297  1.00  0.00     0.035 A 
HETATM   23  C   UNL     1      -4.471  -1.364 -33.265  1.00  0.00     0.042 A 
HETATM   24  C   UNL     1      -4.913  -2.561 -33.859  1.00  0.00    -0.024 A 
HETATM   25  C   UNL     1      -6.178  -2.602 -34.488  1.00  0.00    -0.026 A 
HETATM   26  C   UNL     1      -4.121  -3.720 -33.846  1.00  0.00     0.012 A 
HETATM   27  C   UNL     1      -6.967  -1.444 -34.506  1.00  0.00     0.014 A 
HETATM   28  C   UNL     1      -6.616  -3.796 -35.083  1.00  0.00     0.012 A 
HETATM   29  C   UNL     1      -6.510  -0.261 -33.919  1.00  0.00     0.030 A 
HETATM   30  C   UNL     1      -5.813  -4.938 -35.063  1.00  0.00     0.001 A 
HETATM   31  C   UNL     1      -4.567  -4.899 -34.445  1.00  0.00     0.001 A 
ENDBRANCH  19  22
ENDBRANCH  17  18
ENDBRANCH   1  17
TORSDOF 9
ENDMDL
MODEL 8
REMARK VINA RESULT:      -7.8      1.868      2.273
REMARK  9 active torsions:
REMARK  status: ('A' for Active; 'I' for Inactive)
REMARK    1  A    between atoms: O_2  and  C_3 
REMARK    2  A    between atoms: C_3  and  C_4 
REMARK    3  A    between atoms: C_6  and  C_7 
REMARK    4  A    between atoms: C_7  and  N_8 
REMARK       I    between atoms: N_8  and  C_9 
REMARK    5  A    between atoms: C_9  and  C_10 
REMARK    6  A    between atoms: C_10  and  S_11 
REMARK    7  A    between atoms: S_11  and  C_12 
REMARK    8  A    between atoms: C_12  and  C_13 
REMARK       I    between atoms: C_13  and  N_14 
REMARK    9  A    between atoms: N_14  and  C_15 
ROOT
HETATM    1  S   UNL     1      -7.165   3.479 -31.332  1.00  0.00    -0.150 SA
ENDROOT
BRANCH   1   2
HETATM    2  C   UNL     1      -5.728   4.413 -30.711  1.00  0.00     0.177 C 
BRANCH   2   3
HETATM    3  C   UNL     1      -4.378   3.883 -31.170  1.00  0.00     0.227 C 
HETATM    4  N   UNL     1      -3.522   4.792 -31.733  1.00  0.00    -0.354 N 
HETATM    5  H   UNL     1      -3.780   5.774 -31.742  1.00  0.00     0.162 HD
HETATM    6  O   UNL     1      -4.067   2.707 -30.987  1.00  0.00    -0.273 OA
BRANCH   4   7
HETATM    7  C   UNL     1      -2.155   4.456 -32.057  1.00  0.00     0.187 C 
BRANCH   7   8
HETATM    8  C   UNL     1      -1.237   5.325 -31.282  1.00  0.00     0.071 A 
HETATM    9  O   UNL     1      -1.787   6.099 -30.299  1.00  0.00    -0.307 OA
HETATM   10  C   UNL     1      -0.769   6.807 -29.713  1.00  0.00     0.150 A 
HETATM   11  C   UNL     1       0.427   6.471 -30.321  1.00  0.00     0.046 A 
HETATM   12  C   UNL     1       0.127   5.525 -31.329  1.00  0.00     0.037 A 
BRANCH  10  13
HETATM   13  C   UNL     1      -1.041   7.726 -28.631  1.00  0.00     0.316 C 
HETATM   14  O   UNL     1      -0.895   8.942 -28.687  1.00  0.00    -0.257 OA
BRANCH  13  15
HETATM   15  O   UNL     1      -1.487   7.051 -27.532  1.00  0.00    -0.321 OA
HETATM   16  C   UNL     1      -0.462   6.350 -26.827  1.00  0.00     0.213 C 
ENDBRANCH  13  15
ENDBRANCH  10  13
ENDBRANCH   7   8
ENDBRANCH   4   7
ENDBRANCH   2   3
ENDBRANCH   1   2
BRANCH   1  17
HETATM   17  C   UNL     1      -6.771   3.497 -33.121  1.00  0.00     0.177 C 
BRANCH  17  18
HETATM   18  C   UNL     1      -6.698   2.087 -33.710  1.00  0.00     0.231 C 
HETATM   19  N   UNL     1      -5.748   1.280 -33.111  1.00  0.00    -0.327 N 
HETATM   20  H   UNL     1      -5.283   1.690 -32.306  1.00  0.00     0.169 HD
HETATM   21  O   UNL     1      -7.391   1.792 -34.681  1.00  0.00    -0.272 OA
BRANCH  19  22
HETATM   22  C   UNL     1      -5.423  -0.058 -33.405  1.00  0.00     0.035 A 
HETATM   23  C   UNL     1      -6.312  -0.972 -33.974  1.00  0.00     0.042 A 
HETATM   24  C   UNL     1      -5.928  -2.305 -34.215  1.00  0.00    -0.024 A 
HETATM   25  C   UNL     1      -4.619  -2.724 -33.887  1.00  0.00    -0.026 A 
HETATM   26  C   UNL     1      -6.821  -3.235 -34.771  1.00  0.00     0.012 A 
HETATM   27  C   UNL     1      -3.729  -1.798 -33.327  1.00  0.00     0.014 A 
HETATM   28  C   UNL     1      -4.239  -4.055 -34.124  1.00  0.00     0.012 A 
HETATM   29  C   UNL     1      -4.129  -0.480 -33.086  1.00  0.00     0.030 A 
HETATM   30  C   UNL     1      -5.141  -4.965 -34.676  1.00  0.00     0.001 A 
HETATM   31  C   UNL     1      -6.431  -4.555 -34.998  1.00  0.00     0.001 A 
ENDBRANCH  19  22
ENDBRANCH  17  18
ENDBRANCH   1  17
TORSDOF 9
ENDMDL
MODEL 9
REMARK VINA RESULT:      -7.8      2.696      3.983
REMARK  9 active torsions:
REMARK  status: ('A' for Active; 'I' for Inactive)
REMARK    1  A    between atoms: O_2  and  C_3 
REMARK    2  A    between atoms: C_3  and  C_4 
REMARK    3  A    between atoms: C_6  and  C_7 
REMARK    4  A    between atoms: C_7  and  N_8 
REMARK       I    between atoms: N_8  and  C_9 
REMARK    5  A    between atoms: C_9  and  C_10 
REMARK    6  A    between atoms: C_10  and  S_11 
REMARK    7  A    between atoms: S_11  and  C_12 
REMARK    8  A    between atoms: C_12  and  C_13 
REMARK       I    between atoms: C_13  and  N_14 
REMARK    9  A    between atoms: N_14  and  C_15 
ROOT
HETATM    1  S   UNL     1      -6.347   5.637 -29.946  1.00  0.00    -0.150 SA
ENDROOT
BRANCH   1   2
HETATM    2  C   UNL     1      -5.246   5.833 -28.507  1.00  0.00     0.177 C 
BRANCH   2   3
HETATM    3  C   UNL     1      -4.296   7.018 -28.591  1.00  0.00     0.227 C 
HETATM    4  N   UNL     1      -2.963   6.748 -28.418  1.00  0.00    -0.354 N 
HETATM    5  H   UNL     1      -2.662   5.782 -28.330  1.00  0.00     0.162 HD
HETATM    6  O   UNL     1      -4.712   8.144 -28.856  1.00  0.00    -0.273 OA
BRANCH   4   7
HETATM    7  C   UNL     1      -1.946   7.749 -28.637  1.00  0.00     0.187 C 
BRANCH   7   8
HETATM    8  C   UNL     1      -1.120   7.365 -29.808  1.00  0.00     0.071 A 
HETATM    9  O   UNL     1      -1.743   7.312 -31.023  1.00  0.00    -0.307 OA
HETATM   10  C   UNL     1      -0.803   6.949 -31.952  1.00  0.00     0.150 A 
HETATM   11  C   UNL     1       0.418   6.783 -31.324  1.00  0.00     0.046 A 
HETATM   12  C   UNL     1       0.214   7.045 -29.949  1.00  0.00     0.037 A 
BRANCH  10  13
HETATM   13  C   UNL     1      -1.163   6.804 -33.345  1.00  0.00     0.316 C 
HETATM   14  O   UNL     1      -1.523   7.718 -34.078  1.00  0.00    -0.257 OA
BRANCH  13  15
HETATM   15  O   UNL     1      -1.046   5.501 -33.735  1.00  0.00    -0.321 OA
HETATM   16  C   UNL     1      -1.882   5.149 -34.836  1.00  0.00     0.213 C 
ENDBRANCH  13  15
ENDBRANCH  10  13
ENDBRANCH   7   8
ENDBRANCH   4   7
ENDBRANCH   2   3
ENDBRANCH   1   2
BRANCH   1  17
HETATM   17  C   UNL     1      -6.952   3.940 -29.619  1.00  0.00     0.177 C 
BRANCH  17  18
HETATM   18  C   UNL     1      -6.374   2.921 -30.602  1.00  0.00     0.231 C 
HETATM   19  N   UNL     1      -7.273   1.943 -30.985  1.00  0.00    -0.327 N 
HETATM   20  H   UNL     1      -8.220   2.071 -30.638  1.00  0.00     0.169 HD
HETATM   21  O   UNL     1      -5.188   2.977 -30.917  1.00  0.00    -0.272 OA
BRANCH  19  22
HETATM   22  C   UNL     1      -7.073   0.864 -31.868  1.00  0.00     0.035 A 
HETATM   23  C   UNL     1      -5.878   0.149 -31.971  1.00  0.00     0.042 A 
HETATM   24  C   UNL     1      -5.738  -0.901 -32.898  1.00  0.00    -0.024 A 
HETATM   25  C   UNL     1      -6.827  -1.246 -33.730  1.00  0.00    -0.026 A 
HETATM   26  C   UNL     1      -4.534  -1.614 -33.020  1.00  0.00     0.012 A 
HETATM   27  C   UNL     1      -8.026  -0.532 -33.613  1.00  0.00     0.014 A 
HETATM   28  C   UNL     1      -6.684  -2.291 -34.657  1.00  0.00     0.012 A 
HETATM   29  C   UNL     1      -8.146   0.514 -32.693  1.00  0.00     0.030 A 
HETATM   30  C   UNL     1      -5.479  -2.987 -34.765  1.00  0.00     0.001 A 
HETATM   31  C   UNL     1      -4.406  -2.648 -33.947  1.00  0.00     0.001 A 
ENDBRANCH  19  22
ENDBRANCH  17  18
ENDBRANCH   1  17
TORSDOF 9
ENDMDL
MODEL 10
REMARK VINA RESULT:      -7.7      1.445      2.086
REMARK  9 active torsions:
REMARK  status: ('A' for Active; 'I' for Inactive)
REMARK    1  A    between atoms: O_2  and  C_3 
REMARK    2  A    between atoms: C_3  and  C_4 
REMARK    3  A    between atoms: C_6  and  C_7 
REMARK    4  A    between atoms: C_7  and  N_8 
REMARK       I    between atoms: N_8  and  C_9 
REMARK    5  A    between atoms: C_9  and  C_10 
REMARK    6  A    between atoms: C_10  and  S_11 
REMARK    7  A    between atoms: S_11  and  C_12 
REMARK    8  A    between atoms: C_12  and  C_13 
REMARK       I    between atoms: C_13  and  N_14 
REMARK    9  A    between atoms: N_14  and  C_15 
ROOT
HETATM    1  S   UNL     1      -6.781   4.450 -33.535  1.00  0.00    -0.150 SA
ENDROOT
BRANCH   1   2
HETATM    2  C   UNL     1      -5.930   4.178 -31.947  1.00  0.00     0.177 C 
BRANCH   2   3
HETATM    3  C   UNL     1      -4.501   3.669 -32.069  1.00  0.00     0.227 C 
HETATM    4  N   UNL     1      -3.668   4.375 -32.897  1.00  0.00    -0.354 N 
HETATM    5  H   UNL     1      -4.003   5.237 -33.317  1.00  0.00     0.162 HD
HETATM    6  O   UNL     1      -4.116   2.706 -31.409  1.00  0.00    -0.273 OA
BRANCH   4   7
HETATM    7  C   UNL     1      -2.253   4.098 -32.973  1.00  0.00     0.187 C 
BRANCH   7   8
HETATM    8  C   UNL     1      -1.503   5.168 -32.271  1.00  0.00     0.071 A 
HETATM    9  O   UNL     1      -1.363   5.050 -30.917  1.00  0.00    -0.307 OA
HETATM   10  C   UNL     1      -0.638   6.130 -30.482  1.00  0.00     0.150 A 
HETATM   11  C   UNL     1      -0.313   6.925 -31.565  1.00  0.00     0.046 A 
HETATM   12  C   UNL     1      -0.870   6.312 -32.711  1.00  0.00     0.037 A 
BRANCH  10  13
HETATM   13  C   UNL     1      -0.327   6.288 -29.079  1.00  0.00     0.316 C 
HETATM   14  O   UNL     1       0.731   5.964 -28.552  1.00  0.00    -0.257 OA
BRANCH  13  15
HETATM   15  O   UNL     1      -1.378   6.854 -28.417  1.00  0.00    -0.321 OA
HETATM   16  C   UNL     1      -1.218   8.249 -28.161  1.00  0.00     0.213 C 
ENDBRANCH  13  15
ENDBRANCH  10  13
ENDBRANCH   7   8
ENDBRANCH   4   7
ENDBRANCH   2   3
ENDBRANCH   1   2
BRANCH   1  17
HETATM   17  C   UNL     1      -8.135   3.231 -33.350  1.00  0.00     0.177 C 
BRANCH  17  18
HETATM   18  C   UNL     1      -7.617   1.846 -32.960  1.00  0.00     0.231 C 
HETATM   19  N   UNL     1      -6.828   1.252 -33.928  1.00  0.00    -0.327 N 
HETATM   20  H   UNL     1      -6.622   1.838 -34.732  1.00  0.00     0.169 HD
HETATM   21  O   UNL     1      -7.974   1.333 -31.902  1.00  0.00    -0.272 OA
BRANCH  19  22
HETATM   22  C   UNL     1      -6.196  -0.006 -33.894  1.00  0.00     0.035 A 
HETATM   23  C   UNL     1      -5.233  -0.372 -32.952  1.00  0.00     0.042 A 
HETATM   24  C   UNL     1      -4.620  -1.639 -32.995  1.00  0.00    -0.024 A 
HETATM   25  C   UNL     1      -4.992  -2.560 -34.000  1.00  0.00    -0.026 A 
HETATM   26  C   UNL     1      -3.638  -2.009 -32.061  1.00  0.00     0.012 A 
HETATM   27  C   UNL     1      -5.968  -2.189 -34.935  1.00  0.00     0.014 A 
HETATM   28  C   UNL     1      -4.377  -3.822 -34.044  1.00  0.00     0.012 A 
HETATM   29  C   UNL     1      -6.561  -0.925 -34.883  1.00  0.00     0.030 A 
HETATM   30  C   UNL     1      -3.401  -4.171 -33.108  1.00  0.00     0.001 A 
HETATM   31  C   UNL     1      -3.033  -3.265 -32.119  1.00  0.00     0.001 A 
ENDBRANCH  19  22
ENDBRANCH  17  18
ENDBRANCH   1  17
TORSDOF 9
ENDMDL
