MODEL 1
REMARK VINA RESULT:      -8.3      0.000      0.000
REMARK  5 active torsions:
REMARK  status: ('A' for Active; 'I' for Inactive)
REMARK    1  A    between atoms: C_2  and  O_3 
REMARK    2  A    between atoms: O_3  and  C_4 
REMARK    3  A    between atoms: C_5  and  C_6 
REMARK    4  A    between atoms: N_7  and  N_8 
REMARK       I    between atoms: N_8  and  C_9 
REMARK    5  A    between atoms: C_9  and  C_10 
ROOT
HETATM    1  N   UNL     1      -3.576   2.111 -31.792  1.00  0.00    -0.243 N 
HETATM    2  C   UNL     1      -3.584   0.724 -31.693  1.00  0.00     0.274 C 
HETATM    3  O   UNL     1      -2.695   0.045 -31.185  1.00  0.00    -0.266 OA
HETATM    4  H   UNL     1      -4.476   2.558 -31.920  1.00  0.00     0.192 HD
ENDROOT
BRANCH   1   5
HETATM    5  N   UNL     1      -2.613   2.973 -31.325  1.00  0.00    -0.183 NA
HETATM    6  C   UNL     1      -2.541   4.167 -31.824  1.00  0.00     0.153 C 
BRANCH   6   7
HETATM    7  C   UNL     1      -1.486   5.108 -31.400  1.00  0.00     0.016 A 
HETATM    8  C   UNL     1      -1.471   6.424 -31.874  1.00  0.00     0.080 A 
HETATM    9  C   UNL     1      -0.522   7.328 -31.388  1.00  0.00     0.037 A 
HETATM   10  C   UNL     1       0.440   6.908 -30.468  1.00  0.00     0.003 A 
HETATM   11  C   UNL     1       0.451   5.585 -30.024  1.00  0.00     0.001 A 
HETATM   12  C   UNL     1      -0.511   4.685 -30.487  1.00  0.00     0.016 A 
BRANCH   8  13
HETATM   13  O   UNL     1      -2.362   6.917 -32.789  1.00  0.00    -0.351 OA
BRANCH  13  14
HETATM   14  C   UNL     1      -1.738   7.200 -34.052  1.00  0.00     0.171 C 
HETATM   15  C   UNL     1      -1.365   5.883 -34.707  1.00  0.00     0.034 C 
ENDBRANCH  13  14
ENDBRANCH   8  13
ENDBRANCH   6   7
ENDBRANCH   1   5
BRANCH   2  16
HETATM   16  C   UNL     1      -4.814   0.098 -32.192  1.00  0.00     0.061 A 
HETATM   17  C   UNL     1      -5.020  -1.008 -33.093  1.00  0.00     0.008 A 
HETATM   18  C   UNL     1      -6.400  -1.154 -33.260  1.00  0.00     0.043 A 
HETATM   19  C   UNL     1      -4.178  -1.913 -33.781  1.00  0.00     0.015 A 
HETATM   20  C   UNL     1      -6.971  -2.119 -34.101  1.00  0.00     0.030 A 
HETATM   21  N   UNL     1      -7.013  -0.221 -32.461  1.00  0.00    -0.364 N 
HETATM   22  C   UNL     1      -6.110  -2.974 -34.791  1.00  0.00     0.002 A 
HETATM   23  C   UNL     1      -4.733  -2.879 -34.629  1.00  0.00     0.001 A 
HETATM   24  H   UNL     1      -8.013  -0.113 -32.366  1.00  0.00     0.165 HD
HETATM   25  C   UNL     1      -6.075   0.523 -31.806  1.00  0.00     0.106 A 
ENDBRANCH   2  16
TORSDOF 5
ENDMDL
MODEL 2
REMARK VINA RESULT:      -8.1      5.362      8.464
REMARK  5 active torsions:
REMARK  status: ('A' for Active; 'I' for Inactive)
REMARK    1  A    between atoms: C_2  and  O_3 
REMARK    2  A    between atoms: O_3  and  C_4 
REMARK    3  A    between atoms: C_5  and  C_6 
REMARK    4  A    between atoms: N_7  and  N_8 
REMARK       I    between atoms: N_8  and  C_9 
REMARK    5  A    between atoms: C_9  and  C_10 
ROOT
HETATM    1  N   UNL     1      -8.381  -0.503 -33.906  1.00  0.00    -0.243 N 
HETATM    2  C   UNL     1      -8.762   0.599 -33.149  1.00  0.00     0.274 C 
HETATM    3  O   UNL     1      -8.259   0.929 -32.078  1.00  0.00    -0.266 OA
HETATM    4  H   UNL     1      -8.627  -0.480 -34.889  1.00  0.00     0.192 HD
ENDROOT
BRANCH   1   5
HETATM    5  N   UNL     1      -7.374  -1.396 -33.629  1.00  0.00    -0.183 NA
HETATM    6  C   UNL     1      -6.683  -1.889 -34.608  1.00  0.00     0.153 C 
BRANCH   6   7
HETATM    7  C   UNL     1      -5.633  -2.898 -34.367  1.00  0.00     0.016 A 
HETATM    8  C   UNL     1      -4.439  -2.548 -33.726  1.00  0.00     0.080 A 
HETATM    9  C   UNL     1      -3.497  -3.533 -33.420  1.00  0.00     0.037 A 
HETATM   10  C   UNL     1      -3.723  -4.859 -33.795  1.00  0.00     0.003 A 
HETATM   11  C   UNL     1      -4.895  -5.204 -34.469  1.00  0.00     0.001 A 
HETATM   12  C   UNL     1      -5.851  -4.227 -34.755  1.00  0.00     0.016 A 
BRANCH   8  13
HETATM   13  O   UNL     1      -4.125  -1.272 -33.340  1.00  0.00    -0.351 OA
BRANCH  13  14
HETATM   14  C   UNL     1      -3.993  -1.156 -31.914  1.00  0.00     0.171 C 
HETATM   15  C   UNL     1      -4.852   0.004 -31.446  1.00  0.00     0.034 C 
ENDBRANCH  13  14
ENDBRANCH   8  13
ENDBRANCH   6   7
ENDBRANCH   1   5
BRANCH   2  16
HETATM   16  C   UNL     1      -9.802   1.423 -33.775  1.00  0.00     0.061 A 
HETATM   17  C   UNL     1     -11.221   1.218 -33.916  1.00  0.00     0.008 A 
HETATM   18  C   UNL     1     -11.726   2.301 -34.642  1.00  0.00     0.043 A 
HETATM   19  C   UNL     1     -12.140   0.230 -33.491  1.00  0.00     0.015 A 
HETATM   20  C   UNL     1     -13.076   2.422 -34.998  1.00  0.00     0.030 A 
HETATM   21  N   UNL     1     -10.679   3.154 -34.890  1.00  0.00    -0.364 N 
HETATM   22  C   UNL     1     -13.950   1.411 -34.592  1.00  0.00     0.002 A 
HETATM   23  C   UNL     1     -13.492   0.334 -33.842  1.00  0.00     0.001 A 
HETATM   24  H   UNL     1     -10.758   4.034 -35.382  1.00  0.00     0.165 HD
HETATM   25  C   UNL     1      -9.527   2.648 -34.364  1.00  0.00     0.106 A 
ENDBRANCH   2  16
TORSDOF 5
ENDMDL
MODEL 3
REMARK VINA RESULT:      -8.0      5.224      8.857
REMARK  5 active torsions:
REMARK  status: ('A' for Active; 'I' for Inactive)
REMARK    1  A    between atoms: C_2  and  O_3 
REMARK    2  A    between atoms: O_3  and  C_4 
REMARK    3  A    between atoms: C_5  and  C_6 
REMARK    4  A    between atoms: N_7  and  N_8 
REMARK       I    between atoms: N_8  and  C_9 
REMARK    5  A    between atoms: C_9  and  C_10 
ROOT
HETATM    1  N   UNL     1      -8.129   0.663 -35.007  1.00  0.00    -0.243 N 
HETATM    2  C   UNL     1      -9.127   1.128 -34.160  1.00  0.00     0.274 C 
HETATM    3  O   UNL     1      -9.745   0.442 -33.349  1.00  0.00    -0.266 OA
HETATM    4  H   UNL     1      -7.489   1.358 -35.373  1.00  0.00     0.192 HD
ENDROOT
BRANCH   1   5
HETATM    5  N   UNL     1      -7.627  -0.614 -35.081  1.00  0.00    -0.183 NA
HETATM    6  C   UNL     1      -6.610  -0.935 -34.345  1.00  0.00     0.153 C 
BRANCH   6   7
HETATM    7  C   UNL     1      -5.997  -2.275 -34.434  1.00  0.00     0.016 A 
HETATM    8  C   UNL     1      -4.688  -2.492 -33.990  1.00  0.00     0.080 A 
HETATM    9  C   UNL     1      -4.158  -3.785 -33.992  1.00  0.00     0.037 A 
HETATM   10  C   UNL     1      -4.914  -4.852 -34.481  1.00  0.00     0.003 A 
HETATM   11  C   UNL     1      -6.205  -4.631 -34.961  1.00  0.00     0.001 A 
HETATM   12  C   UNL     1      -6.749  -3.345 -34.937  1.00  0.00     0.016 A 
BRANCH   8  13
HETATM   13  O   UNL     1      -3.869  -1.504 -33.513  1.00  0.00    -0.351 OA
BRANCH  13  14
HETATM   14  C   UNL     1      -3.449  -1.755 -32.163  1.00  0.00     0.171 C 
HETATM   15  C   UNL     1      -3.010  -0.441 -31.545  1.00  0.00     0.034 C 
ENDBRANCH  13  14
ENDBRANCH   8  13
ENDBRANCH   6   7
ENDBRANCH   1   5
BRANCH   2  16
HETATM   16  C   UNL     1      -9.358   2.575 -34.246  1.00  0.00     0.061 A 
HETATM   17  C   UNL     1     -10.497   3.331 -34.700  1.00  0.00     0.008 A 
HETATM   18  C   UNL     1     -10.159   4.684 -34.611  1.00  0.00     0.043 A 
HETATM   19  C   UNL     1     -11.793   3.010 -35.170  1.00  0.00     0.015 A 
HETATM   20  C   UNL     1     -11.022   5.716 -35.002  1.00  0.00     0.030 A 
HETATM   21  N   UNL     1      -8.895   4.758 -34.079  1.00  0.00    -0.364 N 
HETATM   22  C   UNL     1     -12.281   5.363 -35.493  1.00  0.00     0.002 A 
HETATM   23  C   UNL     1     -12.665   4.030 -35.569  1.00  0.00     0.001 A 
HETATM   24  H   UNL     1      -8.404   5.619 -33.883  1.00  0.00     0.165 HD
HETATM   25  C   UNL     1      -8.412   3.505 -33.843  1.00  0.00     0.106 A 
ENDBRANCH   2  16
TORSDOF 5
ENDMDL
MODEL 4
REMARK VINA RESULT:      -8.0      5.689      8.520
REMARK  5 active torsions:
REMARK  status: ('A' for Active; 'I' for Inactive)
REMARK    1  A    between atoms: C_2  and  O_3 
REMARK    2  A    between atoms: O_3  and  C_4 
REMARK    3  A    between atoms: C_5  and  C_6 
REMARK    4  A    between atoms: N_7  and  N_8 
REMARK       I    between atoms: N_8  and  C_9 
REMARK    5  A    between atoms: C_9  and  C_10 
ROOT
HETATM    1  N   UNL     1      -8.168  -0.263 -33.905  1.00  0.00    -0.243 N 
HETATM    2  C   UNL     1      -7.043  -0.200 -34.720  1.00  0.00     0.274 C 
HETATM    3  O   UNL     1      -6.929   0.510 -35.716  1.00  0.00    -0.266 OA
HETATM    4  H   UNL     1      -8.023  -0.615 -32.966  1.00  0.00     0.192 HD
ENDROOT
BRANCH   1   5
HETATM    5  N   UNL     1      -9.328   0.461 -34.031  1.00  0.00    -0.183 NA
HETATM    6  C   UNL     1     -10.302   0.237 -33.207  1.00  0.00     0.153 C 
BRANCH   6   7
HETATM    7  C   UNL     1     -11.591   0.945 -33.339  1.00  0.00     0.016 A 
HETATM    8  C   UNL     1     -11.675   2.324 -33.121  1.00  0.00     0.080 A 
HETATM    9  C   UNL     1     -12.881   2.993 -33.345  1.00  0.00     0.037 A 
HETATM   10  C   UNL     1     -14.015   2.281 -33.739  1.00  0.00     0.003 A 
HETATM   11  C   UNL     1     -13.944   0.899 -33.919  1.00  0.00     0.001 A 
HETATM   12  C   UNL     1     -12.734   0.230 -33.721  1.00  0.00     0.016 A 
BRANCH   8  13
HETATM   13  O   UNL     1     -10.620   3.099 -32.716  1.00  0.00    -0.351 OA
BRANCH  13  14
HETATM   14  C   UNL     1     -11.044   4.206 -31.906  1.00  0.00     0.171 C 
HETATM   15  C   UNL     1     -10.503   4.008 -30.502  1.00  0.00     0.034 C 
ENDBRANCH  13  14
ENDBRANCH   8  13
ENDBRANCH   6   7
ENDBRANCH   1   5
BRANCH   2  16
HETATM   16  C   UNL     1      -5.920  -1.020 -34.252  1.00  0.00     0.061 A 
HETATM   17  C   UNL     1      -5.649  -2.429 -34.390  1.00  0.00     0.008 A 
HETATM   18  C   UNL     1      -4.456  -2.690 -33.709  1.00  0.00     0.043 A 
HETATM   19  C   UNL     1      -6.286  -3.516 -35.033  1.00  0.00     0.015 A 
HETATM   20  C   UNL     1      -3.898  -3.971 -33.604  1.00  0.00     0.030 A 
HETATM   21  N   UNL     1      -3.989  -1.493 -33.223  1.00  0.00    -0.364 N 
HETATM   22  C   UNL     1      -4.571  -5.027 -34.222  1.00  0.00     0.002 A 
HETATM   23  C   UNL     1      -5.744  -4.804 -34.933  1.00  0.00     0.001 A 
HETATM   24  H   UNL     1      -3.129  -1.379 -32.705  1.00  0.00     0.165 HD
HETATM   25  C   UNL     1      -4.848  -0.486 -33.554  1.00  0.00     0.106 A 
ENDBRANCH   2  16
TORSDOF 5
ENDMDL
MODEL 5
REMARK VINA RESULT:      -7.9      1.344      1.649
REMARK  5 active torsions:
REMARK  status: ('A' for Active; 'I' for Inactive)
REMARK    1  A    between atoms: C_2  and  O_3 
REMARK    2  A    between atoms: O_3  and  C_4 
REMARK    3  A    between atoms: C_5  and  C_6 
REMARK    4  A    between atoms: N_7  and  N_8 
REMARK       I    between atoms: N_8  and  C_9 
REMARK    5  A    between atoms: C_9  and  C_10 
ROOT
HETATM    1  N   UNL     1      -3.562   2.376 -31.875  1.00  0.00    -0.243 N 
HETATM    2  C   UNL     1      -3.601   0.992 -31.743  1.00  0.00     0.274 C 
HETATM    3  O   UNL     1      -2.752   0.311 -31.174  1.00  0.00    -0.266 OA
HETATM    4  H   UNL     1      -4.447   2.834 -32.059  1.00  0.00     0.192 HD
ENDROOT
BRANCH   1   5
HETATM    5  N   UNL     1      -2.609   3.232 -31.380  1.00  0.00    -0.183 NA
HETATM    6  C   UNL     1      -2.689   4.494 -31.663  1.00  0.00     0.153 C 
BRANCH   6   7
HETATM    7  C   UNL     1      -1.656   5.444 -31.206  1.00  0.00     0.016 A 
HETATM    8  C   UNL     1      -1.986   6.503 -30.354  1.00  0.00     0.080 A 
HETATM    9  C   UNL     1      -0.980   7.336 -29.855  1.00  0.00     0.037 A 
HETATM   10  C   UNL     1       0.347   7.142 -30.244  1.00  0.00     0.003 A 
HETATM   11  C   UNL     1       0.673   6.111 -31.125  1.00  0.00     0.001 A 
HETATM   12  C   UNL     1      -0.325   5.261 -31.606  1.00  0.00     0.016 A 
BRANCH   8  13
HETATM   13  O   UNL     1      -3.261   6.780 -29.936  1.00  0.00    -0.351 OA
BRANCH  13  14
HETATM   14  C   UNL     1      -3.810   7.927 -30.602  1.00  0.00     0.171 C 
HETATM   15  C   UNL     1      -5.036   7.488 -31.381  1.00  0.00     0.034 C 
ENDBRANCH  13  14
ENDBRANCH   8  13
ENDBRANCH   6   7
ENDBRANCH   1   5
BRANCH   2  16
HETATM   16  C   UNL     1      -4.815   0.374 -32.289  1.00  0.00     0.061 A 
HETATM   17  C   UNL     1      -5.000  -0.798 -33.107  1.00  0.00     0.008 A 
HETATM   18  C   UNL     1      -6.368  -0.902 -33.378  1.00  0.00     0.043 A 
HETATM   19  C   UNL     1      -4.149  -1.795 -33.640  1.00  0.00     0.015 A 
HETATM   20  C   UNL     1      -6.914  -1.914 -34.179  1.00  0.00     0.030 A 
HETATM   21  N   UNL     1      -6.998   0.123 -32.717  1.00  0.00    -0.364 N 
HETATM   22  C   UNL     1      -6.042  -2.862 -34.717  1.00  0.00     0.002 A 
HETATM   23  C   UNL     1      -4.680  -2.809 -34.446  1.00  0.00     0.001 A 
HETATM   24  H   UNL     1      -7.996   0.280 -32.718  1.00  0.00     0.165 HD
HETATM   25  C   UNL     1      -6.082   0.884 -32.051  1.00  0.00     0.106 A 
ENDBRANCH   2  16
TORSDOF 5
ENDMDL
MODEL 6
REMARK VINA RESULT:      -7.8      1.768      2.334
REMARK  5 active torsions:
REMARK  status: ('A' for Active; 'I' for Inactive)
REMARK    1  A    between atoms: C_2  and  O_3 
REMARK    2  A    between atoms: O_3  and  C_4 
REMARK    3  A    between atoms: C_5  and  C_6 
REMARK    4  A    between atoms: N_7  and  N_8 
REMARK       I    between atoms: N_8  and  C_9 
REMARK    5  A    between atoms: C_9  and  C_10 
ROOT
HETATM    1  N   UNL     1      -3.448   2.023 -32.214  1.00  0.00    -0.243 N 
HETATM    2  C   UNL     1      -3.332   0.669 -31.920  1.00  0.00     0.274 C 
HETATM    3  O   UNL     1      -2.644   0.197 -31.019  1.00  0.00    -0.266 OA
HETATM    4  H   UNL     1      -4.270   2.301 -32.738  1.00  0.00     0.192 HD
ENDROOT
BRANCH   1   5
HETATM    5  N   UNL     1      -2.857   3.072 -31.552  1.00  0.00    -0.183 NA
HETATM    6  C   UNL     1      -2.397   4.070 -32.238  1.00  0.00     0.153 C 
BRANCH   6   7
HETATM    7  C   UNL     1      -1.699   5.191 -31.578  1.00  0.00     0.016 A 
HETATM    8  C   UNL     1      -2.403   6.104 -30.786  1.00  0.00     0.080 A 
HETATM    9  C   UNL     1      -1.714   7.102 -30.092  1.00  0.00     0.037 A 
HETATM   10  C   UNL     1      -0.329   7.219 -30.225  1.00  0.00     0.003 A 
HETATM   11  C   UNL     1       0.371   6.334 -31.046  1.00  0.00     0.001 A 
HETATM   12  C   UNL     1      -0.311   5.319 -31.721  1.00  0.00     0.016 A 
BRANCH   8  13
HETATM   13  O   UNL     1      -3.762   6.077 -30.613  1.00  0.00    -0.351 OA
BRANCH  13  14
HETATM   14  C   UNL     1      -4.424   7.095 -31.380  1.00  0.00     0.171 C 
HETATM   15  C   UNL     1      -5.294   6.419 -32.423  1.00  0.00     0.034 C 
ENDBRANCH  13  14
ENDBRANCH   8  13
ENDBRANCH   6   7
ENDBRANCH   1   5
BRANCH   2  16
HETATM   16  C   UNL     1      -4.181  -0.196 -32.747  1.00  0.00     0.061 A 
HETATM   17  C   UNL     1      -5.374   0.087 -33.505  1.00  0.00     0.008 A 
HETATM   18  C   UNL     1      -5.803  -1.119 -34.068  1.00  0.00     0.043 A 
HETATM   19  C   UNL     1      -6.135   1.246 -33.785  1.00  0.00     0.015 A 
HETATM   20  C   UNL     1      -6.960  -1.230 -34.850  1.00  0.00     0.030 A 
HETATM   21  N   UNL     1      -4.890  -2.084 -33.718  1.00  0.00    -0.364 N 
HETATM   22  C   UNL     1      -7.706  -0.073 -35.079  1.00  0.00     0.002 A 
HETATM   23  C   UNL     1      -7.297   1.151 -34.561  1.00  0.00     0.001 A 
HETATM   24  H   UNL     1      -4.937  -3.051 -34.007  1.00  0.00     0.165 HD
HETATM   25  C   UNL     1      -3.909  -1.541 -32.941  1.00  0.00     0.106 A 
ENDBRANCH   2  16
TORSDOF 5
ENDMDL
MODEL 7
REMARK VINA RESULT:      -7.7      2.072      8.500
REMARK  5 active torsions:
REMARK  status: ('A' for Active; 'I' for Inactive)
REMARK    1  A    between atoms: C_2  and  O_3 
REMARK    2  A    between atoms: O_3  and  C_4 
REMARK    3  A    between atoms: C_5  and  C_6 
REMARK    4  A    between atoms: N_7  and  N_8 
REMARK       I    between atoms: N_8  and  C_9 
REMARK    5  A    between atoms: C_9  and  C_10 
ROOT
HETATM    1  N   UNL     1      -3.244   2.480 -31.815  1.00  0.00    -0.243 N 
HETATM    2  C   UNL     1      -2.800   3.651 -32.419  1.00  0.00     0.274 C 
HETATM    3  O   UNL     1      -2.599   3.796 -33.622  1.00  0.00    -0.266 OA
HETATM    4  H   UNL     1      -3.677   2.580 -30.905  1.00  0.00     0.192 HD
ENDROOT
BRANCH   1   5
HETATM    5  N   UNL     1      -3.567   1.296 -32.433  1.00  0.00    -0.183 NA
HETATM    6  C   UNL     1      -4.809   1.044 -32.701  1.00  0.00     0.153 C 
BRANCH   6   7
HETATM    7  C   UNL     1      -5.212  -0.240 -33.307  1.00  0.00     0.016 A 
HETATM    8  C   UNL     1      -6.544  -0.472 -33.669  1.00  0.00     0.080 A 
HETATM    9  C   UNL     1      -6.891  -1.654 -34.329  1.00  0.00     0.037 A 
HETATM   10  C   UNL     1      -5.920  -2.625 -34.585  1.00  0.00     0.003 A 
HETATM   11  C   UNL     1      -4.599  -2.412 -34.190  1.00  0.00     0.001 A 
HETATM   12  C   UNL     1      -4.243  -1.221 -33.553  1.00  0.00     0.016 A 
BRANCH   8  13
HETATM   13  O   UNL     1      -7.564   0.413 -33.440  1.00  0.00    -0.351 OA
BRANCH  13  14
HETATM   14  C   UNL     1      -8.433   0.541 -34.576  1.00  0.00     0.171 C 
HETATM   15  C   UNL     1      -9.726   1.191 -34.119  1.00  0.00     0.034 C 
ENDBRANCH  13  14
ENDBRANCH   8  13
ENDBRANCH   6   7
ENDBRANCH   1   5
BRANCH   2  16
HETATM   16  C   UNL     1      -2.651   4.780 -31.493  1.00  0.00     0.061 A 
HETATM   17  C   UNL     1      -1.493   5.547 -31.109  1.00  0.00     0.008 A 
HETATM   18  C   UNL     1      -1.911   6.479 -30.154  1.00  0.00     0.043 A 
HETATM   19  C   UNL     1      -0.127   5.559 -31.479  1.00  0.00     0.015 A 
HETATM   20  C   UNL     1      -1.039   7.380 -29.529  1.00  0.00     0.030 A 
HETATM   21  N   UNL     1      -3.268   6.328 -29.999  1.00  0.00    -0.364 N 
HETATM   22  C   UNL     1       0.308   7.341 -29.894  1.00  0.00     0.002 A 
HETATM   23  C   UNL     1       0.758   6.450 -30.860  1.00  0.00     0.001 A 
HETATM   24  H   UNL     1      -3.841   6.888 -29.384  1.00  0.00     0.165 HD
HETATM   25  C   UNL     1      -3.723   5.326 -30.804  1.00  0.00     0.106 A 
ENDBRANCH   2  16
TORSDOF 5
ENDMDL
MODEL 8
REMARK VINA RESULT:      -7.5      1.905      8.634
REMARK  5 active torsions:
REMARK  status: ('A' for Active; 'I' for Inactive)
REMARK    1  A    between atoms: C_2  and  O_3 
REMARK    2  A    between atoms: O_3  and  C_4 
REMARK    3  A    between atoms: C_5  and  C_6 
REMARK    4  A    between atoms: N_7  and  N_8 
REMARK       I    between atoms: N_8  and  C_9 
REMARK    5  A    between atoms: C_9  and  C_10 
ROOT
HETATM    1  N   UNL     1      -3.705   3.332 -31.973  1.00  0.00    -0.243 N 
HETATM    2  C   UNL     1      -3.216   4.575 -32.361  1.00  0.00     0.274 C 
HETATM    3  O   UNL     1      -3.108   4.962 -33.522  1.00  0.00    -0.266 OA
HETATM    4  H   UNL     1      -4.047   3.261 -31.022  1.00  0.00     0.192 HD
ENDROOT
BRANCH   1   5
HETATM    5  N   UNL     1      -4.179   2.333 -32.788  1.00  0.00    -0.183 NA
HETATM    6  C   UNL     1      -5.384   1.891 -32.606  1.00  0.00     0.153 C 
BRANCH   6   7
HETATM    7  C   UNL     1      -5.917   0.777 -33.415  1.00  0.00     0.016 A 
HETATM    8  C   UNL     1      -5.630  -0.550 -33.080  1.00  0.00     0.080 A 
HETATM    9  C   UNL     1      -6.220  -1.593 -33.798  1.00  0.00     0.037 A 
HETATM   10  C   UNL     1      -7.059  -1.314 -34.879  1.00  0.00     0.003 A 
HETATM   11  C   UNL     1      -7.315   0.009 -35.239  1.00  0.00     0.001 A 
HETATM   12  C   UNL     1      -6.748   1.055 -34.509  1.00  0.00     0.016 A 
BRANCH   8  13
HETATM   13  O   UNL     1      -4.805  -0.917 -32.050  1.00  0.00    -0.351 OA
BRANCH  13  14
HETATM   14  C   UNL     1      -3.497  -1.291 -32.512  1.00  0.00     0.171 C 
HETATM   15  C   UNL     1      -3.157  -2.653 -31.937  1.00  0.00     0.034 C 
ENDBRANCH  13  14
ENDBRANCH   8  13
ENDBRANCH   6   7
ENDBRANCH   1   5
BRANCH   2  16
HETATM   16  C   UNL     1      -2.891   5.465 -31.240  1.00  0.00     0.061 A 
HETATM   17  C   UNL     1      -1.648   6.073 -30.839  1.00  0.00     0.008 A 
HETATM   18  C   UNL     1      -1.898   6.792 -29.666  1.00  0.00     0.043 A 
HETATM   19  C   UNL     1      -0.331   6.100 -31.354  1.00  0.00     0.015 A 
HETATM   20  C   UNL     1      -0.904   7.491 -28.970  1.00  0.00     0.030 A 
HETATM   21  N   UNL     1      -3.239   6.675 -29.390  1.00  0.00    -0.364 N 
HETATM   22  C   UNL     1       0.393   7.469 -29.488  1.00  0.00     0.002 A 
HETATM   23  C   UNL     1       0.675   6.790 -30.667  1.00  0.00     0.001 A 
HETATM   24  H   UNL     1      -3.704   7.113 -28.608  1.00  0.00     0.165 HD
HETATM   25  C   UNL     1      -3.845   5.897 -30.332  1.00  0.00     0.106 A 
ENDBRANCH   2  16
TORSDOF 5
ENDMDL
MODEL 9
REMARK VINA RESULT:      -7.5      5.526      7.332
REMARK  5 active torsions:
REMARK  status: ('A' for Active; 'I' for Inactive)
REMARK    1  A    between atoms: C_2  and  O_3 
REMARK    2  A    between atoms: O_3  and  C_4 
REMARK    3  A    between atoms: C_5  and  C_6 
REMARK    4  A    between atoms: N_7  and  N_8 
REMARK       I    between atoms: N_8  and  C_9 
REMARK    5  A    between atoms: C_9  and  C_10 
ROOT
HETATM    1  N   UNL     1      -6.738   0.551 -32.443  1.00  0.00    -0.243 N 
HETATM    2  C   UNL     1      -6.248   0.165 -33.685  1.00  0.00     0.274 C 
HETATM    3  O   UNL     1      -6.463   0.749 -34.744  1.00  0.00    -0.266 OA
HETATM    4  H   UNL     1      -6.238   0.201 -31.634  1.00  0.00     0.192 HD
ENDROOT
BRANCH   1   5
HETATM    5  N   UNL     1      -7.512   1.650 -32.158  1.00  0.00    -0.183 NA
HETATM    6  C   UNL     1      -8.789   1.497 -32.002  1.00  0.00     0.153 C 
BRANCH   6   7
HETATM    7  C   UNL     1      -9.670   2.655 -31.756  1.00  0.00     0.016 A 
HETATM    8  C   UNL     1     -10.718   2.954 -32.634  1.00  0.00     0.080 A 
HETATM    9  C   UNL     1     -11.601   3.995 -32.336  1.00  0.00     0.037 A 
HETATM   10  C   UNL     1     -11.412   4.768 -31.189  1.00  0.00     0.003 A 
HETATM   11  C   UNL     1     -10.345   4.497 -30.333  1.00  0.00     0.001 A 
HETATM   12  C   UNL     1      -9.474   3.441 -30.613  1.00  0.00     0.016 A 
BRANCH   8  13
HETATM   13  O   UNL     1     -10.967   2.263 -33.790  1.00  0.00    -0.351 OA
BRANCH  13  14
HETATM   14  C   UNL     1     -12.079   1.364 -33.653  1.00  0.00     0.171 C 
HETATM   15  C   UNL     1     -12.853   1.356 -34.958  1.00  0.00     0.034 C 
ENDBRANCH  13  14
ENDBRANCH   8  13
ENDBRANCH   6   7
ENDBRANCH   1   5
BRANCH   2  16
HETATM   16  C   UNL     1      -5.354  -0.998 -33.639  1.00  0.00     0.061 A 
HETATM   17  C   UNL     1      -5.523  -2.347 -34.117  1.00  0.00     0.008 A 
HETATM   18  C   UNL     1      -4.372  -3.059 -33.767  1.00  0.00     0.043 A 
HETATM   19  C   UNL     1      -6.533  -3.043 -34.823  1.00  0.00     0.015 A 
HETATM   20  C   UNL     1      -4.199  -4.421 -34.046  1.00  0.00     0.030 A 
HETATM   21  N   UNL     1      -3.515  -2.178 -33.152  1.00  0.00    -0.364 N 
HETATM   22  C   UNL     1      -5.229  -5.085 -34.715  1.00  0.00     0.002 A 
HETATM   23  C   UNL     1      -6.377  -4.406 -35.106  1.00  0.00     0.001 A 
HETATM   24  H   UNL     1      -2.594  -2.416 -32.813  1.00  0.00     0.165 HD
HETATM   25  C   UNL     1      -4.085  -0.941 -33.083  1.00  0.00     0.106 A 
ENDBRANCH   2  16
TORSDOF 5
ENDMDL
MODEL 10
REMARK VINA RESULT:      -7.1     16.936     18.282
REMARK  5 active torsions:
REMARK  status: ('A' for Active; 'I' for Inactive)
REMARK    1  A    between atoms: C_2  and  O_3 
REMARK    2  A    between atoms: O_3  and  C_4 
REMARK    3  A    between atoms: C_5  and  C_6 
REMARK    4  A    between atoms: N_7  and  N_8 
REMARK       I    between atoms: N_8  and  C_9 
REMARK    5  A    between atoms: C_9  and  C_10 
ROOT
HETATM    1  N   UNL     1      -3.453 -13.372 -39.667  1.00  0.00    -0.243 N 
HETATM    2  C   UNL     1      -4.340 -12.600 -38.926  1.00  0.00     0.274 C 
HETATM    3  O   UNL     1      -4.083 -12.060 -37.853  1.00  0.00    -0.266 OA
HETATM    4  H   UNL     1      -3.664 -13.477 -40.653  1.00  0.00     0.192 HD
ENDROOT
BRANCH   1   5
HETATM    5  N   UNL     1      -2.140 -13.647 -39.370  1.00  0.00    -0.183 NA
HETATM    6  C   UNL     1      -1.865 -14.667 -38.621  1.00  0.00     0.153 C 
BRANCH   6   7
HETATM    7  C   UNL     1      -0.476 -14.968 -38.223  1.00  0.00     0.016 A 
HETATM    8  C   UNL     1      -0.208 -15.866 -37.183  1.00  0.00     0.080 A 
HETATM    9  C   UNL     1       1.112 -16.212 -36.883  1.00  0.00     0.037 A 
HETATM   10  C   UNL     1       2.167 -15.628 -37.587  1.00  0.00     0.003 A 
HETATM   11  C   UNL     1       1.904 -14.703 -38.598  1.00  0.00     0.001 A 
HETATM   12  C   UNL     1       0.585 -14.373 -38.918  1.00  0.00     0.016 A 
BRANCH   8  13
HETATM   13  O   UNL     1      -1.178 -16.470 -36.428  1.00  0.00    -0.351 OA
BRANCH  13  14
HETATM   14  C   UNL     1      -1.355 -15.823 -35.158  1.00  0.00     0.171 C 
HETATM   15  C   UNL     1      -2.827 -15.878 -34.794  1.00  0.00     0.034 C 
ENDBRANCH  13  14
ENDBRANCH   8  13
ENDBRANCH   6   7
ENDBRANCH   1   5
BRANCH   2  16
HETATM   16  C   UNL     1      -5.643 -12.402 -39.571  1.00  0.00     0.061 A 
HETATM   17  C   UNL     1      -6.972 -12.786 -39.168  1.00  0.00     0.008 A 
HETATM   18  C   UNL     1      -7.845 -12.386 -40.185  1.00  0.00     0.043 A 
HETATM   19  C   UNL     1      -7.534 -13.423 -38.037  1.00  0.00     0.015 A 
HETATM   20  C   UNL     1      -9.225 -12.627 -40.148  1.00  0.00     0.030 A 
HETATM   21  N   UNL     1      -7.097 -11.742 -41.140  1.00  0.00    -0.364 N 
HETATM   22  C   UNL     1      -9.741 -13.288 -39.032  1.00  0.00     0.002 A 
HETATM   23  C   UNL     1      -8.910 -13.675 -37.987  1.00  0.00     0.001 A 
HETATM   24  H   UNL     1      -7.473 -11.328 -41.982  1.00  0.00     0.165 HD
HETATM   25  C   UNL     1      -5.782 -11.733 -40.777  1.00  0.00     0.106 A 
ENDBRANCH   2  16
TORSDOF 5
ENDMDL
