MODEL 1
REMARK VINA RESULT:      -5.8      0.000      0.000
REMARK  2 active torsions:
REMARK  status: ('A' for Active; 'I' for Inactive)
REMARK    1  A    between atoms: C_3  and  S_4 
REMARK    2  A    between atoms: C_9  and  N_10 
ROOT
HETATM    1  C   UNL     1       0.430   6.695 -31.351  1.00  0.00     0.050 C 
HETATM    2  C   UNL     1      -0.086   7.224 -30.043  1.00  0.00    -0.039 A 
HETATM    3  C   UNL     1      -1.330   7.851 -29.864  1.00  0.00     0.067 A 
HETATM    4  C   UNL     1      -1.733   8.295 -28.587  1.00  0.00     0.055 A 
HETATM    5  C   UNL     1      -0.909   8.165 -27.460  1.00  0.00     0.053 A 
HETATM    6  C   UNL     1       0.360   7.582 -27.662  1.00  0.00     0.061 A 
HETATM    7 CL   UNL     1       1.509   7.455 -26.369  1.00  0.00    -0.082 Cl
HETATM    8  C   UNL     1       0.758   7.121 -28.924  1.00  0.00     0.034 A 
ENDROOT
BRANCH   5   9
HETATM    9  N   UNL     1      -1.327   8.590 -26.182  1.00  0.00    -0.376 N 
HETATM   10  C   UNL     1      -1.090   9.999 -25.812  1.00  0.00     0.150 C 
HETATM   11  C   UNL     1      -1.278  10.169 -24.289  1.00  0.00     0.252 C 
HETATM   12  N   UNL     1      -2.639   9.659 -23.867  1.00  0.00    -0.072 N 
HETATM   13  H   UNL     1      -3.370  10.264 -24.262  1.00  0.00     0.277 HD
HETATM   14  H   UNL     1      -2.722   9.722 -22.844  1.00  0.00     0.277 HD
HETATM   15  C   UNL     1      -2.883   8.229 -24.300  1.00  0.00     0.252 C 
HETATM   16  C   UNL     1      -2.673   8.087 -25.820  1.00  0.00     0.150 C 
ENDBRANCH   5   9
BRANCH   3  17
HETATM   17  S   UNL     1      -2.500   8.091 -31.201  1.00  0.00     0.172 S 
HETATM   18  C   UNL     1      -3.887   8.924 -30.476  1.00  0.00     0.167 C 
HETATM   19  O   UNL     1      -1.865   8.955 -32.174  1.00  0.00    -0.223 OA
HETATM   20  O   UNL     1      -2.963   6.768 -31.587  1.00  0.00    -0.223 OA
ENDBRANCH   3  17
TORSDOF 2
ENDMDL
MODEL 2
REMARK VINA RESULT:      -5.7      9.504     10.858
REMARK  2 active torsions:
REMARK  status: ('A' for Active; 'I' for Inactive)
REMARK    1  A    between atoms: C_3  and  S_4 
REMARK    2  A    between atoms: C_9  and  N_10 
ROOT
HETATM    1  C   UNL     1      -5.626  -2.556 -34.452  1.00  0.00     0.050 C 
HETATM    2  C   UNL     1      -6.125  -1.339 -33.724  1.00  0.00    -0.039 A 
HETATM    3  C   UNL     1      -5.362  -0.567 -32.833  1.00  0.00     0.067 A 
HETATM    4  C   UNL     1      -5.917   0.573 -32.214  1.00  0.00     0.055 A 
HETATM    5  C   UNL     1      -7.246   0.964 -32.430  1.00  0.00     0.053 A 
HETATM    6  C   UNL     1      -8.018   0.150 -33.287  1.00  0.00     0.061 A 
HETATM    7 CL   UNL     1      -9.702   0.470 -33.556  1.00  0.00    -0.082 Cl
HETATM    8  C   UNL     1      -7.467  -0.972 -33.919  1.00  0.00     0.034 A 
ENDROOT
BRANCH   5   9
HETATM    9  N   UNL     1      -7.788   2.117 -31.827  1.00  0.00    -0.376 N 
HETATM   10  C   UNL     1      -7.290   2.496 -30.490  1.00  0.00     0.150 C 
HETATM   11  C   UNL     1      -8.238   3.541 -29.865  1.00  0.00     0.252 C 
HETATM   12  N   UNL     1      -8.410   4.721 -30.797  1.00  0.00    -0.072 N 
HETATM   13  H   UNL     1      -7.520   5.228 -30.875  1.00  0.00     0.277 HD
HETATM   14  H   UNL     1      -9.092   5.376 -30.394  1.00  0.00     0.277 HD
HETATM   15  C   UNL     1      -8.872   4.307 -32.178  1.00  0.00     0.252 C 
HETATM   16  C   UNL     1      -7.916   3.254 -32.770  1.00  0.00     0.150 C 
ENDBRANCH   5   9
BRANCH   3  17
HETATM   17  S   UNL     1      -3.648  -0.930 -32.451  1.00  0.00     0.172 S 
HETATM   18  C   UNL     1      -3.232   0.119 -31.084  1.00  0.00     0.167 C 
HETATM   19  O   UNL     1      -3.587  -2.317 -32.040  1.00  0.00    -0.223 OA
HETATM   20  O   UNL     1      -2.865  -0.467 -33.586  1.00  0.00    -0.223 OA
ENDBRANCH   3  17
TORSDOF 2
ENDMDL
MODEL 3
REMARK VINA RESULT:      -5.6      5.686      7.092
REMARK  2 active torsions:
REMARK  status: ('A' for Active; 'I' for Inactive)
REMARK    1  A    between atoms: C_3  and  S_4 
REMARK    2  A    between atoms: C_9  and  N_10 
ROOT
HETATM    1  C   UNL     1      -1.057   5.903 -34.537  1.00  0.00     0.050 C 
HETATM    2  C   UNL     1      -2.114   5.366 -33.613  1.00  0.00    -0.039 A 
HETATM    3  C   UNL     1      -1.986   5.263 -32.219  1.00  0.00     0.067 A 
HETATM    4  C   UNL     1      -3.048   4.764 -31.435  1.00  0.00     0.055 A 
HETATM    5  C   UNL     1      -4.249   4.320 -32.006  1.00  0.00     0.053 A 
HETATM    6  C   UNL     1      -4.346   4.379 -33.413  1.00  0.00     0.061 A 
HETATM    7 CL   UNL     1      -5.740   3.769 -34.245  1.00  0.00    -0.082 Cl
HETATM    8  C   UNL     1      -3.303   4.892 -34.195  1.00  0.00     0.034 A 
ENDROOT
BRANCH   5   9
HETATM    9  N   UNL     1      -5.315   3.844 -31.216  1.00  0.00    -0.376 N 
HETATM   10  C   UNL     1      -5.369   2.396 -30.932  1.00  0.00     0.150 C 
HETATM   11  C   UNL     1      -6.764   2.033 -30.379  1.00  0.00     0.252 C 
HETATM   12  N   UNL     1      -7.095   2.892 -29.178  1.00  0.00    -0.072 N 
HETATM   13  H   UNL     1      -6.465   2.653 -28.402  1.00  0.00     0.277 HD
HETATM   14  H   UNL     1      -8.050   2.681 -28.862  1.00  0.00     0.277 HD
HETATM   15  C   UNL     1      -6.983   4.373 -29.475  1.00  0.00     0.252 C 
HETATM   16  C   UNL     1      -5.587   4.703 -30.039  1.00  0.00     0.150 C 
ENDBRANCH   5   9
BRANCH   3  17
HETATM   17  S   UNL     1      -0.518   5.789 -31.335  1.00  0.00     0.172 S 
HETATM   18  C   UNL     1      -1.064   6.182 -29.695  1.00  0.00     0.167 C 
HETATM   19  O   UNL     1       0.383   4.656 -31.291  1.00  0.00    -0.223 OA
HETATM   20  O   UNL     1      -0.093   7.039 -31.945  1.00  0.00    -0.223 OA
ENDBRANCH   3  17
TORSDOF 2
ENDMDL
MODEL 4
REMARK VINA RESULT:      -5.6      3.988      6.092
REMARK  2 active torsions:
REMARK  status: ('A' for Active; 'I' for Inactive)
REMARK    1  A    between atoms: C_3  and  S_4 
REMARK    2  A    between atoms: C_9  and  N_10 
ROOT
HETATM    1  C   UNL     1       0.360   7.002 -26.373  1.00  0.00     0.050 C 
HETATM    2  C   UNL     1      -0.172   6.774 -27.760  1.00  0.00    -0.039 A 
HETATM    3  C   UNL     1      -1.420   7.221 -28.225  1.00  0.00     0.067 A 
HETATM    4  C   UNL     1      -1.821   6.974 -29.555  1.00  0.00     0.055 A 
HETATM    5  C   UNL     1      -1.020   6.252 -30.451  1.00  0.00     0.053 A 
HETATM    6  C   UNL     1       0.208   5.763 -29.957  1.00  0.00     0.061 A 
HETATM    7 CL   UNL     1       1.242   4.773 -30.936  1.00  0.00    -0.082 Cl
HETATM    8  C   UNL     1       0.620   6.021 -28.643  1.00  0.00     0.034 A 
ENDROOT
BRANCH   5   9
HETATM    9  N   UNL     1      -1.416   6.029 -31.785  1.00  0.00    -0.376 N 
HETATM   10  C   UNL     1      -2.165   4.793 -32.085  1.00  0.00     0.150 C 
HETATM   11  C   UNL     1      -2.186   4.561 -33.611  1.00  0.00     0.252 C 
HETATM   12  N   UNL     1      -2.732   5.780 -34.321  1.00  0.00    -0.072 N 
HETATM   13  H   UNL     1      -3.726   5.896 -34.088  1.00  0.00     0.277 HD
HETATM   14  H   UNL     1      -2.680   5.633 -35.337  1.00  0.00     0.277 HD
HETATM   15  C   UNL     1      -1.983   7.046 -33.962  1.00  0.00     0.252 C 
HETATM   16  C   UNL     1      -1.966   7.243 -32.433  1.00  0.00     0.150 C 
ENDBRANCH   5   9
BRANCH   3  17
HETATM   17  S   UNL     1      -2.559   8.159 -27.207  1.00  0.00     0.172 S 
HETATM   18  C   UNL     1      -3.924   8.560 -28.265  1.00  0.00     0.167 C 
HETATM   19  O   UNL     1      -3.005   7.282 -26.145  1.00  0.00    -0.223 OA
HETATM   20  O   UNL     1      -1.894   9.413 -26.890  1.00  0.00    -0.223 OA
ENDBRANCH   3  17
TORSDOF 2
ENDMDL
MODEL 5
REMARK VINA RESULT:      -5.6      7.347      8.835
REMARK  2 active torsions:
REMARK  status: ('A' for Active; 'I' for Inactive)
REMARK    1  A    between atoms: C_3  and  S_4 
REMARK    2  A    between atoms: C_9  and  N_10 
ROOT
HETATM    1  C   UNL     1      -6.884   0.212 -34.706  1.00  0.00     0.050 C 
HETATM    2  C   UNL     1      -6.127   1.244 -33.918  1.00  0.00    -0.039 A 
HETATM    3  C   UNL     1      -5.146   0.959 -32.955  1.00  0.00     0.067 A 
HETATM    4  C   UNL     1      -4.475   2.002 -32.283  1.00  0.00     0.055 A 
HETATM    5  C   UNL     1      -4.776   3.351 -32.516  1.00  0.00     0.053 A 
HETATM    6  C   UNL     1      -5.800   3.624 -33.448  1.00  0.00     0.061 A 
HETATM    7 CL   UNL     1      -6.332   5.247 -33.751  1.00  0.00    -0.082 Cl
HETATM    8  C   UNL     1      -6.456   2.593 -34.133  1.00  0.00     0.034 A 
ENDROOT
BRANCH   5   9
HETATM    9  N   UNL     1      -4.086   4.390 -31.858  1.00  0.00    -0.376 N 
HETATM   10  C   UNL     1      -4.696   4.961 -30.642  1.00  0.00     0.150 C 
HETATM   11  C   UNL     1      -3.993   6.290 -30.290  1.00  0.00     0.252 C 
HETATM   12  N   UNL     1      -2.500   6.079 -30.168  1.00  0.00    -0.072 N 
HETATM   13  H   UNL     1      -2.303   5.486 -29.353  1.00  0.00     0.277 HD
HETATM   14  H   UNL     1      -2.043   6.984 -29.996  1.00  0.00     0.277 HD
HETATM   15  C   UNL     1      -1.900   5.445 -31.405  1.00  0.00     0.252 C 
HETATM   16  C   UNL     1      -2.631   4.130 -31.741  1.00  0.00     0.150 C 
ENDBRANCH   5   9
BRANCH   3  17
HETATM   17  S   UNL     1      -4.643  -0.712 -32.542  1.00  0.00     0.172 S 
HETATM   18  C   UNL     1      -3.240  -0.537 -31.474  1.00  0.00     0.167 C 
HETATM   19  O   UNL     1      -5.738  -1.320 -31.815  1.00  0.00    -0.223 OA
HETATM   20  O   UNL     1      -4.158  -1.314 -33.774  1.00  0.00    -0.223 OA
ENDBRANCH   3  17
TORSDOF 2
ENDMDL
MODEL 6
REMARK VINA RESULT:      -5.5     10.859     12.067
REMARK  2 active torsions:
REMARK  status: ('A' for Active; 'I' for Inactive)
REMARK    1  A    between atoms: C_3  and  S_4 
REMARK    2  A    between atoms: C_9  and  N_10 
ROOT
HETATM    1  C   UNL     1      -3.021  -2.328 -31.940  1.00  0.00     0.050 C 
HETATM    2  C   UNL     1      -4.268  -1.575 -32.310  1.00  0.00    -0.039 A 
HETATM    3  C   UNL     1      -5.129  -1.915 -33.365  1.00  0.00     0.067 A 
HETATM    4  C   UNL     1      -6.290  -1.154 -33.619  1.00  0.00     0.055 A 
HETATM    5  C   UNL     1      -6.614  -0.019 -32.862  1.00  0.00     0.053 A 
HETATM    6  C   UNL     1      -5.714   0.344 -31.838  1.00  0.00     0.061 A 
HETATM    7 CL   UNL     1      -5.951   1.782 -30.898  1.00  0.00    -0.082 Cl
HETATM    8  C   UNL     1      -4.570  -0.419 -31.569  1.00  0.00     0.034 A 
ENDROOT
BRANCH   5   9
HETATM    9  N   UNL     1      -7.787   0.725 -33.106  1.00  0.00    -0.376 N 
HETATM   10  C   UNL     1      -7.717   1.821 -34.091  1.00  0.00     0.150 C 
HETATM   11  C   UNL     1      -8.965   2.720 -33.950  1.00  0.00     0.252 C 
HETATM   12  N   UNL     1     -10.226   1.892 -34.063  1.00  0.00    -0.072 N 
HETATM   13  H   UNL     1     -10.309   1.523 -35.019  1.00  0.00     0.277 HD
HETATM   14  H   UNL     1     -11.043   2.495 -33.905  1.00  0.00     0.277 HD
HETATM   15  C   UNL     1     -10.256   0.741 -33.080  1.00  0.00     0.252 C 
HETATM   16  C   UNL     1      -8.993  -0.128 -33.233  1.00  0.00     0.150 C 
ENDBRANCH   5   9
BRANCH   3  17
HETATM   17  S   UNL     1      -4.858  -3.337 -34.423  1.00  0.00     0.172 S 
HETATM   18  C   UNL     1      -6.472  -3.866 -34.932  1.00  0.00     0.167 C 
HETATM   19  O   UNL     1      -4.110  -2.876 -35.574  1.00  0.00    -0.223 OA
HETATM   20  O   UNL     1      -4.322  -4.388 -33.573  1.00  0.00    -0.223 OA
ENDBRANCH   3  17
TORSDOF 2
ENDMDL
MODEL 7
REMARK VINA RESULT:      -5.5      8.478      9.659
REMARK  2 active torsions:
REMARK  status: ('A' for Active; 'I' for Inactive)
REMARK    1  A    between atoms: C_3  and  S_4 
REMARK    2  A    between atoms: C_9  and  N_10 
ROOT
HETATM    1  C   UNL     1      -6.760  -2.258 -33.865  1.00  0.00     0.050 C 
HETATM    2  C   UNL     1      -6.200  -0.973 -33.324  1.00  0.00    -0.039 A 
HETATM    3  C   UNL     1      -6.818   0.283 -33.435  1.00  0.00     0.067 A 
HETATM    4  C   UNL     1      -6.220   1.431 -32.873  1.00  0.00     0.055 A 
HETATM    5  C   UNL     1      -4.982   1.378 -32.218  1.00  0.00     0.053 A 
HETATM    6  C   UNL     1      -4.345   0.120 -32.158  1.00  0.00     0.061 A 
HETATM    7 CL   UNL     1      -2.766  -0.058 -31.462  1.00  0.00    -0.082 Cl
HETATM    8  C   UNL     1      -4.943  -1.026 -32.697  1.00  0.00     0.034 A 
ENDROOT
BRANCH   5   9
HETATM    9  N   UNL     1      -4.400   2.524 -31.638  1.00  0.00    -0.376 N 
HETATM   10  C   UNL     1      -3.276   3.163 -32.351  1.00  0.00     0.150 C 
HETATM   11  C   UNL     1      -2.561   4.150 -31.404  1.00  0.00     0.252 C 
HETATM   12  N   UNL     1      -3.551   5.143 -30.834  1.00  0.00    -0.072 N 
HETATM   13  H   UNL     1      -3.900   5.750 -31.586  1.00  0.00     0.277 HD
HETATM   14  H   UNL     1      -3.070   5.751 -30.159  1.00  0.00     0.277 HD
HETATM   15  C   UNL     1      -4.722   4.468 -30.152  1.00  0.00     0.252 C 
HETATM   16  C   UNL     1      -5.406   3.478 -31.115  1.00  0.00     0.150 C 
ENDBRANCH   5   9
BRANCH   3  17
HETATM   17  S   UNL     1      -8.403   0.520 -34.240  1.00  0.00     0.172 S 
HETATM   18  C   UNL     1      -8.702   2.267 -34.198  1.00  0.00     0.167 C 
HETATM   19  O   UNL     1      -8.255   0.082 -35.612  1.00  0.00    -0.223 OA
HETATM   20  O   UNL     1      -9.400  -0.095 -33.378  1.00  0.00    -0.223 OA
ENDBRANCH   3  17
TORSDOF 2
ENDMDL
MODEL 8
REMARK VINA RESULT:      -5.5     10.611     12.337
REMARK  2 active torsions:
REMARK  status: ('A' for Active; 'I' for Inactive)
REMARK    1  A    between atoms: C_3  and  S_4 
REMARK    2  A    between atoms: C_9  and  N_10 
ROOT
HETATM    1  C   UNL     1      -6.486   3.300 -32.031  1.00  0.00     0.050 C 
HETATM    2  C   UNL     1      -6.292   1.893 -32.521  1.00  0.00    -0.039 A 
HETATM    3  C   UNL     1      -7.330   0.987 -32.793  1.00  0.00     0.067 A 
HETATM    4  C   UNL     1      -7.045  -0.309 -33.271  1.00  0.00     0.055 A 
HETATM    5  C   UNL     1      -5.731  -0.760 -33.461  1.00  0.00     0.053 A 
HETATM    6  C   UNL     1      -4.695   0.141 -33.134  1.00  0.00     0.061 A 
HETATM    7 CL   UNL     1      -3.029  -0.330 -33.230  1.00  0.00    -0.082 Cl
HETATM    8  C   UNL     1      -4.972   1.436 -32.677  1.00  0.00     0.034 A 
ENDROOT
BRANCH   5   9
HETATM    9  N   UNL     1      -5.453  -2.048 -33.961  1.00  0.00    -0.376 N 
HETATM   10  C   UNL     1      -4.434  -2.855 -33.260  1.00  0.00     0.150 C 
HETATM   11  C   UNL     1      -4.024  -4.049 -34.149  1.00  0.00     0.252 C 
HETATM   12  N   UNL     1      -5.244  -4.846 -34.556  1.00  0.00    -0.072 N 
HETATM   13  H   UNL     1      -5.649  -5.299 -33.727  1.00  0.00     0.277 HD
HETATM   14  H   UNL     1      -4.959  -5.598 -35.197  1.00  0.00     0.277 HD
HETATM   15  C   UNL     1      -6.299  -3.992 -35.227  1.00  0.00     0.252 C 
HETATM   16  C   UNL     1      -6.677  -2.801 -34.324  1.00  0.00     0.150 C 
ENDBRANCH   5   9
BRANCH   3  17
HETATM   17  S   UNL     1      -9.063   1.407 -32.605  1.00  0.00     0.172 S 
HETATM   18  C   UNL     1      -9.950  -0.109 -32.848  1.00  0.00     0.167 C 
HETATM   19  O   UNL     1      -9.246   1.868 -31.245  1.00  0.00    -0.223 OA
HETATM   20  O   UNL     1      -9.402   2.273 -33.724  1.00  0.00    -0.223 OA
ENDBRANCH   3  17
TORSDOF 2
ENDMDL
MODEL 9
REMARK VINA RESULT:      -5.4     23.847     25.078
REMARK  2 active torsions:
REMARK  status: ('A' for Active; 'I' for Inactive)
REMARK    1  A    between atoms: C_3  and  S_4 
REMARK    2  A    between atoms: C_9  and  N_10 
ROOT
HETATM    1  C   UNL     1      -2.941 -13.120 -37.271  1.00  0.00     0.050 C 
HETATM    2  C   UNL     1      -4.349 -13.240 -37.782  1.00  0.00    -0.039 A 
HETATM    3  C   UNL     1      -5.467 -13.557 -36.993  1.00  0.00     0.067 A 
HETATM    4  C   UNL     1      -6.754 -13.625 -37.565  1.00  0.00     0.055 A 
HETATM    5  C   UNL     1      -6.971 -13.416 -38.934  1.00  0.00     0.053 A 
HETATM    6  C   UNL     1      -5.834 -13.150 -39.727  1.00  0.00     0.061 A 
HETATM    7 CL   UNL     1      -5.958 -12.972 -41.448  1.00  0.00    -0.082 Cl
HETATM    8  C   UNL     1      -4.555 -13.063 -39.161  1.00  0.00     0.034 A 
ENDROOT
BRANCH   5   9
HETATM    9  N   UNL     1      -8.263 -13.462 -39.497  1.00  0.00    -0.376 N 
HETATM   10  C   UNL     1      -9.099 -14.645 -39.209  1.00  0.00     0.150 C 
HETATM   11  C   UNL     1     -10.297 -14.676 -40.182  1.00  0.00     0.252 C 
HETATM   12  N   UNL     1     -11.062 -13.372 -40.118  1.00  0.00    -0.072 N 
HETATM   13  H   UNL     1     -11.510 -13.282 -39.197  1.00  0.00     0.277 HD
HETATM   14  H   UNL     1     -11.817 -13.387 -40.815  1.00  0.00     0.277 HD
HETATM   15  C   UNL     1     -10.178 -12.168 -40.364  1.00  0.00     0.252 C 
HETATM   16  C   UNL     1      -8.984 -12.171 -39.390  1.00  0.00     0.150 C 
ENDBRANCH   5   9
BRANCH   3  17
HETATM   17  S   UNL     1      -5.360 -13.850 -35.227  1.00  0.00     0.172 S 
HETATM   18  C   UNL     1      -7.036 -13.936 -34.656  1.00  0.00     0.167 C 
HETATM   19  O   UNL     1      -4.715 -15.133 -35.045  1.00  0.00    -0.223 OA
HETATM   20  O   UNL     1      -4.781 -12.650 -34.644  1.00  0.00    -0.223 OA
ENDBRANCH   3  17
TORSDOF 2
ENDMDL
MODEL 10
REMARK VINA RESULT:      -5.4     10.868     12.437
REMARK  2 active torsions:
REMARK  status: ('A' for Active; 'I' for Inactive)
REMARK    1  A    between atoms: C_3  and  S_4 
REMARK    2  A    between atoms: C_9  and  N_10 
ROOT
HETATM    1  C   UNL     1     -12.131   4.387 -35.203  1.00  0.00     0.050 C 
HETATM    2  C   UNL     1     -11.074   3.531 -34.565  1.00  0.00    -0.039 A 
HETATM    3  C   UNL     1     -11.287   2.243 -34.048  1.00  0.00     0.067 A 
HETATM    4  C   UNL     1     -10.221   1.509 -33.486  1.00  0.00     0.055 A 
HETATM    5  C   UNL     1      -8.925   2.037 -33.387  1.00  0.00     0.053 A 
HETATM    6  C   UNL     1      -8.735   3.353 -33.862  1.00  0.00     0.061 A 
HETATM    7 CL   UNL     1      -7.204   4.153 -33.706  1.00  0.00    -0.082 Cl
HETATM    8  C   UNL     1      -9.785   4.079 -34.439  1.00  0.00     0.034 A 
ENDROOT
BRANCH   5   9
HETATM    9  N   UNL     1      -7.859   1.291 -32.846  1.00  0.00    -0.376 N 
HETATM   10  C   UNL     1      -7.607   1.400 -31.396  1.00  0.00     0.150 C 
HETATM   11  C   UNL     1      -6.216   0.814 -31.070  1.00  0.00     0.252 C 
HETATM   12  N   UNL     1      -6.106  -0.602 -31.592  1.00  0.00    -0.072 N 
HETATM   13  H   UNL     1      -6.746  -1.211 -31.068  1.00  0.00     0.277 HD
HETATM   14  H   UNL     1      -5.155  -0.953 -31.423  1.00  0.00     0.277 HD
HETATM   15  C   UNL     1      -6.419  -0.702 -33.070  1.00  0.00     0.252 C 
HETATM   16  C   UNL     1      -7.804  -0.096 -33.367  1.00  0.00     0.150 C 
ENDBRANCH   5   9
BRANCH   3  17
HETATM   17  S   UNL     1     -12.881   1.425 -34.099  1.00  0.00     0.172 S 
HETATM   18  C   UNL     1     -13.924   2.345 -33.000  1.00  0.00     0.167 C 
HETATM   19  O   UNL     1     -13.377   1.540 -35.454  1.00  0.00    -0.223 OA
HETATM   20  O   UNL     1     -12.693   0.115 -33.496  1.00  0.00    -0.223 OA
ENDBRANCH   3  17
TORSDOF 2
ENDMDL
