MODEL 1
REMARK VINA RESULT:     -10.4      0.000      0.000
REMARK  6 active torsions:
REMARK  status: ('A' for Active; 'I' for Inactive)
REMARK    1  A    between atoms: N_1  and  C_2 
REMARK    2  A    between atoms: C_6  and  C_8 
REMARK    3  A    between atoms: C_13  and  C_18 
REMARK    4  A    between atoms: C_24  and  C_28 
REMARK       I    between atoms: C_28  and  N_30 
REMARK    5  A    between atoms: N_30  and  C_31 
REMARK    6  A    between atoms: C_31  and  C_32 
ROOT
HETATM    1  C   UNL     1      -6.762   5.936 -32.714  1.00  0.00     0.084 C 
HETATM    2  C   UNL     1      -6.698   6.235 -31.217  1.00  0.00     0.188 C 
HETATM    3  O   UNL     1      -6.776   5.065 -30.387  1.00  0.00    -0.350 OA
HETATM    4  C   UNL     1      -6.008   4.006 -30.791  1.00  0.00     0.075 A 
HETATM    5  C   UNL     1      -5.880   2.961 -29.876  1.00  0.00     0.038 A 
HETATM    6  C   UNL     1      -5.164   1.809 -30.214  1.00  0.00     0.020 A 
HETATM    7  C   UNL     1      -4.558   1.704 -31.471  1.00  0.00     0.032 A 
HETATM    8  C   UNL     1      -4.709   2.752 -32.392  1.00  0.00     0.027 A 
HETATM    9  C   UNL     1      -5.447   3.900 -32.066  1.00  0.00    -0.023 A 
HETATM   10  C   UNL     1      -5.614   4.996 -33.083  1.00  0.00     0.056 C 
ENDROOT
BRANCH   1  11
HETATM   11  C   UNL     1      -8.091   5.384 -33.158  1.00  0.00     0.111 A 
HETATM   12  N   UNL     1      -8.484   5.232 -34.408  1.00  0.00    -0.233 NA
HETATM   13  C   UNL     1      -9.720   4.638 -34.340  1.00  0.00     0.085 A 
HETATM   14  C   UNL     1     -10.585   4.233 -35.364  1.00  0.00     0.035 A 
HETATM   15  C   UNL     1     -10.101   4.438 -33.022  1.00  0.00     0.063 A 
HETATM   16  C   UNL     1     -11.807   3.631 -35.016  1.00  0.00     0.016 A 
HETATM   17  C   UNL     1     -12.188   3.424 -33.674  1.00  0.00    -0.005 A 
HETATM   18  C   UNL     1     -11.312   3.848 -32.652  1.00  0.00     0.045 A 
HETATM   19  N   UNL     1      -9.053   4.926 -32.289  1.00  0.00    -0.342 N 
HETATM   20  H   UNL     1      -8.986   4.930 -31.280  1.00  0.00     0.167 HD
BRANCH  17  21
HETATM   21  C   UNL     1     -13.473   2.782 -33.319  1.00  0.00     0.071 A 
HETATM   22  C   UNL     1     -14.162   3.075 -32.159  1.00  0.00     0.052 A 
HETATM   23  C   UNL     1     -15.345   2.402 -31.972  1.00  0.00     0.122 A 
HETATM   24  N   UNL     1     -15.834   1.505 -32.845  1.00  0.00    -0.231 NA
HETATM   25  C   UNL     1     -15.113   1.300 -33.948  1.00  0.00     0.199 A 
HETATM   26  N   UNL     1     -13.948   1.890 -34.219  1.00  0.00    -0.218 NA
BRANCH  25  27
HETATM   27  N   UNL     1     -15.583   0.372 -34.855  1.00  0.00    -0.271 NA
HETATM   28  H   UNL     1     -15.094  -0.501 -34.718  1.00  0.00     0.127 HD
HETATM   29  H   UNL     1     -15.563   0.774 -35.781  1.00  0.00     0.127 HD
ENDBRANCH  25  27
ENDBRANCH  17  21
ENDBRANCH   1  11
BRANCH   7  30
HETATM   30  C   UNL     1      -3.785   0.501 -31.901  1.00  0.00     0.251 C 
HETATM   31  O   UNL     1      -2.696   0.262 -31.388  1.00  0.00    -0.268 OA
HETATM   32  N   UNL     1      -4.362  -0.307 -32.853  1.00  0.00    -0.353 N 
HETATM   33  H   UNL     1      -5.281  -0.112 -33.215  1.00  0.00     0.163 HD
BRANCH  32  34
HETATM   34  C   UNL     1      -3.690  -1.477 -33.374  1.00  0.00     0.161 C 
BRANCH  34  35
HETATM   35  C   UNL     1      -4.691  -2.461 -33.918  1.00  0.00    -0.041 A 
HETATM   36  C   UNL     1      -6.008  -2.053 -34.177  1.00  0.00     0.009 A 
HETATM   37  C   UNL     1      -6.947  -2.960 -34.670  1.00  0.00     0.001 A 
HETATM   38  C   UNL     1      -6.582  -4.286 -34.898  1.00  0.00     0.000 A 
HETATM   39  C   UNL     1      -5.281  -4.706 -34.630  1.00  0.00     0.001 A 
HETATM   40  C   UNL     1      -4.339  -3.800 -34.140  1.00  0.00     0.009 A 
ENDBRANCH  34  35
ENDBRANCH  32  34
ENDBRANCH   7  30
TORSDOF 6
ENDMDL
MODEL 2
REMARK VINA RESULT:     -10.2      4.674      9.160
REMARK  6 active torsions:
REMARK  status: ('A' for Active; 'I' for Inactive)
REMARK    1  A    between atoms: N_1  and  C_2 
REMARK    2  A    between atoms: C_6  and  C_8 
REMARK    3  A    between atoms: C_13  and  C_18 
REMARK    4  A    between atoms: C_24  and  C_28 
REMARK       I    between atoms: C_28  and  N_30 
REMARK    5  A    between atoms: N_30  and  C_31 
REMARK    6  A    between atoms: C_31  and  C_32 
ROOT
HETATM    1  C   UNL     1      -6.964   4.665 -33.453  1.00  0.00     0.084 C 
HETATM    2  C   UNL     1      -7.881   4.948 -32.263  1.00  0.00     0.188 C 
HETATM    3  O   UNL     1      -7.202   4.957 -30.997  1.00  0.00    -0.350 OA
HETATM    4  C   UNL     1      -6.012   5.633 -30.974  1.00  0.00     0.075 A 
HETATM    5  C   UNL     1      -5.466   5.861 -29.711  1.00  0.00     0.038 A 
HETATM    6  C   UNL     1      -4.225   6.494 -29.581  1.00  0.00     0.020 A 
HETATM    7  C   UNL     1      -3.530   6.913 -30.721  1.00  0.00     0.032 A 
HETATM    8  C   UNL     1      -4.079   6.661 -31.988  1.00  0.00     0.027 A 
HETATM    9  C   UNL     1      -5.313   6.006 -32.123  1.00  0.00    -0.023 A 
HETATM   10  C   UNL     1      -5.863   5.726 -33.495  1.00  0.00     0.056 C 
ENDROOT
BRANCH   1  11
HETATM   11  C   UNL     1      -6.390   3.274 -33.449  1.00  0.00     0.111 A 
HETATM   12  N   UNL     1      -5.325   2.880 -32.776  1.00  0.00    -0.233 NA
HETATM   13  C   UNL     1      -5.212   1.532 -33.013  1.00  0.00     0.085 A 
HETATM   14  C   UNL     1      -4.276   0.608 -32.535  1.00  0.00     0.035 A 
HETATM   15  C   UNL     1      -6.215   1.093 -33.862  1.00  0.00     0.063 A 
HETATM   16  C   UNL     1      -4.393  -0.737 -32.930  1.00  0.00     0.016 A 
HETATM   17  C   UNL     1      -5.420  -1.181 -33.790  1.00  0.00    -0.005 A 
HETATM   18  C   UNL     1      -6.349  -0.235 -34.273  1.00  0.00     0.045 A 
HETATM   19  N   UNL     1      -6.947   2.218 -34.132  1.00  0.00    -0.342 N 
HETATM   20  H   UNL     1      -7.772   2.263 -34.715  1.00  0.00     0.167 HD
BRANCH  17  21
HETATM   21  C   UNL     1      -5.540  -2.599 -34.193  1.00  0.00     0.071 A 
HETATM   22  C   UNL     1      -6.667  -3.113 -34.803  1.00  0.00     0.052 A 
HETATM   23  C   UNL     1      -6.625  -4.447 -35.125  1.00  0.00     0.122 A 
HETATM   24  N   UNL     1      -5.567  -5.238 -34.877  1.00  0.00    -0.231 NA
HETATM   25  C   UNL     1      -4.515  -4.653 -34.305  1.00  0.00     0.199 A 
HETATM   26  N   UNL     1      -4.457  -3.371 -33.940  1.00  0.00    -0.218 NA
BRANCH  25  27
HETATM   27  N   UNL     1      -3.420  -5.444 -34.022  1.00  0.00    -0.271 NA
HETATM   28  H   UNL     1      -3.101  -5.245 -33.085  1.00  0.00     0.127 HD
HETATM   29  H   UNL     1      -2.746  -5.357 -34.769  1.00  0.00     0.127 HD
ENDBRANCH  25  27
ENDBRANCH  17  21
ENDBRANCH   1  11
BRANCH   7  30
HETATM   30  C   UNL     1      -2.199   7.587 -30.657  1.00  0.00     0.251 C 
HETATM   31  O   UNL     1      -2.066   8.716 -31.119  1.00  0.00    -0.268 OA
HETATM   32  N   UNL     1      -1.177   6.899 -30.045  1.00  0.00    -0.353 N 
HETATM   33  H   UNL     1      -1.334   5.995 -29.628  1.00  0.00     0.163 HD
BRANCH  32  34
HETATM   34  C   UNL     1       0.163   7.434 -29.959  1.00  0.00     0.161 C 
BRANCH  34  35
HETATM   35  C   UNL     1       0.574   7.598 -28.520  1.00  0.00    -0.041 A 
HETATM   36  C   UNL     1       1.487   8.599 -28.159  1.00  0.00     0.009 A 
HETATM   37  C   UNL     1       1.883   8.752 -26.829  1.00  0.00     0.001 A 
HETATM   38  C   UNL     1       1.378   7.898 -25.850  1.00  0.00     0.000 A 
HETATM   39  C   UNL     1       0.482   6.890 -26.199  1.00  0.00     0.001 A 
HETATM   40  C   UNL     1       0.082   6.737 -27.528  1.00  0.00     0.009 A 
ENDBRANCH  34  35
ENDBRANCH  32  34
ENDBRANCH   7  30
TORSDOF 6
ENDMDL
MODEL 3
REMARK VINA RESULT:     -10.2      4.258      8.952
REMARK  6 active torsions:
REMARK  status: ('A' for Active; 'I' for Inactive)
REMARK    1  A    between atoms: N_1  and  C_2 
REMARK    2  A    between atoms: C_6  and  C_8 
REMARK    3  A    between atoms: C_13  and  C_18 
REMARK    4  A    between atoms: C_24  and  C_28 
REMARK       I    between atoms: C_28  and  N_30 
REMARK    5  A    between atoms: N_30  and  C_31 
REMARK    6  A    between atoms: C_31  and  C_32 
ROOT
HETATM    1  C   UNL     1      -6.378   5.009 -33.276  1.00  0.00     0.084 C 
HETATM    2  C   UNL     1      -7.870   5.176 -32.989  1.00  0.00     0.188 C 
HETATM    3  O   UNL     1      -8.246   4.821 -31.649  1.00  0.00    -0.350 OA
HETATM    4  C   UNL     1      -7.420   5.290 -30.664  1.00  0.00     0.075 A 
HETATM    5  C   UNL     1      -7.897   5.168 -29.359  1.00  0.00     0.038 A 
HETATM    6  C   UNL     1      -7.105   5.564 -28.276  1.00  0.00     0.020 A 
HETATM    7  C   UNL     1      -5.831   6.100 -28.499  1.00  0.00     0.032 A 
HETATM    8  C   UNL     1      -5.353   6.200 -29.815  1.00  0.00     0.027 A 
HETATM    9  C   UNL     1      -6.134   5.782 -30.902  1.00  0.00    -0.023 A 
HETATM   10  C   UNL     1      -5.584   5.877 -32.299  1.00  0.00     0.056 C 
ENDROOT
BRANCH   1  11
HETATM   11  C   UNL     1      -5.918   3.576 -33.242  1.00  0.00     0.111 A 
HETATM   12  N   UNL     1      -4.967   3.090 -32.467  1.00  0.00    -0.233 NA
HETATM   13  C   UNL     1      -4.934   1.741 -32.720  1.00  0.00     0.085 A 
HETATM   14  C   UNL     1      -4.131   0.738 -32.165  1.00  0.00     0.035 A 
HETATM   15  C   UNL     1      -5.871   1.395 -33.682  1.00  0.00     0.063 A 
HETATM   16  C   UNL     1      -4.309  -0.588 -32.600  1.00  0.00     0.016 A 
HETATM   17  C   UNL     1      -5.268  -0.937 -33.574  1.00  0.00    -0.005 A 
HETATM   18  C   UNL     1      -6.063   0.087 -34.134  1.00  0.00     0.045 A 
HETATM   19  N   UNL     1      -6.478   2.578 -34.003  1.00  0.00    -0.342 N 
HETATM   20  H   UNL     1      -7.229   2.697 -34.671  1.00  0.00     0.167 HD
BRANCH  17  21
HETATM   21  C   UNL     1      -5.454  -2.335 -34.019  1.00  0.00     0.071 A 
HETATM   22  C   UNL     1      -6.622  -2.788 -34.599  1.00  0.00     0.052 A 
HETATM   23  C   UNL     1      -6.640  -4.112 -34.967  1.00  0.00     0.122 A 
HETATM   24  N   UNL     1      -5.602  -4.946 -34.789  1.00  0.00    -0.231 NA
HETATM   25  C   UNL     1      -4.507  -4.417 -34.241  1.00  0.00     0.199 A 
HETATM   26  N   UNL     1      -4.390  -3.152 -33.837  1.00  0.00    -0.218 NA
BRANCH  25  27
HETATM   27  N   UNL     1      -3.430  -5.255 -34.030  1.00  0.00    -0.271 NA
HETATM   28  H   UNL     1      -3.355  -5.897 -34.806  1.00  0.00     0.127 HD
HETATM   29  H   UNL     1      -3.496  -5.652 -33.104  1.00  0.00     0.127 HD
ENDBRANCH  25  27
ENDBRANCH  17  21
ENDBRANCH   1  11
BRANCH   7  30
HETATM   30  C   UNL     1      -4.930   6.536 -27.391  1.00  0.00     0.251 C 
HETATM   31  O   UNL     1      -5.411   7.018 -26.370  1.00  0.00    -0.268 OA
HETATM   32  N   UNL     1      -3.580   6.345 -27.570  1.00  0.00    -0.353 N 
HETATM   33  H   UNL     1      -3.222   5.898 -28.398  1.00  0.00     0.163 HD
BRANCH  32  34
HETATM   34  C   UNL     1      -2.610   6.765 -26.583  1.00  0.00     0.161 C 
BRANCH  34  35
HETATM   35  C   UNL     1      -1.320   7.165 -27.249  1.00  0.00    -0.041 A 
HETATM   36  C   UNL     1      -0.169   7.387 -26.478  1.00  0.00     0.009 A 
HETATM   37  C   UNL     1       1.028   7.769 -27.085  1.00  0.00     0.001 A 
HETATM   38  C   UNL     1       1.084   7.943 -28.467  1.00  0.00     0.000 A 
HETATM   39  C   UNL     1      -0.056   7.740 -29.241  1.00  0.00     0.001 A 
HETATM   40  C   UNL     1      -1.254   7.355 -28.637  1.00  0.00     0.009 A 
ENDBRANCH  34  35
ENDBRANCH  32  34
ENDBRANCH   7  30
TORSDOF 6
ENDMDL
MODEL 4
REMARK VINA RESULT:     -10.1      2.700      9.502
REMARK  6 active torsions:
REMARK  status: ('A' for Active; 'I' for Inactive)
REMARK    1  A    between atoms: N_1  and  C_2 
REMARK    2  A    between atoms: C_6  and  C_8 
REMARK    3  A    between atoms: C_13  and  C_18 
REMARK    4  A    between atoms: C_24  and  C_28 
REMARK       I    between atoms: C_28  and  N_30 
REMARK    5  A    between atoms: N_30  and  C_31 
REMARK    6  A    between atoms: C_31  and  C_32 
ROOT
HETATM    1  C   UNL     1      -7.470   4.185 -31.964  1.00  0.00     0.084 C 
HETATM    2  C   UNL     1      -7.398   5.303 -33.005  1.00  0.00     0.188 C 
HETATM    3  O   UNL     1      -8.086   5.002 -34.228  1.00  0.00    -0.350 OA
HETATM    4  C   UNL     1      -9.325   4.438 -34.082  1.00  0.00     0.075 A 
HETATM    5  C   UNL     1     -10.103   4.367 -35.238  1.00  0.00     0.038 A 
HETATM    6  C   UNL     1     -11.361   3.757 -35.207  1.00  0.00     0.020 A 
HETATM    7  C   UNL     1     -11.854   3.226 -34.009  1.00  0.00     0.032 A 
HETATM    8  C   UNL     1     -11.055   3.285 -32.856  1.00  0.00     0.027 A 
HETATM    9  C   UNL     1      -9.782   3.875 -32.888  1.00  0.00    -0.023 A 
HETATM   10  C   UNL     1      -8.938   3.899 -31.644  1.00  0.00     0.056 C 
ENDROOT
BRANCH   1  11
HETATM   11  C   UNL     1      -6.743   2.934 -32.378  1.00  0.00     0.111 A 
HETATM   12  N   UNL     1      -5.438   2.744 -32.315  1.00  0.00    -0.233 NA
HETATM   13  C   UNL     1      -5.231   1.449 -32.724  1.00  0.00     0.085 A 
HETATM   14  C   UNL     1      -4.043   0.717 -32.834  1.00  0.00     0.035 A 
HETATM   15  C   UNL     1      -6.429   0.839 -33.062  1.00  0.00     0.063 A 
HETATM   16  C   UNL     1      -4.110  -0.616 -33.276  1.00  0.00     0.016 A 
HETATM   17  C   UNL     1      -5.332  -1.236 -33.613  1.00  0.00    -0.005 A 
HETATM   18  C   UNL     1      -6.521  -0.481 -33.510  1.00  0.00     0.045 A 
HETATM   19  N   UNL     1      -7.374   1.804 -32.841  1.00  0.00    -0.342 N 
HETATM   20  H   UNL     1      -8.371   1.698 -32.973  1.00  0.00     0.167 HD
BRANCH  17  21
HETATM   21  C   UNL     1      -5.394  -2.641 -34.070  1.00  0.00     0.071 A 
HETATM   22  C   UNL     1      -6.480  -3.164 -34.744  1.00  0.00     0.052 A 
HETATM   23  C   UNL     1      -6.386  -4.484 -35.110  1.00  0.00     0.122 A 
HETATM   24  N   UNL     1      -5.316  -5.253 -34.845  1.00  0.00    -0.231 NA
HETATM   25  C   UNL     1      -4.305  -4.660 -34.210  1.00  0.00     0.199 A 
HETATM   26  N   UNL     1      -4.300  -3.391 -33.799  1.00  0.00    -0.218 NA
BRANCH  25  27
HETATM   27  N   UNL     1      -3.199  -5.430 -33.910  1.00  0.00    -0.271 NA
HETATM   28  H   UNL     1      -3.102  -6.154 -34.607  1.00  0.00     0.127 HD
HETATM   29  H   UNL     1      -3.249  -5.720 -32.944  1.00  0.00     0.127 HD
ENDBRANCH  25  27
ENDBRANCH  17  21
ENDBRANCH   1  11
BRANCH   7  30
HETATM   30  C   UNL     1     -13.184   2.556 -33.905  1.00  0.00     0.251 C 
HETATM   31  O   UNL     1     -13.696   2.063 -34.905  1.00  0.00    -0.268 OA
HETATM   32  N   UNL     1     -13.764   2.504 -32.659  1.00  0.00    -0.353 N 
HETATM   33  H   UNL     1     -13.291   2.872 -31.848  1.00  0.00     0.163 HD
BRANCH  32  34
HETATM   34  C   UNL     1     -15.067   1.916 -32.445  1.00  0.00     0.161 C 
BRANCH  34  35
HETATM   35  C   UNL     1     -16.075   2.980 -32.099  1.00  0.00    -0.041 A 
HETATM   36  C   UNL     1     -17.436   2.655 -32.002  1.00  0.00     0.009 A 
HETATM   37  C   UNL     1     -18.379   3.636 -31.694  1.00  0.00     0.001 A 
HETATM   38  C   UNL     1     -17.972   4.954 -31.490  1.00  0.00     0.000 A 
HETATM   39  C   UNL     1     -16.625   5.292 -31.599  1.00  0.00     0.001 A 
HETATM   40  C   UNL     1     -15.679   4.311 -31.904  1.00  0.00     0.009 A 
ENDBRANCH  34  35
ENDBRANCH  32  34
ENDBRANCH   7  30
TORSDOF 6
ENDMDL
MODEL 5
REMARK VINA RESULT:      -9.8      4.504      8.466
REMARK  6 active torsions:
REMARK  status: ('A' for Active; 'I' for Inactive)
REMARK    1  A    between atoms: N_1  and  C_2 
REMARK    2  A    between atoms: C_6  and  C_8 
REMARK    3  A    between atoms: C_13  and  C_18 
REMARK    4  A    between atoms: C_24  and  C_28 
REMARK       I    between atoms: C_28  and  N_30 
REMARK    5  A    between atoms: N_30  and  C_31 
REMARK    6  A    between atoms: C_31  and  C_32 
ROOT
HETATM    1  C   UNL     1      -7.794   5.292 -33.356  1.00  0.00     0.084 C 
HETATM    2  C   UNL     1      -8.514   5.901 -32.153  1.00  0.00     0.188 C 
HETATM    3  O   UNL     1      -7.822   5.717 -30.908  1.00  0.00    -0.350 OA
HETATM    4  C   UNL     1      -6.474   5.952 -30.945  1.00  0.00     0.075 A 
HETATM    5  C   UNL     1      -5.833   6.019 -29.708  1.00  0.00     0.038 A 
HETATM    6  C   UNL     1      -4.448   6.199 -29.638  1.00  0.00     0.020 A 
HETATM    7  C   UNL     1      -3.698   6.327 -30.812  1.00  0.00     0.032 A 
HETATM    8  C   UNL     1      -4.350   6.238 -32.052  1.00  0.00     0.027 A 
HETATM    9  C   UNL     1      -5.736   6.035 -32.127  1.00  0.00    -0.023 A 
HETATM   10  C   UNL     1      -6.403   5.917 -33.471  1.00  0.00     0.056 C 
ENDROOT
BRANCH   1  11
HETATM   11  C   UNL     1      -7.721   3.789 -33.312  1.00  0.00     0.111 A 
HETATM   12  N   UNL     1      -8.684   2.981 -32.910  1.00  0.00    -0.233 NA
HETATM   13  C   UNL     1      -8.207   1.708 -33.105  1.00  0.00     0.085 A 
HETATM   14  C   UNL     1      -8.817   0.471 -32.868  1.00  0.00     0.035 A 
HETATM   15  C   UNL     1      -6.920   1.735 -33.619  1.00  0.00     0.063 A 
HETATM   16  C   UNL     1      -8.101  -0.702 -33.168  1.00  0.00     0.016 A 
HETATM   17  C   UNL     1      -6.794  -0.671 -33.698  1.00  0.00    -0.005 A 
HETATM   18  C   UNL     1      -6.187   0.584 -33.920  1.00  0.00     0.045 A 
HETATM   19  N   UNL     1      -6.630   3.067 -33.735  1.00  0.00    -0.342 N 
HETATM   20  H   UNL     1      -5.768   3.458 -34.094  1.00  0.00     0.167 HD
BRANCH  17  21
HETATM   21  C   UNL     1      -6.053  -1.910 -34.018  1.00  0.00     0.071 A 
HETATM   22  C   UNL     1      -4.714  -2.079 -33.728  1.00  0.00     0.052 A 
HETATM   23  C   UNL     1      -4.167  -3.290 -34.080  1.00  0.00     0.122 A 
HETATM   24  N   UNL     1      -4.863  -4.274 -34.673  1.00  0.00    -0.231 NA
HETATM   25  C   UNL     1      -6.155  -4.032 -34.896  1.00  0.00     0.199 A 
HETATM   26  N   UNL     1      -6.779  -2.889 -34.607  1.00  0.00    -0.218 NA
BRANCH  25  27
HETATM   27  N   UNL     1      -6.892  -5.019 -35.520  1.00  0.00    -0.271 NA
HETATM   28  H   UNL     1      -6.733  -5.897 -35.048  1.00  0.00     0.127 HD
HETATM   29  H   UNL     1      -6.713  -4.988 -36.513  1.00  0.00     0.127 HD
ENDBRANCH  25  27
ENDBRANCH  17  21
ENDBRANCH   1  11
BRANCH   7  30
HETATM   30  C   UNL     1      -2.217   6.513 -30.812  1.00  0.00     0.251 C 
HETATM   31  O   UNL     1      -1.700   7.279 -31.619  1.00  0.00    -0.268 OA
HETATM   32  N   UNL     1      -1.498   5.818 -29.867  1.00  0.00    -0.353 N 
HETATM   33  H   UNL     1      -1.959   5.238 -29.185  1.00  0.00     0.163 HD
BRANCH  32  34
HETATM   34  C   UNL     1      -0.055   5.889 -29.797  1.00  0.00     0.161 C 
BRANCH  34  35
HETATM   35  C   UNL     1       0.375   6.702 -28.605  1.00  0.00    -0.041 A 
HETATM   36  C   UNL     1       0.018   6.295 -27.311  1.00  0.00     0.009 A 
HETATM   37  C   UNL     1       0.402   7.048 -26.200  1.00  0.00     0.001 A 
HETATM   38  C   UNL     1       1.136   8.220 -26.373  1.00  0.00     0.000 A 
HETATM   39  C   UNL     1       1.483   8.643 -27.655  1.00  0.00     0.001 A 
HETATM   40  C   UNL     1       1.103   7.889 -28.767  1.00  0.00     0.009 A 
ENDBRANCH  34  35
ENDBRANCH  32  34
ENDBRANCH   7  30
TORSDOF 6
ENDMDL
MODEL 6
REMARK VINA RESULT:      -9.7      6.591     10.228
REMARK  6 active torsions:
REMARK  status: ('A' for Active; 'I' for Inactive)
REMARK    1  A    between atoms: N_1  and  C_2 
REMARK    2  A    between atoms: C_6  and  C_8 
REMARK    3  A    between atoms: C_13  and  C_18 
REMARK    4  A    between atoms: C_24  and  C_28 
REMARK       I    between atoms: C_28  and  N_30 
REMARK    5  A    between atoms: N_30  and  C_31 
REMARK    6  A    between atoms: C_31  and  C_32 
ROOT
HETATM    1  C   UNL     1      -0.685   6.240 -32.538  1.00  0.00     0.084 C 
HETATM    2  C   UNL     1      -1.152   7.441 -33.360  1.00  0.00     0.188 C 
HETATM    3  O   UNL     1      -2.229   8.174 -32.756  1.00  0.00    -0.350 OA
HETATM    4  C   UNL     1      -2.095   8.417 -31.416  1.00  0.00     0.075 A 
HETATM    5  C   UNL     1      -2.998   9.329 -30.869  1.00  0.00     0.038 A 
HETATM    6  C   UNL     1      -2.982   9.604 -29.498  1.00  0.00     0.020 A 
HETATM    7  C   UNL     1      -2.047   8.974 -28.668  1.00  0.00     0.032 A 
HETATM    8  C   UNL     1      -1.156   8.044 -29.225  1.00  0.00     0.027 A 
HETATM    9  C   UNL     1      -1.184   7.747 -30.596  1.00  0.00    -0.023 A 
HETATM   10  C   UNL     1      -0.235   6.726 -31.159  1.00  0.00     0.056 C 
ENDROOT
BRANCH   1  11
HETATM   11  C   UNL     1      -1.718   5.151 -32.428  1.00  0.00     0.111 A 
HETATM   12  N   UNL     1      -1.683   4.135 -31.586  1.00  0.00    -0.233 NA
HETATM   13  C   UNL     1      -2.850   3.442 -31.790  1.00  0.00     0.085 A 
HETATM   14  C   UNL     1      -3.340   2.293 -31.157  1.00  0.00     0.035 A 
HETATM   15  C   UNL     1      -3.609   4.032 -32.789  1.00  0.00     0.063 A 
HETATM   16  C   UNL     1      -4.589   1.784 -31.555  1.00  0.00     0.016 A 
HETATM   17  C   UNL     1      -5.361   2.391 -32.567  1.00  0.00    -0.005 A 
HETATM   18  C   UNL     1      -4.849   3.542 -33.205  1.00  0.00     0.045 A 
HETATM   19  N   UNL     1      -2.866   5.112 -33.184  1.00  0.00    -0.342 N 
HETATM   20  H   UNL     1      -3.126   5.782 -33.896  1.00  0.00     0.167 HD
BRANCH  17  21
HETATM   21  C   UNL     1      -6.677   1.853 -32.972  1.00  0.00     0.071 A 
HETATM   22  C   UNL     1      -7.070   1.746 -34.292  1.00  0.00     0.052 A 
HETATM   23  C   UNL     1      -8.320   1.219 -34.510  1.00  0.00     0.122 A 
HETATM   24  N   UNL     1      -9.140   0.821 -33.522  1.00  0.00    -0.231 NA
HETATM   25  C   UNL     1      -8.670   0.941 -32.280  1.00  0.00     0.199 A 
HETATM   26  N   UNL     1      -7.480   1.451 -31.959  1.00  0.00    -0.218 NA
BRANCH  25  27
HETATM   27  N   UNL     1      -9.497   0.555 -31.245  1.00  0.00    -0.271 NA
HETATM   28  H   UNL     1      -9.305  -0.408 -31.010  1.00  0.00     0.127 HD
HETATM   29  H   UNL     1     -10.451   0.795 -31.476  1.00  0.00     0.127 HD
ENDBRANCH  25  27
ENDBRANCH  17  21
ENDBRANCH   1  11
BRANCH   7  30
HETATM   30  C   UNL     1      -1.978   9.215 -27.196  1.00  0.00     0.251 C 
HETATM   31  O   UNL     1      -2.791   8.675 -26.452  1.00  0.00    -0.268 OA
HETATM   32  N   UNL     1      -0.967  10.029 -26.741  1.00  0.00    -0.353 N 
HETATM   33  H   UNL     1      -0.283  10.414 -27.373  1.00  0.00     0.163 HD
BRANCH  32  34
HETATM   34  C   UNL     1      -0.825  10.366 -25.342  1.00  0.00     0.161 C 
BRANCH  34  35
HETATM   35  C   UNL     1       0.481   9.842 -24.804  1.00  0.00    -0.041 A 
HETATM   36  C   UNL     1       0.834  10.075 -23.466  1.00  0.00     0.009 A 
HETATM   37  C   UNL     1       2.047   9.605 -22.962  1.00  0.00     0.001 A 
HETATM   38  C   UNL     1       2.923   8.906 -23.791  1.00  0.00     0.000 A 
HETATM   39  C   UNL     1       2.589   8.682 -25.126  1.00  0.00     0.001 A 
HETATM   40  C   UNL     1       1.375   9.149 -25.632  1.00  0.00     0.009 A 
ENDBRANCH  34  35
ENDBRANCH  32  34
ENDBRANCH   7  30
TORSDOF 6
ENDMDL
MODEL 7
REMARK VINA RESULT:      -9.6      4.008      6.179
REMARK  6 active torsions:
REMARK  status: ('A' for Active; 'I' for Inactive)
REMARK    1  A    between atoms: N_1  and  C_2 
REMARK    2  A    between atoms: C_6  and  C_8 
REMARK    3  A    between atoms: C_13  and  C_18 
REMARK    4  A    between atoms: C_24  and  C_28 
REMARK       I    between atoms: C_28  and  N_30 
REMARK    5  A    between atoms: N_30  and  C_31 
REMARK    6  A    between atoms: C_31  and  C_32 
ROOT
HETATM    1  C   UNL     1     -12.119   4.589 -31.722  1.00  0.00     0.084 C 
HETATM    2  C   UNL     1     -13.086   3.538 -32.266  1.00  0.00     0.188 C 
HETATM    3  O   UNL     1     -12.571   2.801 -33.386  1.00  0.00    -0.350 OA
HETATM    4  C   UNL     1     -11.276   2.376 -33.264  1.00  0.00     0.075 A 
HETATM    5  C   UNL     1     -10.842   1.459 -34.222  1.00  0.00     0.038 A 
HETATM    6  C   UNL     1      -9.519   1.006 -34.219  1.00  0.00     0.020 A 
HETATM    7  C   UNL     1      -8.624   1.462 -33.245  1.00  0.00     0.032 A 
HETATM    8  C   UNL     1      -9.065   2.400 -32.298  1.00  0.00     0.027 A 
HETATM    9  C   UNL     1     -10.385   2.875 -32.311  1.00  0.00    -0.023 A 
HETATM   10  C   UNL     1     -10.821   3.900 -31.300  1.00  0.00     0.056 C 
ENDROOT
BRANCH   1  11
HETATM   11  C   UNL     1     -11.857   5.717 -32.685  1.00  0.00     0.111 A 
HETATM   12  N   UNL     1     -11.197   6.826 -32.412  1.00  0.00    -0.233 NA
HETATM   13  C   UNL     1     -11.144   7.527 -33.592  1.00  0.00     0.085 A 
HETATM   14  C   UNL     1     -10.549   8.761 -33.883  1.00  0.00     0.035 A 
HETATM   15  C   UNL     1     -11.800   6.844 -34.604  1.00  0.00     0.063 A 
HETATM   16  C   UNL     1     -10.633   9.258 -35.195  1.00  0.00     0.016 A 
HETATM   17  C   UNL     1     -11.297   8.556 -36.224  1.00  0.00    -0.005 A 
HETATM   18  C   UNL     1     -11.902   7.319 -35.913  1.00  0.00     0.045 A 
HETATM   19  N   UNL     1     -12.251   5.700 -34.002  1.00  0.00    -0.342 N 
HETATM   20  H   UNL     1     -12.767   4.956 -34.453  1.00  0.00     0.167 HD
BRANCH  17  21
HETATM   21  C   UNL     1     -11.373   9.083 -37.604  1.00  0.00     0.071 A 
HETATM   22  C   UNL     1     -12.400   8.769 -38.471  1.00  0.00     0.052 A 
HETATM   23  C   UNL     1     -12.336   9.343 -39.718  1.00  0.00     0.122 A 
HETATM   24  N   UNL     1     -11.347  10.166 -40.105  1.00  0.00    -0.231 NA
HETATM   25  C   UNL     1     -10.408  10.431 -39.196  1.00  0.00     0.199 A 
HETATM   26  N   UNL     1     -10.370   9.917 -37.966  1.00  0.00    -0.218 NA
BRANCH  25  27
HETATM   27  N   UNL     1      -9.371  11.260 -39.572  1.00  0.00    -0.271 NA
HETATM   28  H   UNL     1      -8.562  11.056 -39.003  1.00  0.00     0.127 HD
HETATM   29  H   UNL     1      -9.699  12.216 -39.586  1.00  0.00     0.127 HD
ENDBRANCH  25  27
ENDBRANCH  17  21
ENDBRANCH   1  11
BRANCH   7  30
HETATM   30  C   UNL     1      -7.197   1.027 -33.188  1.00  0.00     0.251 C 
HETATM   31  O   UNL     1      -6.374   1.717 -32.593  1.00  0.00    -0.268 OA
HETATM   32  N   UNL     1      -6.880  -0.165 -33.797  1.00  0.00    -0.353 N 
HETATM   33  H   UNL     1      -7.590  -0.733 -34.231  1.00  0.00     0.163 HD
BRANCH  32  34
HETATM   34  C   UNL     1      -5.525  -0.667 -33.840  1.00  0.00     0.161 C 
BRANCH  34  35
HETATM   35  C   UNL     1      -5.518  -2.136 -34.170  1.00  0.00    -0.041 A 
HETATM   36  C   UNL     1      -6.679  -2.752 -34.659  1.00  0.00     0.009 A 
HETATM   37  C   UNL     1      -6.687  -4.115 -34.958  1.00  0.00     0.001 A 
HETATM   38  C   UNL     1      -5.536  -4.878 -34.760  1.00  0.00     0.000 A 
HETATM   39  C   UNL     1      -4.381  -4.280 -34.260  1.00  0.00     0.001 A 
HETATM   40  C   UNL     1      -4.371  -2.915 -33.964  1.00  0.00     0.009 A 
ENDBRANCH  34  35
ENDBRANCH  32  34
ENDBRANCH   7  30
TORSDOF 6
ENDMDL
MODEL 8
REMARK VINA RESULT:      -9.3      2.395      8.305
REMARK  6 active torsions:
REMARK  status: ('A' for Active; 'I' for Inactive)
REMARK    1  A    between atoms: N_1  and  C_2 
REMARK    2  A    between atoms: C_6  and  C_8 
REMARK    3  A    between atoms: C_13  and  C_18 
REMARK    4  A    between atoms: C_24  and  C_28 
REMARK       I    between atoms: C_28  and  N_30 
REMARK    5  A    between atoms: N_30  and  C_31 
REMARK    6  A    between atoms: C_31  and  C_32 
ROOT
HETATM    1  C   UNL     1      -5.736   3.762 -29.688  1.00  0.00     0.084 C 
HETATM    2  C   UNL     1      -5.118   5.104 -30.078  1.00  0.00     0.188 C 
HETATM    3  O   UNL     1      -5.616   5.635 -31.315  1.00  0.00    -0.350 OA
HETATM    4  C   UNL     1      -6.973   5.563 -31.481  1.00  0.00     0.075 A 
HETATM    5  C   UNL     1      -7.495   6.287 -32.553  1.00  0.00     0.038 A 
HETATM    6  C   UNL     1      -8.862   6.234 -32.843  1.00  0.00     0.020 A 
HETATM    7  C   UNL     1      -9.718   5.462 -32.048  1.00  0.00     0.032 A 
HETATM    8  C   UNL     1      -9.179   4.721 -30.985  1.00  0.00     0.027 A 
HETATM    9  C   UNL     1      -7.805   4.753 -30.705  1.00  0.00    -0.023 A 
HETATM   10  C   UNL     1      -7.253   3.928 -29.575  1.00  0.00     0.056 C 
ENDROOT
BRANCH   1  11
HETATM   11  C   UNL     1      -5.373   2.641 -30.623  1.00  0.00     0.111 A 
HETATM   12  N   UNL     1      -4.200   2.470 -31.205  1.00  0.00    -0.233 NA
HETATM   13  C   UNL     1      -4.300   1.294 -31.907  1.00  0.00     0.085 A 
HETATM   14  C   UNL     1      -3.351   0.627 -32.689  1.00  0.00     0.035 A 
HETATM   15  C   UNL     1      -5.564   0.741 -31.768  1.00  0.00     0.063 A 
HETATM   16  C   UNL     1      -3.713  -0.586 -33.301  1.00  0.00     0.016 A 
HETATM   17  C   UNL     1      -4.998  -1.149 -33.152  1.00  0.00    -0.005 A 
HETATM   18  C   UNL     1      -5.949  -0.459 -32.370  1.00  0.00     0.045 A 
HETATM   19  N   UNL     1      -6.230   1.618 -30.955  1.00  0.00    -0.342 N 
HETATM   20  H   UNL     1      -7.183   1.519 -30.631  1.00  0.00     0.167 HD
BRANCH  17  21
HETATM   21  C   UNL     1      -5.367  -2.430 -33.793  1.00  0.00     0.071 A 
HETATM   22  C   UNL     1      -6.570  -2.626 -34.441  1.00  0.00     0.052 A 
HETATM   23  C   UNL     1      -6.765  -3.868 -34.994  1.00  0.00     0.122 A 
HETATM   24  N   UNL     1      -5.860  -4.860 -34.927  1.00  0.00    -0.231 NA
HETATM   25  C   UNL     1      -4.718  -4.576 -34.301  1.00  0.00     0.199 A 
HETATM   26  N   UNL     1      -4.434  -3.409 -33.720  1.00  0.00    -0.218 NA
BRANCH  25  27
HETATM   27  N   UNL     1      -3.777  -5.581 -34.203  1.00  0.00    -0.271 NA
HETATM   28  H   UNL     1      -4.185  -6.448 -34.520  1.00  0.00     0.127 HD
HETATM   29  H   UNL     1      -3.375  -5.569 -33.276  1.00  0.00     0.127 HD
ENDBRANCH  25  27
ENDBRANCH  17  21
ENDBRANCH   1  11
BRANCH   7  30
HETATM   30  C   UNL     1     -11.185   5.354 -32.304  1.00  0.00     0.251 C 
HETATM   31  O   UNL     1     -11.760   6.238 -32.931  1.00  0.00    -0.268 OA
HETATM   32  N   UNL     1     -11.821   4.228 -31.835  1.00  0.00    -0.353 N 
HETATM   33  H   UNL     1     -11.309   3.495 -31.371  1.00  0.00     0.163 HD
BRANCH  32  34
HETATM   34  C   UNL     1     -13.246   4.033 -31.989  1.00  0.00     0.161 C 
BRANCH  34  35
HETATM   35  C   UNL     1     -13.524   2.793 -32.796  1.00  0.00    -0.041 A 
HETATM   36  C   UNL     1     -12.523   2.248 -33.615  1.00  0.00     0.009 A 
HETATM   37  C   UNL     1     -12.774   1.105 -34.375  1.00  0.00     0.001 A 
HETATM   38  C   UNL     1     -14.030   0.502 -34.332  1.00  0.00     0.000 A 
HETATM   39  C   UNL     1     -15.036   1.042 -33.534  1.00  0.00     0.001 A 
HETATM   40  C   UNL     1     -14.786   2.184 -32.770  1.00  0.00     0.009 A 
ENDBRANCH  34  35
ENDBRANCH  32  34
ENDBRANCH   7  30
TORSDOF 6
ENDMDL
MODEL 9
REMARK VINA RESULT:      -9.1      5.627      9.797
REMARK  6 active torsions:
REMARK  status: ('A' for Active; 'I' for Inactive)
REMARK    1  A    between atoms: N_1  and  C_2 
REMARK    2  A    between atoms: C_6  and  C_8 
REMARK    3  A    between atoms: C_13  and  C_18 
REMARK    4  A    between atoms: C_24  and  C_28 
REMARK       I    between atoms: C_28  and  N_30 
REMARK    5  A    between atoms: N_30  and  C_31 
REMARK    6  A    between atoms: C_31  and  C_32 
ROOT
HETATM    1  C   UNL     1      -6.272   6.263 -30.614  1.00  0.00     0.084 C 
HETATM    2  C   UNL     1      -5.934   6.827 -31.994  1.00  0.00     0.188 C 
HETATM    3  O   UNL     1      -4.677   6.368 -32.516  1.00  0.00    -0.350 OA
HETATM    4  C   UNL     1      -4.435   5.028 -32.372  1.00  0.00     0.075 A 
HETATM    5  C   UNL     1      -3.345   4.526 -33.083  1.00  0.00     0.038 A 
HETATM    6  C   UNL     1      -2.980   3.182 -32.960  1.00  0.00     0.020 A 
HETATM    7  C   UNL     1      -3.717   2.328 -32.130  1.00  0.00     0.032 A 
HETATM    8  C   UNL     1      -4.799   2.848 -31.404  1.00  0.00     0.027 A 
HETATM    9  C   UNL     1      -5.155   4.202 -31.507  1.00  0.00    -0.023 A 
HETATM   10  C   UNL     1      -6.303   4.736 -30.695  1.00  0.00     0.056 C 
ENDROOT
BRANCH   1  11
HETATM   11  C   UNL     1      -5.344   6.739 -29.528  1.00  0.00     0.111 A 
HETATM   12  N   UNL     1      -5.450   6.455 -28.244  1.00  0.00    -0.233 NA
HETATM   13  C   UNL     1      -4.361   7.037 -27.643  1.00  0.00     0.085 A 
HETATM   14  C   UNL     1      -3.963   7.037 -26.301  1.00  0.00     0.035 A 
HETATM   15  C   UNL     1      -3.581   7.706 -28.574  1.00  0.00     0.063 A 
HETATM   16  C   UNL     1      -2.781   7.712 -25.947  1.00  0.00     0.016 A 
HETATM   17  C   UNL     1      -1.987   8.386 -26.898  1.00  0.00    -0.005 A 
HETATM   18  C   UNL     1      -2.406   8.387 -28.246  1.00  0.00     0.045 A 
HETATM   19  N   UNL     1      -4.229   7.508 -29.763  1.00  0.00    -0.342 N 
HETATM   20  H   UNL     1      -3.929   7.850 -30.666  1.00  0.00     0.167 HD
BRANCH  17  21
HETATM   21  C   UNL     1      -0.741   9.086 -26.518  1.00  0.00     0.071 A 
HETATM   22  C   UNL     1      -0.558  10.442 -26.697  1.00  0.00     0.052 A 
HETATM   23  C   UNL     1       0.652  10.949 -26.287  1.00  0.00     0.122 A 
HETATM   24  N   UNL     1       1.623  10.198 -25.739  1.00  0.00    -0.231 NA
HETATM   25  C   UNL     1       1.352   8.902 -25.585  1.00  0.00     0.199 A 
HETATM   26  N   UNL     1       0.218   8.309 -25.961  1.00  0.00    -0.218 NA
BRANCH  25  27
HETATM   27  N   UNL     1       2.337   8.104 -25.040  1.00  0.00    -0.271 NA
HETATM   28  H   UNL     1       3.001   8.686 -24.550  1.00  0.00     0.127 HD
HETATM   29  H   UNL     1       2.699   7.490 -25.756  1.00  0.00     0.127 HD
ENDBRANCH  25  27
ENDBRANCH  17  21
ENDBRANCH   1  11
BRANCH   7  30
HETATM   30  C   UNL     1      -3.379   0.886 -31.946  1.00  0.00     0.251 C 
HETATM   31  O   UNL     1      -2.681   0.541 -30.997  1.00  0.00    -0.268 OA
HETATM   32  N   UNL     1      -3.902  -0.002 -32.858  1.00  0.00    -0.353 N 
HETATM   33  H   UNL     1      -4.515   0.309 -33.594  1.00  0.00     0.163 HD
BRANCH  32  34
HETATM   34  C   UNL     1      -3.610  -1.417 -32.803  1.00  0.00     0.161 C 
BRANCH  34  35
HETATM   35  C   UNL     1      -4.660  -2.200 -33.546  1.00  0.00    -0.041 A 
HETATM   36  C   UNL     1      -4.381  -3.500 -33.996  1.00  0.00     0.009 A 
HETATM   37  C   UNL     1      -5.343  -4.229 -34.695  1.00  0.00     0.001 A 
HETATM   38  C   UNL     1      -6.589  -3.663 -34.962  1.00  0.00     0.000 A 
HETATM   39  C   UNL     1      -6.872  -2.367 -34.534  1.00  0.00     0.001 A 
HETATM   40  C   UNL     1      -5.912  -1.637 -33.831  1.00  0.00     0.009 A 
ENDBRANCH  34  35
ENDBRANCH  32  34
ENDBRANCH   7  30
TORSDOF 6
ENDMDL
MODEL 10
REMARK VINA RESULT:      -8.9      3.452      8.260
REMARK  6 active torsions:
REMARK  status: ('A' for Active; 'I' for Inactive)
REMARK    1  A    between atoms: N_1  and  C_2 
REMARK    2  A    between atoms: C_6  and  C_8 
REMARK    3  A    between atoms: C_13  and  C_18 
REMARK    4  A    between atoms: C_24  and  C_28 
REMARK       I    between atoms: C_28  and  N_30 
REMARK    5  A    between atoms: N_30  and  C_31 
REMARK    6  A    between atoms: C_31  and  C_32 
ROOT
HETATM    1  C   UNL     1      -9.797   3.447 -32.817  1.00  0.00     0.084 C 
HETATM    2  C   UNL     1     -10.519   3.200 -31.493  1.00  0.00     0.188 C 
HETATM    3  O   UNL     1      -9.639   3.100 -30.362  1.00  0.00    -0.350 OA
HETATM    4  C   UNL     1      -8.648   4.042 -30.304  1.00  0.00     0.075 A 
HETATM    5  C   UNL     1      -7.944   4.113 -29.102  1.00  0.00     0.038 A 
HETATM    6  C   UNL     1      -6.875   5.003 -28.960  1.00  0.00     0.020 A 
HETATM    7  C   UNL     1      -6.513   5.839 -30.023  1.00  0.00     0.032 A 
HETATM    8  C   UNL     1      -7.215   5.745 -31.235  1.00  0.00     0.027 A 
HETATM    9  C   UNL     1      -8.273   4.837 -31.389  1.00  0.00    -0.023 A 
HETATM   10  C   UNL     1      -8.989   4.741 -32.709  1.00  0.00     0.056 C 
ENDROOT
BRANCH   1  11
HETATM   11  C   UNL     1      -8.934   2.293 -33.253  1.00  0.00     0.111 A 
HETATM   12  N   UNL     1      -8.761   1.886 -34.496  1.00  0.00    -0.233 NA
HETATM   13  C   UNL     1      -7.849   0.861 -34.429  1.00  0.00     0.085 A 
HETATM   14  C   UNL     1      -7.291   0.081 -35.448  1.00  0.00     0.035 A 
HETATM   15  C   UNL     1      -7.469   0.622 -33.117  1.00  0.00     0.063 A 
HETATM   16  C   UNL     1      -6.358  -0.913 -35.103  1.00  0.00     0.016 A 
HETATM   17  C   UNL     1      -5.969  -1.149 -33.768  1.00  0.00    -0.005 A 
HETATM   18  C   UNL     1      -6.549  -0.362 -32.749  1.00  0.00     0.045 A 
HETATM   19  N   UNL     1      -8.176   1.539 -32.388  1.00  0.00    -0.342 N 
HETATM   20  H   UNL     1      -8.133   1.660 -31.384  1.00  0.00     0.167 HD
BRANCH  17  21
HETATM   21  C   UNL     1      -4.980  -2.191 -33.416  1.00  0.00     0.071 A 
HETATM   22  C   UNL     1      -4.006  -2.007 -32.456  1.00  0.00     0.052 A 
HETATM   23  C   UNL     1      -3.165  -3.071 -32.235  1.00  0.00     0.122 A 
HETATM   24  N   UNL     1      -3.256  -4.237 -32.896  1.00  0.00    -0.231 NA
HETATM   25  C   UNL     1      -4.240  -4.334 -33.791  1.00  0.00     0.199 A 
HETATM   26  N   UNL     1      -5.100  -3.359 -34.090  1.00  0.00    -0.218 NA
BRANCH  25  27
HETATM   27  N   UNL     1      -4.347  -5.515 -34.497  1.00  0.00    -0.271 NA
HETATM   28  H   UNL     1      -4.738  -5.322 -35.408  1.00  0.00     0.127 HD
HETATM   29  H   UNL     1      -4.819  -6.202 -33.926  1.00  0.00     0.127 HD
ENDBRANCH  25  27
ENDBRANCH  17  21
ENDBRANCH   1  11
BRANCH   7  30
HETATM   30  C   UNL     1      -5.379   6.806 -29.943  1.00  0.00     0.251 C 
HETATM   31  O   UNL     1      -5.588   8.004 -30.110  1.00  0.00    -0.268 OA
HETATM   32  N   UNL     1      -4.136   6.293 -29.655  1.00  0.00    -0.353 N 
HETATM   33  H   UNL     1      -4.008   5.310 -29.471  1.00  0.00     0.163 HD
BRANCH  32  34
HETATM   34  C   UNL     1      -2.957   7.128 -29.592  1.00  0.00     0.161 C 
BRANCH  34  35
HETATM   35  C   UNL     1      -2.197   7.065 -30.890  1.00  0.00    -0.041 A 
HETATM   36  C   UNL     1      -2.861   7.287 -32.105  1.00  0.00     0.009 A 
HETATM   37  C   UNL     1      -2.169   7.220 -33.315  1.00  0.00     0.001 A 
HETATM   38  C   UNL     1      -0.807   6.918 -33.322  1.00  0.00     0.000 A 
HETATM   39  C   UNL     1      -0.140   6.680 -32.122  1.00  0.00     0.001 A 
HETATM   40  C   UNL     1      -0.831   6.751 -30.911  1.00  0.00     0.009 A 
ENDBRANCH  34  35
ENDBRANCH  32  34
ENDBRANCH   7  30
TORSDOF 6
ENDMDL
