MODEL 1
REMARK VINA RESULT:      -9.0      0.000      0.000
REMARK  4 active torsions:
REMARK  status: ('A' for Active; 'I' for Inactive)
REMARK    1  A    between atoms: C_6  and  N_7 
REMARK       I    between atoms: N_7  and  C_8 
REMARK    2  A    between atoms: C_8  and  C_9 
REMARK    3  A    between atoms: C_10  and  C_11 
REMARK    4  A    between atoms: C_12  and  O_13 
ROOT
HETATM    1  C   UNL     1      -6.342   3.239 -32.389  1.00  0.00     0.063 A 
HETATM    2  C   UNL     1      -5.077   3.909 -31.870  1.00  0.00     0.205 A 
HETATM    3  N   UNL     1      -5.393   5.026 -30.968  1.00  0.00    -0.084 N 
HETATM    4  C   UNL     1      -6.666   5.418 -30.651  1.00  0.00     0.725 A 
HETATM    5  N   UNL     1      -7.712   4.773 -31.198  1.00  0.00    -0.192 N 
HETATM    6  N   UNL     1      -4.478   5.708 -30.242  1.00  0.00    -0.149 NA
HETATM    7  C   UNL     1      -5.274   6.554 -29.577  1.00  0.00     0.275 A 
HETATM    8  N   UNL     1      -6.618   6.405 -29.793  1.00  0.00    -0.054 NA
HETATM    9  C   UNL     1      -7.578   3.683 -32.051  1.00  0.00     0.037 A 
HETATM   10  C   UNL     1      -8.869   3.058 -32.521  1.00  0.00     0.070 C 
HETATM   11  H   UNL     1      -8.653   5.069 -30.956  1.00  0.00     0.184 HD
ENDROOT
BRANCH   1  12
HETATM   12  C   UNL     1      -6.190   2.114 -33.351  1.00  0.00     0.256 C 
HETATM   13  N   UNL     1      -5.932   0.906 -32.736  1.00  0.00    -0.323 N 
HETATM   14  H   UNL     1      -5.793   0.917 -31.737  1.00  0.00     0.169 HD
HETATM   15  O   UNL     1      -6.333   2.329 -34.548  1.00  0.00    -0.267 OA
BRANCH  13  16
HETATM   16  C   UNL     1      -5.880  -0.374 -33.341  1.00  0.00     0.041 A 
HETATM   17  C   UNL     1      -4.635  -1.036 -33.430  1.00  0.00    -0.035 A 
HETATM   18  C   UNL     1      -4.578  -2.336 -33.970  1.00  0.00     0.015 A 
HETATM   19  C   UNL     1      -3.351  -0.405 -32.962  1.00  0.00     0.050 C 
HETATM   20  C   UNL     1      -5.726  -2.979 -34.441  1.00  0.00    -0.061 A 
HETATM   21  C   UNL     1      -5.663  -4.381 -34.967  1.00  0.00     0.048 C 
HETATM   22  C   UNL     1      -6.949  -2.315 -34.356  1.00  0.00     0.009 A 
HETATM   23  C   UNL     1      -7.022  -1.025 -33.818  1.00  0.00     0.030 A 
ENDBRANCH  13  16
ENDBRANCH   1  12
BRANCH   2  24
HETATM   24  C   UNL     1      -4.143   4.375 -32.980  1.00  0.00     0.005 A 
HETATM   25  C   UNL     1      -2.747   4.278 -32.832  1.00  0.00     0.076 A 
HETATM   26  C   UNL     1      -1.905   4.699 -33.867  1.00  0.00     0.037 A 
HETATM   27  C   UNL     1      -2.441   5.236 -35.040  1.00  0.00     0.003 A 
HETATM   28  C   UNL     1      -3.819   5.346 -35.191  1.00  0.00     0.001 A 
HETATM   29  C   UNL     1      -4.667   4.917 -34.171  1.00  0.00     0.012 A 
BRANCH  25  30
HETATM   30  O   UNL     1      -2.291   3.717 -31.666  1.00  0.00    -0.355 OA
HETATM   31  C   UNL     1      -1.277   4.448 -30.982  1.00  0.00     0.210 C 
ENDBRANCH  25  30
ENDBRANCH   2  24
TORSDOF 4
ENDMDL
MODEL 2
REMARK VINA RESULT:      -8.8      3.045      5.651
REMARK  4 active torsions:
REMARK  status: ('A' for Active; 'I' for Inactive)
REMARK    1  A    between atoms: C_6  and  N_7 
REMARK       I    between atoms: N_7  and  C_8 
REMARK    2  A    between atoms: C_8  and  C_9 
REMARK    3  A    between atoms: C_10  and  C_11 
REMARK    4  A    between atoms: C_12  and  O_13 
ROOT
HETATM    1  C   UNL     1      -7.626   3.611 -32.792  1.00  0.00     0.063 A 
HETATM    2  C   UNL     1      -6.496   2.629 -32.516  1.00  0.00     0.205 A 
HETATM    3  N   UNL     1      -5.183   3.233 -32.784  1.00  0.00    -0.084 N 
HETATM    4  C   UNL     1      -5.007   4.513 -33.240  1.00  0.00     0.725 A 
HETATM    5  N   UNL     1      -6.083   5.281 -33.483  1.00  0.00    -0.192 N 
HETATM    6  N   UNL     1      -3.997   2.654 -32.490  1.00  0.00    -0.149 NA
HETATM    7  C   UNL     1      -3.151   3.615 -32.878  1.00  0.00     0.275 A 
HETATM    8  N   UNL     1      -3.727   4.770 -33.336  1.00  0.00    -0.054 NA
HETATM    9  C   UNL     1      -7.390   4.863 -33.258  1.00  0.00     0.037 A 
HETATM   10  C   UNL     1      -8.462   5.887 -33.540  1.00  0.00     0.070 C 
HETATM   11  H   UNL     1      -5.944   6.230 -33.819  1.00  0.00     0.184 HD
ENDROOT
BRANCH   1  12
HETATM   12  C   UNL     1      -9.023   3.135 -32.608  1.00  0.00     0.256 C 
HETATM   13  N   UNL     1      -9.684   2.918 -33.799  1.00  0.00    -0.323 N 
HETATM   14  H   UNL     1      -9.202   3.174 -34.648  1.00  0.00     0.169 HD
HETATM   15  O   UNL     1      -9.446   2.949 -31.473  1.00  0.00    -0.267 OA
BRANCH  13  16
HETATM   16  C   UNL     1     -10.961   2.331 -33.982  1.00  0.00     0.041 A 
HETATM   17  C   UNL     1     -11.158   0.991 -33.582  1.00  0.00    -0.035 A 
HETATM   18  C   UNL     1     -12.438   0.414 -33.697  1.00  0.00     0.015 A 
HETATM   19  C   UNL     1     -10.045   0.142 -33.026  1.00  0.00     0.050 C 
HETATM   20  C   UNL     1     -13.516   1.135 -34.220  1.00  0.00    -0.061 A 
HETATM   21  C   UNL     1     -14.885   0.529 -34.291  1.00  0.00     0.048 C 
HETATM   22  C   UNL     1     -13.309   2.454 -34.618  1.00  0.00     0.009 A 
HETATM   23  C   UNL     1     -12.045   3.042 -34.506  1.00  0.00     0.030 A 
ENDBRANCH  13  16
ENDBRANCH   1  12
BRANCH   2  24
HETATM   24  C   UNL     1      -6.639   1.317 -33.276  1.00  0.00     0.005 A 
HETATM   25  C   UNL     1      -6.514   0.083 -32.610  1.00  0.00     0.076 A 
HETATM   26  C   UNL     1      -6.661  -1.111 -33.322  1.00  0.00     0.037 A 
HETATM   27  C   UNL     1      -6.910  -1.090 -34.696  1.00  0.00     0.003 A 
HETATM   28  C   UNL     1      -7.024   0.124 -35.365  1.00  0.00     0.001 A 
HETATM   29  C   UNL     1      -6.893   1.321 -34.662  1.00  0.00     0.012 A 
BRANCH  25  30
HETATM   30  O   UNL     1      -6.295   0.137 -31.257  1.00  0.00    -0.355 OA
HETATM   31  C   UNL     1      -4.995  -0.254 -30.823  1.00  0.00     0.210 C 
ENDBRANCH  25  30
ENDBRANCH   2  24
TORSDOF 4
ENDMDL
MODEL 3
REMARK VINA RESULT:      -8.7      1.406      1.964
REMARK  4 active torsions:
REMARK  status: ('A' for Active; 'I' for Inactive)
REMARK    1  A    between atoms: C_6  and  N_7 
REMARK       I    between atoms: N_7  and  C_8 
REMARK    2  A    between atoms: C_8  and  C_9 
REMARK    3  A    between atoms: C_10  and  C_11 
REMARK    4  A    between atoms: C_12  and  O_13 
ROOT
HETATM    1  C   UNL     1      -6.863   2.518 -31.800  1.00  0.00     0.063 A 
HETATM    2  C   UNL     1      -5.674   3.170 -31.107  1.00  0.00     0.205 A 
HETATM    3  N   UNL     1      -6.111   4.120 -30.073  1.00  0.00    -0.084 N 
HETATM    4  C   UNL     1      -7.422   4.390 -29.786  1.00  0.00     0.725 A 
HETATM    5  N   UNL     1      -8.392   3.778 -30.489  1.00  0.00    -0.192 N 
HETATM    6  N   UNL     1      -5.284   4.735 -29.198  1.00  0.00    -0.149 NA
HETATM    7  C   UNL     1      -6.167   5.426 -28.469  1.00  0.00     0.275 A 
HETATM    8  N   UNL     1      -7.486   5.238 -28.791  1.00  0.00    -0.054 NA
HETATM    9  C   UNL     1      -8.141   2.838 -31.482  1.00  0.00     0.037 A 
HETATM   10  C   UNL     1      -9.362   2.222 -32.121  1.00  0.00     0.070 C 
HETATM   11  H   UNL     1      -9.363   3.983 -30.267  1.00  0.00     0.184 HD
ENDROOT
BRANCH   1  12
HETATM   12  C   UNL     1      -6.586   1.560 -32.904  1.00  0.00     0.256 C 
HETATM   13  N   UNL     1      -6.317   0.282 -32.459  1.00  0.00    -0.323 N 
HETATM   14  H   UNL     1      -6.254   0.144 -31.462  1.00  0.00     0.169 HD
HETATM   15  O   UNL     1      -6.649   1.951 -34.064  1.00  0.00    -0.267 OA
BRANCH  13  16
HETATM   16  C   UNL     1      -6.159  -0.887 -33.244  1.00  0.00     0.041 A 
HETATM   17  C   UNL     1      -4.860  -1.407 -33.437  1.00  0.00    -0.035 A 
HETATM   18  C   UNL     1      -4.693  -2.605 -34.160  1.00  0.00     0.015 A 
HETATM   19  C   UNL     1      -3.630  -0.730 -32.892  1.00  0.00     0.050 C 
HETATM   20  C   UNL     1      -5.787  -3.281 -34.710  1.00  0.00    -0.061 A 
HETATM   21  C   UNL     1      -5.604  -4.581 -35.433  1.00  0.00     0.048 C 
HETATM   22  C   UNL     1      -7.063  -2.755 -34.520  1.00  0.00     0.009 A 
HETATM   23  C   UNL     1      -7.245  -1.569 -33.801  1.00  0.00     0.030 A 
ENDBRANCH  13  16
ENDBRANCH   1  12
BRANCH   2  24
HETATM   24  C   UNL     1      -4.711   3.847 -32.073  1.00  0.00     0.005 A 
HETATM   25  C   UNL     1      -5.129   4.940 -32.857  1.00  0.00     0.076 A 
HETATM   26  C   UNL     1      -4.227   5.557 -33.730  1.00  0.00     0.037 A 
HETATM   27  C   UNL     1      -2.918   5.083 -33.846  1.00  0.00     0.003 A 
HETATM   28  C   UNL     1      -2.499   3.998 -33.084  1.00  0.00     0.001 A 
HETATM   29  C   UNL     1      -3.386   3.384 -32.201  1.00  0.00     0.012 A 
BRANCH  25  30
HETATM   30  O   UNL     1      -6.419   5.368 -32.674  1.00  0.00    -0.355 OA
HETATM   31  C   UNL     1      -6.580   6.761 -32.421  1.00  0.00     0.210 C 
ENDBRANCH  25  30
ENDBRANCH   2  24
TORSDOF 4
ENDMDL
MODEL 4
REMARK VINA RESULT:      -8.6      2.178      4.487
REMARK  4 active torsions:
REMARK  status: ('A' for Active; 'I' for Inactive)
REMARK    1  A    between atoms: C_6  and  N_7 
REMARK       I    between atoms: N_7  and  C_8 
REMARK    2  A    between atoms: C_8  and  C_9 
REMARK    3  A    between atoms: C_10  and  C_11 
REMARK    4  A    between atoms: C_12  and  O_13 
ROOT
HETATM    1  C   UNL     1      -5.282   2.593 -32.000  1.00  0.00     0.063 A 
HETATM    2  C   UNL     1      -6.191   3.754 -32.379  1.00  0.00     0.205 A 
HETATM    3  N   UNL     1      -5.560   5.048 -32.079  1.00  0.00    -0.084 N 
HETATM    4  C   UNL     1      -4.319   5.184 -31.516  1.00  0.00     0.725 A 
HETATM    5  N   UNL     1      -3.618   4.084 -31.190  1.00  0.00    -0.192 N 
HETATM    6  N   UNL     1      -6.065   6.249 -32.441  1.00  0.00    -0.149 NA
HETATM    7  C   UNL     1      -5.108   7.065 -31.984  1.00  0.00     0.275 A 
HETATM    8  N   UNL     1      -4.021   6.454 -31.418  1.00  0.00    -0.054 NA
HETATM    9  C   UNL     1      -4.067   2.790 -31.431  1.00  0.00     0.037 A 
HETATM   10  C   UNL     1      -3.114   1.685 -31.044  1.00  0.00     0.070 C 
HETATM   11  H   UNL     1      -2.697   4.194 -30.775  1.00  0.00     0.184 HD
ENDROOT
BRANCH   1  12
HETATM   12  C   UNL     1      -5.795   1.212 -32.204  1.00  0.00     0.256 C 
HETATM   13  N   UNL     1      -5.438   0.674 -33.423  1.00  0.00    -0.323 N 
HETATM   14  H   UNL     1      -4.953   1.278 -34.070  1.00  0.00     0.169 HD
HETATM   15  O   UNL     1      -6.432   0.673 -31.306  1.00  0.00    -0.267 OA
BRANCH  13  16
HETATM   16  C   UNL     1      -5.636  -0.657 -33.869  1.00  0.00     0.041 A 
HETATM   17  C   UNL     1      -6.839  -0.981 -34.534  1.00  0.00    -0.035 A 
HETATM   18  C   UNL     1      -7.023  -2.283 -35.040  1.00  0.00     0.015 A 
HETATM   19  C   UNL     1      -7.947   0.020 -34.732  1.00  0.00     0.050 C 
HETATM   20  C   UNL     1      -6.045  -3.270 -34.880  1.00  0.00    -0.061 A 
HETATM   21  C   UNL     1      -6.228  -4.637 -35.466  1.00  0.00     0.048 C 
HETATM   22  C   UNL     1      -4.865  -2.942 -34.216  1.00  0.00     0.009 A 
HETATM   23  C   UNL     1      -4.666  -1.652 -33.711  1.00  0.00     0.030 A 
ENDBRANCH  13  16
ENDBRANCH   1  12
BRANCH   2  24
HETATM   24  C   UNL     1      -7.568   3.676 -31.734  1.00  0.00     0.005 A 
HETATM   25  C   UNL     1      -8.720   3.486 -32.520  1.00  0.00     0.076 A 
HETATM   26  C   UNL     1      -9.976   3.404 -31.909  1.00  0.00     0.037 A 
HETATM   27  C   UNL     1     -10.098   3.530 -30.523  1.00  0.00     0.003 A 
HETATM   28  C   UNL     1      -8.966   3.728 -29.738  1.00  0.00     0.001 A 
HETATM   29  C   UNL     1      -7.709   3.798 -30.337  1.00  0.00     0.012 A 
BRANCH  25  30
HETATM   30  O   UNL     1      -8.524   3.346 -33.870  1.00  0.00    -0.355 OA
HETATM   31  C   UNL     1      -9.686   3.491 -34.684  1.00  0.00     0.210 C 
ENDBRANCH  25  30
ENDBRANCH   2  24
TORSDOF 4
ENDMDL
MODEL 5
REMARK VINA RESULT:      -8.5      1.447      2.024
REMARK  4 active torsions:
REMARK  status: ('A' for Active; 'I' for Inactive)
REMARK    1  A    between atoms: C_6  and  N_7 
REMARK       I    between atoms: N_7  and  C_8 
REMARK    2  A    between atoms: C_8  and  C_9 
REMARK    3  A    between atoms: C_10  and  C_11 
REMARK    4  A    between atoms: C_12  and  O_13 
ROOT
HETATM    1  C   UNL     1      -5.344   3.698 -30.776  1.00  0.00     0.063 A 
HETATM    2  C   UNL     1      -4.295   4.786 -30.964  1.00  0.00     0.205 A 
HETATM    3  N   UNL     1      -4.807   6.102 -30.552  1.00  0.00    -0.084 N 
HETATM    4  C   UNL     1      -6.073   6.317 -30.076  1.00  0.00     0.725 A 
HETATM    5  N   UNL     1      -6.929   5.283 -29.986  1.00  0.00    -0.192 N 
HETATM    6  N   UNL     1      -4.057   7.224 -30.466  1.00  0.00    -0.149 NA
HETATM    7  C   UNL     1      -4.967   8.093 -30.011  1.00  0.00     0.275 A 
HETATM    8  N   UNL     1      -6.210   7.577 -29.753  1.00  0.00    -0.054 NA
HETATM    9  C   UNL     1      -6.588   3.975 -30.314  1.00  0.00     0.037 A 
HETATM   10  C   UNL     1      -7.668   2.944 -30.095  1.00  0.00     0.070 C 
HETATM   11  H   UNL     1      -7.866   5.451 -29.629  1.00  0.00     0.184 HD
ENDROOT
BRANCH   1  12
HETATM   12  C   UNL     1      -4.992   2.313 -31.189  1.00  0.00     0.256 C 
HETATM   13  N   UNL     1      -5.916   1.752 -32.046  1.00  0.00    -0.323 N 
HETATM   14  H   UNL     1      -6.753   2.283 -32.236  1.00  0.00     0.169 HD
HETATM   15  O   UNL     1      -3.947   1.817 -30.786  1.00  0.00    -0.267 OA
BRANCH  13  16
HETATM   16  C   UNL     1      -5.813   0.518 -32.735  1.00  0.00     0.041 A 
HETATM   17  C   UNL     1      -6.997  -0.144 -33.129  1.00  0.00    -0.035 A 
HETATM   18  C   UNL     1      -6.910  -1.338 -33.872  1.00  0.00     0.015 A 
HETATM   19  C   UNL     1      -8.367   0.382 -32.790  1.00  0.00     0.050 C 
HETATM   20  C   UNL     1      -5.673  -1.895 -34.211  1.00  0.00    -0.061 A 
HETATM   21  C   UNL     1      -5.591  -3.138 -35.044  1.00  0.00     0.048 C 
HETATM   22  C   UNL     1      -4.511  -1.239 -33.810  1.00  0.00     0.009 A 
HETATM   23  C   UNL     1      -4.581  -0.050 -33.076  1.00  0.00     0.030 A 
ENDBRANCH  13  16
ENDBRANCH   1  12
BRANCH   2  24
HETATM   24  C   UNL     1      -3.745   4.854 -32.383  1.00  0.00     0.005 A 
HETATM   25  C   UNL     1      -2.378   4.630 -32.635  1.00  0.00     0.076 A 
HETATM   26  C   UNL     1      -1.894   4.684 -33.946  1.00  0.00     0.037 A 
HETATM   27  C   UNL     1      -2.753   4.981 -35.006  1.00  0.00     0.003 A 
HETATM   28  C   UNL     1      -4.102   5.216 -34.766  1.00  0.00     0.001 A 
HETATM   29  C   UNL     1      -4.598   5.150 -33.464  1.00  0.00     0.012 A 
BRANCH  25  30
HETATM   30  O   UNL     1      -1.598   4.318 -31.551  1.00  0.00    -0.355 OA
HETATM   31  C   UNL     1      -0.569   5.254 -31.239  1.00  0.00     0.210 C 
ENDBRANCH  25  30
ENDBRANCH   2  24
TORSDOF 4
ENDMDL
MODEL 6
REMARK VINA RESULT:      -8.4     16.560     18.402
REMARK  4 active torsions:
REMARK  status: ('A' for Active; 'I' for Inactive)
REMARK    1  A    between atoms: C_6  and  N_7 
REMARK       I    between atoms: N_7  and  C_8 
REMARK    2  A    between atoms: C_8  and  C_9 
REMARK    3  A    between atoms: C_10  and  C_11 
REMARK    4  A    between atoms: C_12  and  O_13 
ROOT
HETATM    1  C   UNL     1      -4.973 -13.210 -37.470  1.00  0.00     0.063 A 
HETATM    2  C   UNL     1      -6.378 -13.232 -36.882  1.00  0.00     0.205 A 
HETATM    3  N   UNL     1      -6.346 -13.418 -35.424  1.00  0.00    -0.084 N 
HETATM    4  C   UNL     1      -5.196 -13.567 -34.695  1.00  0.00     0.725 A 
HETATM    5  N   UNL     1      -4.009 -13.566 -35.328  1.00  0.00    -0.192 N 
HETATM    6  N   UNL     1      -7.426 -13.331 -34.616  1.00  0.00    -0.149 NA
HETATM    7  C   UNL     1      -6.856 -13.524 -33.421  1.00  0.00     0.275 A 
HETATM    8  N   UNL     1      -5.493 -13.666 -33.425  1.00  0.00    -0.054 NA
HETATM    9  C   UNL     1      -3.871 -13.378 -36.698  1.00  0.00     0.037 A 
HETATM   10  C   UNL     1      -2.453 -13.355 -37.216  1.00  0.00     0.070 C 
HETATM   11  H   UNL     1      -3.160 -13.675 -34.779  1.00  0.00     0.184 HD
ENDROOT
BRANCH   1  12
HETATM   12  C   UNL     1      -4.838 -13.072 -38.945  1.00  0.00     0.256 C 
HETATM   13  N   UNL     1      -4.465 -14.245 -39.568  1.00  0.00    -0.323 N 
HETATM   14  H   UNL     1      -4.247 -15.033 -38.976  1.00  0.00     0.169 HD
HETATM   15  O   UNL     1      -5.087 -11.993 -39.469  1.00  0.00    -0.267 OA
BRANCH  13  16
HETATM   16  C   UNL     1      -4.391 -14.495 -40.961  1.00  0.00     0.041 A 
HETATM   17  C   UNL     1      -3.126 -14.715 -41.548  1.00  0.00    -0.035 A 
HETATM   18  C   UNL     1      -3.042 -15.029 -42.918  1.00  0.00     0.015 A 
HETATM   19  C   UNL     1      -1.845 -14.633 -40.759  1.00  0.00     0.050 C 
HETATM   20  C   UNL     1      -4.186 -15.106 -43.718  1.00  0.00    -0.061 A 
HETATM   21  C   UNL     1      -4.091 -15.490 -45.164  1.00  0.00     0.048 C 
HETATM   22  C   UNL     1      -5.430 -14.879 -43.131  1.00  0.00     0.009 A 
HETATM   23  C   UNL     1      -5.529 -14.571 -41.770  1.00  0.00     0.030 A 
ENDBRANCH  13  16
ENDBRANCH   1  12
BRANCH   2  24
HETATM   24  C   UNL     1      -7.284 -14.273 -37.527  1.00  0.00     0.005 A 
HETATM   25  C   UNL     1      -8.301 -13.885 -38.420  1.00  0.00     0.076 A 
HETATM   26  C   UNL     1      -9.116 -14.856 -39.012  1.00  0.00     0.037 A 
HETATM   27  C   UNL     1      -8.941 -16.208 -38.708  1.00  0.00     0.003 A 
HETATM   28  C   UNL     1      -7.946 -16.600 -37.819  1.00  0.00     0.001 A 
HETATM   29  C   UNL     1      -7.120 -15.641 -37.233  1.00  0.00     0.012 A 
BRANCH  25  30
HETATM   30  O   UNL     1      -8.399 -12.545 -38.693  1.00  0.00    -0.355 OA
HETATM   31  C   UNL     1      -9.303 -12.188 -39.736  1.00  0.00     0.210 C 
ENDBRANCH  25  30
ENDBRANCH   2  24
TORSDOF 4
ENDMDL
MODEL 7
REMARK VINA RESULT:      -8.4      1.448      1.895
REMARK  4 active torsions:
REMARK  status: ('A' for Active; 'I' for Inactive)
REMARK    1  A    between atoms: C_6  and  N_7 
REMARK       I    between atoms: N_7  and  C_8 
REMARK    2  A    between atoms: C_8  and  C_9 
REMARK    3  A    between atoms: C_10  and  C_11 
REMARK    4  A    between atoms: C_12  and  O_13 
ROOT
HETATM    1  C   UNL     1      -7.699   2.090 -32.619  1.00  0.00     0.063 A 
HETATM    2  C   UNL     1      -6.750   2.902 -31.748  1.00  0.00     0.205 A 
HETATM    3  N   UNL     1      -7.479   3.874 -30.920  1.00  0.00    -0.084 N 
HETATM    4  C   UNL     1      -8.839   4.034 -30.945  1.00  0.00     0.725 A 
HETATM    5  N   UNL     1      -9.577   3.283 -31.781  1.00  0.00    -0.192 N 
HETATM    6  N   UNL     1      -6.918   4.625 -29.946  1.00  0.00    -0.149 NA
HETATM    7  C   UNL     1      -7.993   5.276 -29.487  1.00  0.00     0.275 A 
HETATM    8  N   UNL     1      -9.188   4.938 -30.066  1.00  0.00    -0.054 NA
HETATM    9  C   UNL     1      -9.038   2.305 -32.611  1.00  0.00     0.037 A 
HETATM   10  C   UNL     1     -10.034   1.530 -33.439  1.00  0.00     0.070 C 
HETATM   11  H   UNL     1     -10.586   3.407 -31.792  1.00  0.00     0.184 HD
ENDROOT
BRANCH   1  12
HETATM   12  C   UNL     1      -7.110   1.091 -33.548  1.00  0.00     0.256 C 
HETATM   13  N   UNL     1      -6.822  -0.113 -32.939  1.00  0.00    -0.323 N 
HETATM   14  H   UNL     1      -6.956  -0.169 -31.941  1.00  0.00     0.169 HD
HETATM   15  O   UNL     1      -6.965   1.385 -34.729  1.00  0.00    -0.267 OA
BRANCH  13  16
HETATM   16  C   UNL     1      -6.395  -1.313 -33.561  1.00  0.00     0.041 A 
HETATM   17  C   UNL     1      -5.019  -1.634 -33.549  1.00  0.00    -0.035 A 
HETATM   18  C   UNL     1      -4.587  -2.854 -34.106  1.00  0.00     0.015 A 
HETATM   19  C   UNL     1      -3.982  -0.719 -32.955  1.00  0.00     0.050 C 
HETATM   20  C   UNL     1      -5.490  -3.747 -34.691  1.00  0.00    -0.061 A 
HETATM   21  C   UNL     1      -5.027  -5.064 -35.235  1.00  0.00     0.048 C 
HETATM   22  C   UNL     1      -6.844  -3.417 -34.704  1.00  0.00     0.009 A 
HETATM   23  C   UNL     1      -7.289  -2.212 -34.151  1.00  0.00     0.030 A 
ENDBRANCH  13  16
ENDBRANCH   1  12
BRANCH   2  24
HETATM   24  C   UNL     1      -5.655   3.602 -32.543  1.00  0.00     0.005 A 
HETATM   25  C   UNL     1      -4.315   3.561 -32.111  1.00  0.00     0.076 A 
HETATM   26  C   UNL     1      -3.322   4.199 -32.860  1.00  0.00     0.037 A 
HETATM   27  C   UNL     1      -3.651   4.897 -34.025  1.00  0.00     0.003 A 
HETATM   28  C   UNL     1      -4.973   4.952 -34.453  1.00  0.00     0.001 A 
HETATM   29  C   UNL     1      -5.970   4.308 -33.721  1.00  0.00     0.012 A 
BRANCH  25  30
HETATM   30  O   UNL     1      -4.060   2.838 -30.974  1.00  0.00    -0.355 OA
HETATM   31  C   UNL     1      -3.219   1.699 -31.140  1.00  0.00     0.210 C 
ENDBRANCH  25  30
ENDBRANCH   2  24
TORSDOF 4
ENDMDL
MODEL 8
REMARK VINA RESULT:      -8.3      3.068      6.196
REMARK  4 active torsions:
REMARK  status: ('A' for Active; 'I' for Inactive)
REMARK    1  A    between atoms: C_6  and  N_7 
REMARK       I    between atoms: N_7  and  C_8 
REMARK    2  A    between atoms: C_8  and  C_9 
REMARK    3  A    between atoms: C_10  and  C_11 
REMARK    4  A    between atoms: C_12  and  O_13 
ROOT
HETATM    1  C   UNL     1      -5.989  -0.223 -33.815  1.00  0.00     0.063 A 
HETATM    2  C   UNL     1      -4.946   0.605 -33.077  1.00  0.00     0.205 A 
HETATM    3  N   UNL     1      -3.912  -0.248 -32.474  1.00  0.00    -0.084 N 
HETATM    4  C   UNL     1      -3.901  -1.614 -32.557  1.00  0.00     0.725 A 
HETATM    5  N   UNL     1      -4.896  -2.244 -33.208  1.00  0.00    -0.192 N 
HETATM    6  N   UNL     1      -2.784   0.213 -31.887  1.00  0.00    -0.149 NA
HETATM    7  C   UNL     1      -2.186  -0.940 -31.565  1.00  0.00     0.275 A 
HETATM    8  N   UNL     1      -2.833  -2.080 -31.963  1.00  0.00    -0.054 NA
HETATM    9  C   UNL     1      -5.934  -1.578 -33.850  1.00  0.00     0.037 A 
HETATM   10  C   UNL     1      -6.926  -2.457 -34.572  1.00  0.00     0.070 C 
HETATM   11  H   UNL     1      -4.880  -3.259 -33.266  1.00  0.00     0.184 HD
ENDROOT
BRANCH   1  12
HETATM   12  C   UNL     1      -7.129   0.493 -34.446  1.00  0.00     0.256 C 
HETATM   13  N   UNL     1      -8.179   0.712 -33.578  1.00  0.00    -0.323 N 
HETATM   14  H   UNL     1      -8.109   0.306 -32.657  1.00  0.00     0.169 HD
HETATM   15  O   UNL     1      -7.040   0.846 -35.616  1.00  0.00    -0.267 OA
BRANCH  13  16
HETATM   16  C   UNL     1      -9.343   1.486 -33.812  1.00  0.00     0.041 A 
HETATM   17  C   UNL     1     -10.603   0.939 -33.482  1.00  0.00    -0.035 A 
HETATM   18  C   UNL     1     -11.763   1.720 -33.648  1.00  0.00     0.015 A 
HETATM   19  C   UNL     1     -10.760  -0.460 -32.947  1.00  0.00     0.050 C 
HETATM   20  C   UNL     1     -11.698   3.021 -34.154  1.00  0.00    -0.061 A 
HETATM   21  C   UNL     1     -12.932   3.862 -34.280  1.00  0.00     0.048 C 
HETATM   22  C   UNL     1     -10.451   3.549 -34.485  1.00  0.00     0.009 A 
HETATM   23  C   UNL     1      -9.289   2.787 -34.321  1.00  0.00     0.030 A 
ENDBRANCH  13  16
ENDBRANCH   1  12
BRANCH   2  24
HETATM   24  C   UNL     1      -5.547   1.530 -32.026  1.00  0.00     0.005 A 
HETATM   25  C   UNL     1      -5.574   2.923 -32.226  1.00  0.00     0.076 A 
HETATM   26  C   UNL     1      -6.140   3.756 -31.256  1.00  0.00     0.037 A 
HETATM   27  C   UNL     1      -6.661   3.217 -30.077  1.00  0.00     0.003 A 
HETATM   28  C   UNL     1      -6.628   1.843 -29.865  1.00  0.00     0.001 A 
HETATM   29  C   UNL     1      -6.078   1.003 -30.832  1.00  0.00     0.012 A 
BRANCH  25  30
HETATM   30  O   UNL     1      -5.069   3.382 -33.417  1.00  0.00    -0.355 OA
HETATM   31  C   UNL     1      -5.868   4.345 -34.099  1.00  0.00     0.210 C 
ENDBRANCH  25  30
ENDBRANCH   2  24
TORSDOF 4
ENDMDL
MODEL 9
REMARK VINA RESULT:      -8.3      2.209      3.219
REMARK  4 active torsions:
REMARK  status: ('A' for Active; 'I' for Inactive)
REMARK    1  A    between atoms: C_6  and  N_7 
REMARK       I    between atoms: N_7  and  C_8 
REMARK    2  A    between atoms: C_8  and  C_9 
REMARK    3  A    between atoms: C_10  and  C_11 
REMARK    4  A    between atoms: C_12  and  O_13 
ROOT
HETATM    1  C   UNL     1      -8.884   1.998 -32.274  1.00  0.00     0.063 A 
HETATM    2  C   UNL     1      -8.308   3.292 -31.715  1.00  0.00     0.205 A 
HETATM    3  N   UNL     1      -9.241   4.415 -31.892  1.00  0.00    -0.084 N 
HETATM    4  C   UNL     1     -10.464   4.307 -32.498  1.00  0.00     0.725 A 
HETATM    5  N   UNL     1     -10.856   3.117 -32.987  1.00  0.00    -0.192 N 
HETATM    6  N   UNL     1      -9.066   5.647 -31.365  1.00  0.00    -0.149 NA
HETATM    7  C   UNL     1     -10.189   6.250 -31.771  1.00  0.00     0.275 A 
HETATM    8  N   UNL     1     -11.075   5.464 -32.460  1.00  0.00    -0.054 NA
HETATM    9  C   UNL     1     -10.098   1.956 -32.878  1.00  0.00     0.037 A 
HETATM   10  C   UNL     1     -10.731   0.707 -33.442  1.00  0.00     0.070 C 
HETATM   11  H   UNL     1     -11.767   3.045 -33.433  1.00  0.00     0.184 HD
ENDROOT
BRANCH   1  12
HETATM   12  C   UNL     1      -8.041   0.775 -32.209  1.00  0.00     0.256 C 
HETATM   13  N   UNL     1      -7.671   0.305 -33.452  1.00  0.00    -0.323 N 
HETATM   14  H   UNL     1      -8.063   0.770 -34.258  1.00  0.00     0.169 HD
HETATM   15  O   UNL     1      -7.727   0.322 -31.115  1.00  0.00    -0.267 OA
BRANCH  13  16
HETATM   16  C   UNL     1      -6.759  -0.741 -33.742  1.00  0.00     0.041 A 
HETATM   17  C   UNL     1      -5.395  -0.565 -33.419  1.00  0.00    -0.035 A 
HETATM   18  C   UNL     1      -4.488  -1.620 -33.641  1.00  0.00     0.015 A 
HETATM   19  C   UNL     1      -4.862   0.717 -32.837  1.00  0.00     0.050 C 
HETATM   20  C   UNL     1      -4.906  -2.834 -34.194  1.00  0.00    -0.061 A 
HETATM   21  C   UNL     1      -3.944  -3.968 -34.379  1.00  0.00     0.048 C 
HETATM   22  C   UNL     1      -6.253  -2.995 -34.516  1.00  0.00     0.009 A 
HETATM   23  C   UNL     1      -7.166  -1.958 -34.297  1.00  0.00     0.030 A 
ENDBRANCH  13  16
ENDBRANCH   1  12
BRANCH   2  24
HETATM   24  C   UNL     1      -6.944   3.643 -32.293  1.00  0.00     0.005 A 
HETATM   25  C   UNL     1      -5.829   3.817 -31.451  1.00  0.00     0.076 A 
HETATM   26  C   UNL     1      -4.581   4.127 -32.001  1.00  0.00     0.037 A 
HETATM   27  C   UNL     1      -4.436   4.286 -33.381  1.00  0.00     0.003 A 
HETATM   28  C   UNL     1      -5.533   4.127 -34.220  1.00  0.00     0.001 A 
HETATM   29  C   UNL     1      -6.779   3.805 -33.683  1.00  0.00     0.012 A 
BRANCH  25  30
HETATM   30  O   UNL     1      -6.039   3.620 -30.109  1.00  0.00    -0.355 OA
HETATM   31  C   UNL     1      -5.889   4.772 -29.283  1.00  0.00     0.210 C 
ENDBRANCH  25  30
ENDBRANCH   2  24
TORSDOF 4
ENDMDL
MODEL 10
REMARK VINA RESULT:      -8.1     16.422     18.540
REMARK  4 active torsions:
REMARK  status: ('A' for Active; 'I' for Inactive)
REMARK    1  A    between atoms: C_6  and  N_7 
REMARK       I    between atoms: N_7  and  C_8 
REMARK    2  A    between atoms: C_8  and  C_9 
REMARK    3  A    between atoms: C_10  and  C_11 
REMARK    4  A    between atoms: C_12  and  O_13 
ROOT
HETATM    1  C   UNL     1      -2.448 -13.897 -37.431  1.00  0.00     0.063 A 
HETATM    2  C   UNL     1      -2.569 -14.514 -36.044  1.00  0.00     0.205 A 
HETATM    3  N   UNL     1      -1.414 -15.369 -35.733  1.00  0.00    -0.084 N 
HETATM    4  C   UNL     1      -0.372 -15.591 -36.593  1.00  0.00     0.725 A 
HETATM    5  N   UNL     1      -0.387 -15.019 -37.811  1.00  0.00    -0.192 N 
HETATM    6  N   UNL     1      -1.175 -15.926 -34.525  1.00  0.00    -0.149 NA
HETATM    7  C   UNL     1      -0.011 -16.540 -34.763  1.00  0.00     0.275 A 
HETATM    8  N   UNL     1       0.519 -16.354 -36.013  1.00  0.00    -0.054 NA
HETATM    9  C   UNL     1      -1.397 -14.167 -38.244  1.00  0.00     0.037 A 
HETATM   10  C   UNL     1      -1.210 -13.581 -39.623  1.00  0.00     0.070 C 
HETATM   11  H   UNL     1       0.392 -15.187 -38.442  1.00  0.00     0.184 HD
ENDROOT
BRANCH   1  12
HETATM   12  C   UNL     1      -3.562 -13.037 -37.911  1.00  0.00     0.256 C 
HETATM   13  N   UNL     1      -4.587 -13.753 -38.494  1.00  0.00    -0.323 N 
HETATM   14  H   UNL     1      -4.449 -14.746 -38.610  1.00  0.00     0.169 HD
HETATM   15  O   UNL     1      -3.503 -11.827 -37.731  1.00  0.00    -0.267 OA
BRANCH  13  16
HETATM   16  C   UNL     1      -5.847 -13.263 -38.918  1.00  0.00     0.041 A 
HETATM   17  C   UNL     1      -6.067 -13.051 -40.297  1.00  0.00    -0.035 A 
HETATM   18  C   UNL     1      -7.335 -12.626 -40.741  1.00  0.00     0.015 A 
HETATM   19  C   UNL     1      -4.991 -13.268 -41.329  1.00  0.00     0.050 C 
HETATM   20  C   UNL     1      -8.378 -12.388 -39.840  1.00  0.00    -0.061 A 
HETATM   21  C   UNL     1      -9.737 -11.985 -40.326  1.00  0.00     0.048 C 
HETATM   22  C   UNL     1      -8.148 -12.593 -38.481  1.00  0.00     0.009 A 
HETATM   23  C   UNL     1      -6.896 -13.019 -38.026  1.00  0.00     0.030 A 
ENDBRANCH  13  16
ENDBRANCH   1  12
BRANCH   2  24
HETATM   24  C   UNL     1      -3.867 -15.285 -35.840  1.00  0.00     0.005 A 
HETATM   25  C   UNL     1      -4.904 -14.751 -35.052  1.00  0.00     0.076 A 
HETATM   26  C   UNL     1      -6.093 -15.468 -34.885  1.00  0.00     0.037 A 
HETATM   27  C   UNL     1      -6.252 -16.723 -35.479  1.00  0.00     0.003 A 
HETATM   28  C   UNL     1      -5.229 -17.264 -36.251  1.00  0.00     0.001 A 
HETATM   29  C   UNL     1      -4.045 -16.551 -36.433  1.00  0.00     0.012 A 
BRANCH  25  30
HETATM   30  O   UNL     1      -4.690 -13.505 -34.520  1.00  0.00    -0.355 OA
HETATM   31  C   UNL     1      -5.825 -12.882 -33.924  1.00  0.00     0.210 C 
ENDBRANCH  25  30
ENDBRANCH   2  24
TORSDOF 4
ENDMDL
