MODEL 1
REMARK VINA RESULT:      -9.3      0.000      0.000
REMARK  7 active torsions:
REMARK  status: ('A' for Active; 'I' for Inactive)
REMARK    1  A    between atoms: C_4  and  N_5 
REMARK       I    between atoms: N_5  and  C_6 
REMARK    2  A    between atoms: C_6  and  C_7 
REMARK    3  A    between atoms: C_7  and  N_8 
REMARK    4  A    between atoms: N_8  and  C_9 
REMARK    5  A    between atoms: C_10  and  C_11 
REMARK    6  A    between atoms: C_16  and  N_17 
REMARK       I    between atoms: N_17  and  C_18 
REMARK    7  A    between atoms: C_18  and  C_19 
ROOT
HETATM    1  C   UNL     1      -7.027   2.497 -31.631  1.00  0.00     0.024 A 
HETATM    2  C   UNL     1      -5.994   1.841 -30.926  1.00  0.00     0.071 A 
HETATM    3  C   UNL     1      -4.725   2.451 -30.776  1.00  0.00     0.047 A 
HETATM    4  C   UNL     1      -4.453   3.700 -31.325  1.00  0.00     0.035 A 
HETATM    5  C   UNL     1      -5.459   4.336 -32.044  1.00  0.00     0.031 A 
HETATM    6  C   UNL     1      -6.714   3.736 -32.210  1.00  0.00     0.026 A 
ENDROOT
BRANCH   1   7
HETATM    7  N   UNL     1      -8.237   1.845 -31.884  1.00  0.00    -0.284 NA
HETATM    8  H   UNL     1      -9.005   2.203 -31.305  1.00  0.00     0.128 HD
BRANCH   7   9
HETATM    9  C   UNL     1      -8.740   1.603 -33.258  1.00  0.00     0.195 C 
BRANCH   9  10
HETATM   10  C   UNL     1      -7.709   0.799 -34.070  1.00  0.00     0.235 C 
HETATM   11  N   UNL     1      -7.470  -0.440 -33.504  1.00  0.00    -0.326 N 
HETATM   12  H   UNL     1      -8.050  -0.630 -32.689  1.00  0.00     0.169 HD
HETATM   13  O   UNL     1      -7.165   1.280 -35.060  1.00  0.00    -0.272 OA
BRANCH  11  14
HETATM   14  C   UNL     1      -6.565  -1.436 -33.905  1.00  0.00     0.035 A 
HETATM   15  C   UNL     1      -6.945  -2.626 -34.529  1.00  0.00     0.036 A 
HETATM   16  C   UNL     1      -5.980  -3.570 -34.920  1.00  0.00    -0.060 A 
HETATM   17  C   UNL     1      -6.400  -4.859 -35.563  1.00  0.00     0.048 C 
HETATM   18  C   UNL     1      -4.630  -3.322 -34.652  1.00  0.00     0.007 A 
HETATM   19  C   UNL     1      -4.244  -2.138 -34.028  1.00  0.00     0.003 A 
HETATM   20  C   UNL     1      -5.208  -1.198 -33.660  1.00  0.00     0.029 A 
ENDBRANCH  11  14
ENDBRANCH   9  10
ENDBRANCH   7   9
ENDBRANCH   1   7
BRANCH   2  21
HETATM   21  C   UNL     1      -6.169   0.456 -30.347  1.00  0.00     0.419 C 
HETATM   22  F   UNL     1      -5.314  -0.465 -30.886  1.00  0.00    -0.166 F 
HETATM   23  F   UNL     1      -5.947   0.420 -29.003  1.00  0.00    -0.166 F 
HETATM   24  F   UNL     1      -7.416  -0.060 -30.536  1.00  0.00    -0.166 F 
ENDBRANCH   2  21
BRANCH   4  25
HETATM   25  N   UNL     1      -3.220   4.364 -31.215  1.00  0.00    -0.321 N 
HETATM   26  C   UNL     1      -2.214   4.477 -32.159  1.00  0.00     0.279 C 
HETATM   27  O   UNL     1      -2.249   4.013 -33.294  1.00  0.00    -0.265 OA
HETATM   28  H   UNL     1      -3.021   4.831 -30.336  1.00  0.00     0.169 HD
BRANCH  26  29
HETATM   29  C   UNL     1      -1.070   5.225 -31.665  1.00  0.00     0.142 A 
HETATM   30  O   UNL     1      -0.110   4.580 -30.925  1.00  0.00    -0.317 OA
HETATM   31  C   UNL     1       0.835   5.502 -30.605  1.00  0.00     0.143 A 
HETATM   32  C   UNL     1       0.503   6.733 -31.122  1.00  0.00     0.027 A 
HETATM   33  C   UNL     1      -0.725   6.556 -31.804  1.00  0.00     0.045 A 
ENDBRANCH  26  29
ENDBRANCH   4  25
TORSDOF 7
ENDMDL
MODEL 2
REMARK VINA RESULT:      -9.1      1.922      2.607
REMARK  7 active torsions:
REMARK  status: ('A' for Active; 'I' for Inactive)
REMARK    1  A    between atoms: C_4  and  N_5 
REMARK       I    between atoms: N_5  and  C_6 
REMARK    2  A    between atoms: C_6  and  C_7 
REMARK    3  A    between atoms: C_7  and  N_8 
REMARK    4  A    between atoms: N_8  and  C_9 
REMARK    5  A    between atoms: C_10  and  C_11 
REMARK    6  A    between atoms: C_16  and  N_17 
REMARK       I    between atoms: N_17  and  C_18 
REMARK    7  A    between atoms: C_18  and  C_19 
ROOT
HETATM    1  C   UNL     1      -4.899   2.589 -32.879  1.00  0.00     0.024 A 
HETATM    2  C   UNL     1      -3.903   2.089 -32.011  1.00  0.00     0.071 A 
HETATM    3  C   UNL     1      -3.089   2.976 -31.264  1.00  0.00     0.047 A 
HETATM    4  C   UNL     1      -3.235   4.356 -31.369  1.00  0.00     0.035 A 
HETATM    5  C   UNL     1      -4.196   4.851 -32.245  1.00  0.00     0.031 A 
HETATM    6  C   UNL     1      -4.997   3.983 -32.999  1.00  0.00     0.026 A 
ENDROOT
BRANCH   1   7
HETATM    7  N   UNL     1      -5.617   1.721 -33.706  1.00  0.00    -0.284 NA
HETATM    8  H   UNL     1      -5.088   0.873 -33.938  1.00  0.00     0.128 HD
BRANCH   7   9
HETATM    9  C   UNL     1      -7.029   1.354 -33.443  1.00  0.00     0.195 C 
BRANCH   9  10
HETATM   10  C   UNL     1      -7.196  -0.176 -33.468  1.00  0.00     0.235 C 
HETATM   11  N   UNL     1      -6.088  -0.799 -34.014  1.00  0.00    -0.326 N 
HETATM   12  H   UNL     1      -5.337  -0.152 -34.251  1.00  0.00     0.169 HD
HETATM   13  O   UNL     1      -8.232  -0.709 -33.083  1.00  0.00    -0.272 OA
BRANCH  11  14
HETATM   14  C   UNL     1      -5.874  -2.164 -34.263  1.00  0.00     0.035 A 
HETATM   15  C   UNL     1      -4.695  -2.838 -33.939  1.00  0.00     0.036 A 
HETATM   16  C   UNL     1      -4.560  -4.212 -34.203  1.00  0.00    -0.060 A 
HETATM   17  C   UNL     1      -3.278  -4.921 -33.878  1.00  0.00     0.048 C 
HETATM   18  C   UNL     1      -5.609  -4.898 -34.823  1.00  0.00     0.007 A 
HETATM   19  C   UNL     1      -6.787  -4.231 -35.151  1.00  0.00     0.003 A 
HETATM   20  C   UNL     1      -6.919  -2.871 -34.868  1.00  0.00     0.029 A 
ENDBRANCH  11  14
ENDBRANCH   9  10
ENDBRANCH   7   9
ENDBRANCH   1   7
BRANCH   2  21
HETATM   21  C   UNL     1      -3.622   0.611 -31.873  1.00  0.00     0.419 C 
HETATM   22  F   UNL     1      -2.617   0.333 -30.988  1.00  0.00    -0.166 F 
HETATM   23  F   UNL     1      -4.705  -0.086 -31.429  1.00  0.00    -0.166 F 
HETATM   24  F   UNL     1      -3.245   0.017 -33.040  1.00  0.00    -0.166 F 
ENDBRANCH   2  21
BRANCH   4  25
HETATM   25  N   UNL     1      -2.465   5.292 -30.659  1.00  0.00    -0.321 N 
HETATM   26  C   UNL     1      -1.101   5.516 -30.727  1.00  0.00     0.279 C 
HETATM   27  O   UNL     1      -0.320   4.922 -31.462  1.00  0.00    -0.265 OA
HETATM   28  H   UNL     1      -2.955   5.896 -30.007  1.00  0.00     0.169 HD
BRANCH  26  29
HETATM   29  C   UNL     1      -0.663   6.559 -29.816  1.00  0.00     0.142 A 
HETATM   30  O   UNL     1      -1.584   7.179 -29.007  1.00  0.00    -0.317 OA
HETATM   31  C   UNL     1      -0.910   8.094 -28.262  1.00  0.00     0.143 A 
HETATM   32  C   UNL     1       0.429   8.080 -28.576  1.00  0.00     0.027 A 
HETATM   33  C   UNL     1       0.589   7.094 -29.578  1.00  0.00     0.045 A 
ENDBRANCH  26  29
ENDBRANCH   4  25
TORSDOF 7
ENDMDL
MODEL 3
REMARK VINA RESULT:      -9.0      3.031      8.908
REMARK  7 active torsions:
REMARK  status: ('A' for Active; 'I' for Inactive)
REMARK    1  A    between atoms: C_4  and  N_5 
REMARK       I    between atoms: N_5  and  C_6 
REMARK    2  A    between atoms: C_6  and  C_7 
REMARK    3  A    between atoms: C_7  and  N_8 
REMARK    4  A    between atoms: N_8  and  C_9 
REMARK    5  A    between atoms: C_10  and  C_11 
REMARK    6  A    between atoms: C_16  and  N_17 
REMARK       I    between atoms: N_17  and  C_18 
REMARK    7  A    between atoms: C_18  and  C_19 
ROOT
HETATM    1  C   UNL     1      -6.450   0.990 -31.878  1.00  0.00     0.024 A 
HETATM    2  C   UNL     1      -6.962  -0.024 -32.718  1.00  0.00     0.071 A 
HETATM    3  C   UNL     1      -8.342  -0.067 -33.033  1.00  0.00     0.047 A 
HETATM    4  C   UNL     1      -9.232   0.872 -32.520  1.00  0.00     0.035 A 
HETATM    5  C   UNL     1      -8.734   1.854 -31.670  1.00  0.00     0.031 A 
HETATM    6  C   UNL     1      -7.373   1.898 -31.341  1.00  0.00     0.026 A 
ENDROOT
BRANCH   1   7
HETATM    7  N   UNL     1      -5.114   0.961 -31.468  1.00  0.00    -0.284 NA
HETATM    8  H   UNL     1      -4.848   0.058 -31.059  1.00  0.00     0.128 HD
BRANCH   7   9
HETATM    9  C   UNL     1      -4.006   1.447 -32.326  1.00  0.00     0.195 C 
BRANCH   9  10
HETATM   10  C   UNL     1      -3.675   2.912 -31.989  1.00  0.00     0.235 C 
HETATM   11  N   UNL     1      -2.761   3.444 -32.881  1.00  0.00    -0.326 N 
HETATM   12  H   UNL     1      -2.507   2.803 -33.631  1.00  0.00     0.169 HD
HETATM   13  O   UNL     1      -4.160   3.464 -31.006  1.00  0.00    -0.272 OA
BRANCH  11  14
HETATM   14  C   UNL     1      -2.166   4.716 -32.884  1.00  0.00     0.035 A 
HETATM   15  C   UNL     1      -1.145   5.100 -32.013  1.00  0.00     0.036 A 
HETATM   16  C   UNL     1      -0.585   6.386 -32.088  1.00  0.00    -0.060 A 
HETATM   17  C   UNL     1       0.491   6.800 -31.128  1.00  0.00     0.048 C 
HETATM   18  C   UNL     1      -1.080   7.297 -33.028  1.00  0.00     0.007 A 
HETATM   19  C   UNL     1      -2.100   6.921 -33.899  1.00  0.00     0.003 A 
HETATM   20  C   UNL     1      -2.638   5.635 -33.829  1.00  0.00     0.029 A 
ENDBRANCH  11  14
ENDBRANCH   9  10
ENDBRANCH   7   9
ENDBRANCH   1   7
BRANCH   2  21
HETATM   21  C   UNL     1      -6.091  -1.125 -33.274  1.00  0.00     0.419 C 
HETATM   22  F   UNL     1      -6.806  -2.185 -33.761  1.00  0.00    -0.166 F 
HETATM   23  F   UNL     1      -5.313  -0.703 -34.310  1.00  0.00    -0.166 F 
HETATM   24  F   UNL     1      -5.237  -1.661 -32.357  1.00  0.00    -0.166 F 
ENDBRANCH   2  21
BRANCH   4  25
HETATM   25  N   UNL     1     -10.610   0.891 -32.792  1.00  0.00    -0.321 N 
HETATM   26  C   UNL     1     -11.292   1.634 -33.740  1.00  0.00     0.279 C 
HETATM   27  O   UNL     1     -10.779   2.411 -34.538  1.00  0.00    -0.265 OA
HETATM   28  H   UNL     1     -11.201   0.284 -32.233  1.00  0.00     0.169 HD
BRANCH  26  29
HETATM   29  C   UNL     1     -12.725   1.399 -33.703  1.00  0.00     0.142 A 
HETATM   30  O   UNL     1     -13.517   2.179 -32.897  1.00  0.00    -0.317 OA
HETATM   31  C   UNL     1     -14.797   1.754 -33.062  1.00  0.00     0.143 A 
HETATM   32  C   UNL     1     -14.849   0.712 -33.958  1.00  0.00     0.027 A 
HETATM   33  C   UNL     1     -13.515   0.481 -34.371  1.00  0.00     0.045 A 
ENDBRANCH  26  29
ENDBRANCH   4  25
TORSDOF 7
ENDMDL
MODEL 4
REMARK VINA RESULT:      -9.0      1.672      1.982
REMARK  7 active torsions:
REMARK  status: ('A' for Active; 'I' for Inactive)
REMARK    1  A    between atoms: C_4  and  N_5 
REMARK       I    between atoms: N_5  and  C_6 
REMARK    2  A    between atoms: C_6  and  C_7 
REMARK    3  A    between atoms: C_7  and  N_8 
REMARK    4  A    between atoms: N_8  and  C_9 
REMARK    5  A    between atoms: C_10  and  C_11 
REMARK    6  A    between atoms: C_16  and  N_17 
REMARK       I    between atoms: N_17  and  C_18 
REMARK    7  A    between atoms: C_18  and  C_19 
ROOT
HETATM    1  C   UNL     1      -7.684   3.547 -32.934  1.00  0.00     0.024 A 
HETATM    2  C   UNL     1      -7.255   3.614 -31.590  1.00  0.00     0.071 A 
HETATM    3  C   UNL     1      -5.948   4.059 -31.273  1.00  0.00     0.047 A 
HETATM    4  C   UNL     1      -5.048   4.428 -32.268  1.00  0.00     0.035 A 
HETATM    5  C   UNL     1      -5.459   4.336 -33.594  1.00  0.00     0.031 A 
HETATM    6  C   UNL     1      -6.744   3.884 -33.919  1.00  0.00     0.026 A 
ENDROOT
BRANCH   1   7
HETATM    7  N   UNL     1      -8.926   2.993 -33.254  1.00  0.00    -0.284 NA
HETATM    8  H   UNL     1      -9.654   3.706 -33.379  1.00  0.00     0.128 HD
BRANCH   7   9
HETATM    9  C   UNL     1      -9.091   1.948 -34.293  1.00  0.00     0.195 C 
BRANCH   9  10
HETATM   10  C   UNL     1      -8.475   0.621 -33.817  1.00  0.00     0.235 C 
HETATM   11  N   UNL     1      -7.302   0.333 -34.492  1.00  0.00    -0.326 N 
HETATM   12  H   UNL     1      -7.020   1.065 -35.142  1.00  0.00     0.169 HD
HETATM   13  O   UNL     1      -9.034  -0.073 -32.973  1.00  0.00    -0.272 OA
BRANCH  11  14
HETATM   14  C   UNL     1      -6.478  -0.799 -34.390  1.00  0.00     0.035 A 
HETATM   15  C   UNL     1      -6.842  -2.069 -34.842  1.00  0.00     0.036 A 
HETATM   16  C   UNL     1      -5.956  -3.153 -34.723  1.00  0.00    -0.060 A 
HETATM   17  C   UNL     1      -6.367  -4.520 -35.185  1.00  0.00     0.048 C 
HETATM   18  C   UNL     1      -4.710  -2.957 -34.119  1.00  0.00     0.007 A 
HETATM   19  C   UNL     1      -4.341  -1.693 -33.664  1.00  0.00     0.003 A 
HETATM   20  C   UNL     1      -5.221  -0.619 -33.803  1.00  0.00     0.029 A 
ENDBRANCH  11  14
ENDBRANCH   9  10
ENDBRANCH   7   9
ENDBRANCH   1   7
BRANCH   2  21
HETATM   21  C   UNL     1      -8.134   3.176 -30.442  1.00  0.00     0.419 C 
HETATM   22  F   UNL     1      -9.266   3.932 -30.310  1.00  0.00    -0.166 F 
HETATM   23  F   UNL     1      -8.566   1.891 -30.575  1.00  0.00    -0.166 F 
HETATM   24  F   UNL     1      -7.517   3.241 -29.228  1.00  0.00    -0.166 F 
ENDBRANCH   2  21
BRANCH   4  25
HETATM   25  N   UNL     1      -3.740   4.879 -32.026  1.00  0.00    -0.321 N 
HETATM   26  C   UNL     1      -2.642   4.152 -31.599  1.00  0.00     0.279 C 
HETATM   27  O   UNL     1      -2.633   2.946 -31.373  1.00  0.00    -0.265 OA
HETATM   28  H   UNL     1      -3.552   5.864 -32.183  1.00  0.00     0.169 HD
BRANCH  26  29
HETATM   29  C   UNL     1      -1.457   4.977 -31.439  1.00  0.00     0.142 A 
HETATM   30  O   UNL     1      -0.348   4.453 -30.823  1.00  0.00    -0.317 OA
HETATM   31  C   UNL     1       0.602   5.424 -30.817  1.00  0.00     0.143 A 
HETATM   32  C   UNL     1       0.128   6.568 -31.414  1.00  0.00     0.027 A 
HETATM   33  C   UNL     1      -1.199   6.282 -31.815  1.00  0.00     0.045 A 
ENDBRANCH  26  29
ENDBRANCH   4  25
TORSDOF 7
ENDMDL
MODEL 5
REMARK VINA RESULT:      -8.7      3.387      7.163
REMARK  7 active torsions:
REMARK  status: ('A' for Active; 'I' for Inactive)
REMARK    1  A    between atoms: C_4  and  N_5 
REMARK       I    between atoms: N_5  and  C_6 
REMARK    2  A    between atoms: C_6  and  C_7 
REMARK    3  A    between atoms: C_7  and  N_8 
REMARK    4  A    between atoms: N_8  and  C_9 
REMARK    5  A    between atoms: C_10  and  C_11 
REMARK    6  A    between atoms: C_16  and  N_17 
REMARK       I    between atoms: N_17  and  C_18 
REMARK    7  A    between atoms: C_18  and  C_19 
ROOT
HETATM    1  C   UNL     1      -5.867   1.590 -32.563  1.00  0.00     0.024 A 
HETATM    2  C   UNL     1      -6.791   1.766 -31.509  1.00  0.00     0.071 A 
HETATM    3  C   UNL     1      -8.170   1.514 -31.712  1.00  0.00     0.047 A 
HETATM    4  C   UNL     1      -8.656   1.100 -32.949  1.00  0.00     0.035 A 
HETATM    5  C   UNL     1      -7.751   0.953 -33.995  1.00  0.00     0.031 A 
HETATM    6  C   UNL     1      -6.388   1.213 -33.809  1.00  0.00     0.026 A 
ENDROOT
BRANCH   1   7
HETATM    7  N   UNL     1      -4.529   1.956 -32.398  1.00  0.00    -0.284 NA
HETATM    8  H   UNL     1      -4.397   2.630 -31.635  1.00  0.00     0.128 HD
BRANCH   7   9
HETATM    9  C   UNL     1      -3.429   0.962 -32.360  1.00  0.00     0.195 C 
BRANCH   9  10
HETATM   10  C   UNL     1      -4.001  -0.462 -32.242  1.00  0.00     0.235 C 
HETATM   11  N   UNL     1      -3.793  -1.191 -33.399  1.00  0.00    -0.326 N 
HETATM   12  H   UNL     1      -3.256  -0.686 -34.103  1.00  0.00     0.169 HD
HETATM   13  O   UNL     1      -4.600  -0.825 -31.234  1.00  0.00    -0.272 OA
BRANCH  11  14
HETATM   14  C   UNL     1      -4.209  -2.495 -33.709  1.00  0.00     0.035 A 
HETATM   15  C   UNL     1      -5.326  -2.789 -34.494  1.00  0.00     0.036 A 
HETATM   16  C   UNL     1      -5.671  -4.121 -34.778  1.00  0.00    -0.060 A 
HETATM   17  C   UNL     1      -6.890  -4.428 -35.598  1.00  0.00     0.048 C 
HETATM   18  C   UNL     1      -4.901  -5.159 -34.243  1.00  0.00     0.007 A 
HETATM   19  C   UNL     1      -3.787  -4.873 -33.458  1.00  0.00     0.003 A 
HETATM   20  C   UNL     1      -3.441  -3.546 -33.196  1.00  0.00     0.029 A 
ENDBRANCH  11  14
ENDBRANCH   9  10
ENDBRANCH   7   9
ENDBRANCH   1   7
BRANCH   2  21
HETATM   21  C   UNL     1      -6.374   2.272 -30.148  1.00  0.00     0.419 C 
HETATM   22  F   UNL     1      -7.420   2.749 -29.406  1.00  0.00    -0.166 F 
HETATM   23  F   UNL     1      -5.796   1.303 -29.385  1.00  0.00    -0.166 F 
HETATM   24  F   UNL     1      -5.476   3.297 -30.199  1.00  0.00    -0.166 F 
ENDBRANCH   2  21
BRANCH   4  25
HETATM   25  N   UNL     1     -10.008   0.831 -33.220  1.00  0.00    -0.321 N 
HETATM   26  C   UNL     1     -11.009   1.718 -33.577  1.00  0.00     0.279 C 
HETATM   27  O   UNL     1     -10.864   2.925 -33.737  1.00  0.00    -0.265 OA
HETATM   28  H   UNL     1     -10.311  -0.136 -33.156  1.00  0.00     0.169 HD
BRANCH  26  29
HETATM   29  C   UNL     1     -12.294   1.063 -33.753  1.00  0.00     0.142 A 
HETATM   30  O   UNL     1     -13.354   1.780 -34.250  1.00  0.00    -0.317 OA
HETATM   31  C   UNL     1     -14.414   0.932 -34.318  1.00  0.00     0.143 A 
HETATM   32  C   UNL     1     -14.060  -0.320 -33.872  1.00  0.00     0.027 A 
HETATM   33  C   UNL     1     -12.695  -0.237 -33.506  1.00  0.00     0.045 A 
ENDBRANCH  26  29
ENDBRANCH   4  25
TORSDOF 7
ENDMDL
MODEL 6
REMARK VINA RESULT:      -8.5      2.577      7.780
REMARK  7 active torsions:
REMARK  status: ('A' for Active; 'I' for Inactive)
REMARK    1  A    between atoms: C_4  and  N_5 
REMARK       I    between atoms: N_5  and  C_6 
REMARK    2  A    between atoms: C_6  and  C_7 
REMARK    3  A    between atoms: C_7  and  N_8 
REMARK    4  A    between atoms: N_8  and  C_9 
REMARK    5  A    between atoms: C_10  and  C_11 
REMARK    6  A    between atoms: C_16  and  N_17 
REMARK       I    between atoms: N_17  and  C_18 
REMARK    7  A    between atoms: C_18  and  C_19 
ROOT
HETATM    1  C   UNL     1      -6.782   2.565 -30.139  1.00  0.00     0.024 A 
HETATM    2  C   UNL     1      -7.811   2.129 -31.003  1.00  0.00     0.071 A 
HETATM    3  C   UNL     1      -7.648   0.957 -31.782  1.00  0.00     0.047 A 
HETATM    4  C   UNL     1      -6.474   0.211 -31.731  1.00  0.00     0.035 A 
HETATM    5  C   UNL     1      -5.448   0.654 -30.903  1.00  0.00     0.031 A 
HETATM    6  C   UNL     1      -5.594   1.820 -30.138  1.00  0.00     0.026 A 
ENDROOT
BRANCH   1   7
HETATM    7  N   UNL     1      -6.893   3.784 -29.466  1.00  0.00    -0.284 NA
HETATM    8  H   UNL     1      -7.512   3.727 -28.650  1.00  0.00     0.128 HD
BRANCH   7   9
HETATM    9  C   UNL     1      -5.714   4.615 -29.120  1.00  0.00     0.195 C 
BRANCH   9  10
HETATM   10  C   UNL     1      -5.162   5.307 -30.379  1.00  0.00     0.235 C 
HETATM   11  N   UNL     1      -3.781   5.252 -30.426  1.00  0.00    -0.326 N 
HETATM   12  H   UNL     1      -3.372   4.721 -29.658  1.00  0.00     0.169 HD
HETATM   13  O   UNL     1      -5.909   5.865 -31.177  1.00  0.00    -0.272 OA
BRANCH  11  14
HETATM   14  C   UNL     1      -2.905   5.809 -31.370  1.00  0.00     0.035 A 
HETATM   15  C   UNL     1      -2.644   5.242 -32.619  1.00  0.00     0.036 A 
HETATM   16  C   UNL     1      -1.768   5.867 -33.522  1.00  0.00    -0.060 A 
HETATM   17  C   UNL     1      -1.471   5.234 -34.850  1.00  0.00     0.048 C 
HETATM   18  C   UNL     1      -1.130   7.055 -33.148  1.00  0.00     0.007 A 
HETATM   19  C   UNL     1      -1.384   7.626 -31.903  1.00  0.00     0.003 A 
HETATM   20  C   UNL     1      -2.270   7.007 -31.020  1.00  0.00     0.029 A 
ENDBRANCH  11  14
ENDBRANCH   9  10
ENDBRANCH   7   9
ENDBRANCH   1   7
BRANCH   2  21
HETATM   21  C   UNL     1      -9.097   2.902 -31.178  1.00  0.00     0.419 C 
HETATM   22  F   UNL     1      -8.903   4.172 -31.646  1.00  0.00    -0.166 F 
HETATM   23  F   UNL     1      -9.945   2.311 -32.064  1.00  0.00    -0.166 F 
HETATM   24  F   UNL     1      -9.805   3.051 -30.022  1.00  0.00    -0.166 F 
ENDBRANCH   2  21
BRANCH   4  25
HETATM   25  N   UNL     1      -6.245  -0.959 -32.473  1.00  0.00    -0.321 N 
HETATM   26  C   UNL     1      -6.158  -1.106 -33.847  1.00  0.00     0.279 C 
HETATM   27  O   UNL     1      -6.252  -0.198 -34.666  1.00  0.00    -0.265 OA
HETATM   28  H   UNL     1      -6.121  -1.822 -31.953  1.00  0.00     0.169 HD
BRANCH  26  29
HETATM   29  C   UNL     1      -5.935  -2.485 -34.245  1.00  0.00     0.142 A 
HETATM   30  O   UNL     1      -4.706  -3.060 -34.030  1.00  0.00    -0.317 OA
HETATM   31  C   UNL     1      -4.777  -4.338 -34.483  1.00  0.00     0.143 A 
HETATM   32  C   UNL     1      -6.028  -4.602 -34.989  1.00  0.00     0.027 A 
HETATM   33  C   UNL     1      -6.775  -3.409 -34.839  1.00  0.00     0.045 A 
ENDBRANCH  26  29
ENDBRANCH   4  25
TORSDOF 7
ENDMDL
MODEL 7
REMARK VINA RESULT:      -8.4      3.507      7.482
REMARK  7 active torsions:
REMARK  status: ('A' for Active; 'I' for Inactive)
REMARK    1  A    between atoms: C_4  and  N_5 
REMARK       I    between atoms: N_5  and  C_6 
REMARK    2  A    between atoms: C_6  and  C_7 
REMARK    3  A    between atoms: C_7  and  N_8 
REMARK    4  A    between atoms: N_8  and  C_9 
REMARK    5  A    between atoms: C_10  and  C_11 
REMARK    6  A    between atoms: C_16  and  N_17 
REMARK       I    between atoms: N_17  and  C_18 
REMARK    7  A    between atoms: C_18  and  C_19 
ROOT
HETATM    1  C   UNL     1      -6.924   2.250 -32.906  1.00  0.00     0.024 A 
HETATM    2  C   UNL     1      -7.693   2.706 -31.813  1.00  0.00     0.071 A 
HETATM    3  C   UNL     1      -9.104   2.587 -31.827  1.00  0.00     0.047 A 
HETATM    4  C   UNL     1      -9.774   2.031 -32.913  1.00  0.00     0.035 A 
HETATM    5  C   UNL     1      -9.020   1.607 -34.003  1.00  0.00     0.031 A 
HETATM    6  C   UNL     1      -7.625   1.733 -34.006  1.00  0.00     0.026 A 
ENDROOT
BRANCH   1   7
HETATM    7  N   UNL     1      -5.547   2.479 -32.947  1.00  0.00    -0.284 NA
HETATM    8  H   UNL     1      -5.309   3.468 -32.812  1.00  0.00     0.128 HD
BRANCH   7   9
HETATM    9  C   UNL     1      -4.576   1.643 -32.198  1.00  0.00     0.195 C 
BRANCH   9  10
HETATM   10  C   UNL     1      -5.023   0.171 -32.207  1.00  0.00     0.235 C 
HETATM   11  N   UNL     1      -4.769  -0.430 -33.427  1.00  0.00    -0.326 N 
HETATM   12  H   UNL     1      -4.286   0.180 -34.085  1.00  0.00     0.169 HD
HETATM   13  O   UNL     1      -5.576  -0.332 -31.234  1.00  0.00    -0.272 OA
BRANCH  11  14
HETATM   14  C   UNL     1      -5.076  -1.732 -33.853  1.00  0.00     0.035 A 
HETATM   15  C   UNL     1      -4.210  -2.818 -33.720  1.00  0.00     0.036 A 
HETATM   16  C   UNL     1      -4.593  -4.099 -34.154  1.00  0.00    -0.060 A 
HETATM   17  C   UNL     1      -3.643  -5.254 -34.034  1.00  0.00     0.048 C 
HETATM   18  C   UNL     1      -5.847  -4.274 -34.749  1.00  0.00     0.007 A 
HETATM   19  C   UNL     1      -6.716  -3.195 -34.886  1.00  0.00     0.003 A 
HETATM   20  C   UNL     1      -6.333  -1.930 -34.436  1.00  0.00     0.029 A 
ENDBRANCH  11  14
ENDBRANCH   9  10
ENDBRANCH   7   9
ENDBRANCH   1   7
BRANCH   2  21
HETATM   21  C   UNL     1      -7.068   3.381 -30.614  1.00  0.00     0.419 C 
HETATM   22  F   UNL     1      -7.989   3.917 -29.756  1.00  0.00    -0.166 F 
HETATM   23  F   UNL     1      -6.323   2.523 -29.862  1.00  0.00    -0.166 F 
HETATM   24  F   UNL     1      -6.239   4.413 -30.940  1.00  0.00    -0.166 F 
ENDBRANCH   2  21
BRANCH   4  25
HETATM   25  N   UNL     1     -11.168   1.880 -32.994  1.00  0.00    -0.321 N 
HETATM   26  C   UNL     1     -12.142   2.864 -33.019  1.00  0.00     0.279 C 
HETATM   27  O   UNL     1     -11.932   4.072 -32.993  1.00  0.00    -0.265 OA
HETATM   28  H   UNL     1     -11.530   0.934 -33.044  1.00  0.00     0.169 HD
BRANCH  26  29
HETATM   29  C   UNL     1     -13.485   2.314 -33.083  1.00  0.00     0.142 A 
HETATM   30  O   UNL     1     -13.801   1.420 -34.076  1.00  0.00    -0.317 OA
HETATM   31  C   UNL     1     -15.101   1.066 -33.897  1.00  0.00     0.143 A 
HETATM   32  C   UNL     1     -15.632   1.716 -32.807  1.00  0.00     0.027 A 
HETATM   33  C   UNL     1     -14.593   2.521 -32.283  1.00  0.00     0.045 A 
ENDBRANCH  26  29
ENDBRANCH   4  25
TORSDOF 7
ENDMDL
MODEL 8
REMARK VINA RESULT:      -8.4      2.160      2.769
REMARK  7 active torsions:
REMARK  status: ('A' for Active; 'I' for Inactive)
REMARK    1  A    between atoms: C_4  and  N_5 
REMARK       I    between atoms: N_5  and  C_6 
REMARK    2  A    between atoms: C_6  and  C_7 
REMARK    3  A    between atoms: C_7  and  N_8 
REMARK    4  A    between atoms: N_8  and  C_9 
REMARK    5  A    between atoms: C_10  and  C_11 
REMARK    6  A    between atoms: C_16  and  N_17 
REMARK       I    between atoms: N_17  and  C_18 
REMARK    7  A    between atoms: C_18  and  C_19 
ROOT
HETATM    1  C   UNL     1      -5.179   2.772 -32.253  1.00  0.00     0.024 A 
HETATM    2  C   UNL     1      -5.672   3.723 -31.332  1.00  0.00     0.071 A 
HETATM    3  C   UNL     1      -4.790   4.629 -30.693  1.00  0.00     0.047 A 
HETATM    4  C   UNL     1      -3.421   4.603 -30.941  1.00  0.00     0.035 A 
HETATM    5  C   UNL     1      -2.930   3.649 -31.827  1.00  0.00     0.031 A 
HETATM    6  C   UNL     1      -3.792   2.739 -32.454  1.00  0.00     0.026 A 
ENDROOT
BRANCH   1   7
HETATM    7  N   UNL     1      -6.029   1.800 -32.789  1.00  0.00    -0.284 NA
HETATM    8  H   UNL     1      -6.791   1.548 -32.149  1.00  0.00     0.128 HD
BRANCH   7   9
HETATM    9  C   UNL     1      -6.565   1.882 -34.169  1.00  0.00     0.195 C 
BRANCH   9  10
HETATM   10  C   UNL     1      -6.621   0.481 -34.804  1.00  0.00     0.235 C 
HETATM   11  N   UNL     1      -6.091  -0.480 -33.962  1.00  0.00    -0.326 N 
HETATM   12  H   UNL     1      -5.808  -0.111 -33.055  1.00  0.00     0.169 HD
HETATM   13  O   UNL     1      -7.050   0.315 -35.942  1.00  0.00    -0.272 OA
BRANCH  11  14
HETATM   14  C   UNL     1      -5.909  -1.853 -34.190  1.00  0.00     0.035 A 
HETATM   15  C   UNL     1      -4.707  -2.526 -33.966  1.00  0.00     0.036 A 
HETATM   16  C   UNL     1      -4.605  -3.908 -34.201  1.00  0.00    -0.060 A 
HETATM   17  C   UNL     1      -3.300  -4.617 -33.985  1.00  0.00     0.048 C 
HETATM   18  C   UNL     1      -5.714  -4.605 -34.691  1.00  0.00     0.007 A 
HETATM   19  C   UNL     1      -6.916  -3.939 -34.919  1.00  0.00     0.003 A 
HETATM   20  C   UNL     1      -7.014  -2.570 -34.666  1.00  0.00     0.029 A 
ENDBRANCH  11  14
ENDBRANCH   9  10
ENDBRANCH   7   9
ENDBRANCH   1   7
BRANCH   2  21
HETATM   21  C   UNL     1      -7.131   3.790 -30.947  1.00  0.00     0.419 C 
HETATM   22  F   UNL     1      -7.583   2.649 -30.342  1.00  0.00    -0.166 F 
HETATM   23  F   UNL     1      -7.394   4.798 -30.070  1.00  0.00    -0.166 F 
HETATM   24  F   UNL     1      -7.966   3.987 -32.007  1.00  0.00    -0.166 F 
ENDBRANCH   2  21
BRANCH   4  25
HETATM   25  N   UNL     1      -2.491   5.471 -30.346  1.00  0.00    -0.321 N 
HETATM   26  C   UNL     1      -1.874   6.582 -30.894  1.00  0.00     0.279 C 
HETATM   27  O   UNL     1      -2.064   7.013 -32.027  1.00  0.00    -0.265 OA
HETATM   28  H   UNL     1      -2.225   5.278 -29.385  1.00  0.00     0.169 HD
BRANCH  26  29
HETATM   29  C   UNL     1      -0.948   7.216 -29.972  1.00  0.00     0.142 A 
HETATM   30  O   UNL     1      -1.424   8.111 -29.045  1.00  0.00    -0.317 OA
HETATM   31  C   UNL     1      -0.360   8.538 -28.318  1.00  0.00     0.143 A 
HETATM   32  C   UNL     1       0.797   7.938 -28.757  1.00  0.00     0.027 A 
HETATM   33  C   UNL     1       0.421   7.088 -29.823  1.00  0.00     0.045 A 
ENDBRANCH  26  29
ENDBRANCH   4  25
TORSDOF 7
ENDMDL
MODEL 9
REMARK VINA RESULT:      -8.3      2.929      9.247
REMARK  7 active torsions:
REMARK  status: ('A' for Active; 'I' for Inactive)
REMARK    1  A    between atoms: C_4  and  N_5 
REMARK       I    between atoms: N_5  and  C_6 
REMARK    2  A    between atoms: C_6  and  C_7 
REMARK    3  A    between atoms: C_7  and  N_8 
REMARK    4  A    between atoms: N_8  and  C_9 
REMARK    5  A    between atoms: C_10  and  C_11 
REMARK    6  A    between atoms: C_16  and  N_17 
REMARK       I    between atoms: N_17  and  C_18 
REMARK    7  A    between atoms: C_18  and  C_19 
ROOT
HETATM    1  C   UNL     1      -4.309   3.077 -31.121  1.00  0.00     0.024 A 
HETATM    2  C   UNL     1      -5.631   2.579 -31.142  1.00  0.00     0.071 A 
HETATM    3  C   UNL     1      -5.917   1.322 -31.727  1.00  0.00     0.047 A 
HETATM    4  C   UNL     1      -4.916   0.549 -32.307  1.00  0.00     0.035 A 
HETATM    5  C   UNL     1      -3.618   1.050 -32.313  1.00  0.00     0.031 A 
HETATM    6  C   UNL     1      -3.327   2.298 -31.749  1.00  0.00     0.026 A 
ENDROOT
BRANCH   1   7
HETATM    7  N   UNL     1      -4.047   4.368 -30.655  1.00  0.00    -0.284 NA
HETATM    8  H   UNL     1      -3.810   4.385 -29.657  1.00  0.00     0.128 HD
BRANCH   7   9
HETATM    9  C   UNL     1      -3.159   5.312 -31.377  1.00  0.00     0.195 C 
BRANCH   9  10
HETATM   10  C   UNL     1      -2.759   6.478 -30.457  1.00  0.00     0.235 C 
HETATM   11  N   UNL     1      -1.572   6.220 -29.795  1.00  0.00    -0.326 N 
HETATM   12  H   UNL     1      -1.142   5.337 -30.067  1.00  0.00     0.169 HD
HETATM   13  O   UNL     1      -3.477   7.466 -30.334  1.00  0.00    -0.272 OA
BRANCH  11  14
HETATM   14  C   UNL     1      -0.907   6.998 -28.835  1.00  0.00     0.035 A 
HETATM   15  C   UNL     1      -1.469   7.376 -27.614  1.00  0.00     0.036 A 
HETATM   16  C   UNL     1      -0.735   8.143 -26.693  1.00  0.00    -0.060 A 
HETATM   17  C   UNL     1      -1.358   8.568 -25.397  1.00  0.00     0.048 C 
HETATM   18  C   UNL     1       0.561   8.553 -27.021  1.00  0.00     0.007 A 
HETATM   19  C   UNL     1       1.128   8.181 -28.238  1.00  0.00     0.003 A 
HETATM   20  C   UNL     1       0.397   7.404 -29.139  1.00  0.00     0.029 A 
ENDBRANCH  11  14
ENDBRANCH   9  10
ENDBRANCH   7   9
ENDBRANCH   1   7
BRANCH   2  21
HETATM   21  C   UNL     1      -6.797   3.369 -30.595  1.00  0.00     0.419 C 
HETATM   22  F   UNL     1      -7.978   2.679 -30.626  1.00  0.00    -0.166 F 
HETATM   23  F   UNL     1      -6.619   3.731 -29.295  1.00  0.00    -0.166 F 
HETATM   24  F   UNL     1      -7.041   4.524 -31.277  1.00  0.00    -0.166 F 
ENDBRANCH   2  21
BRANCH   4  25
HETATM   25  N   UNL     1      -5.127  -0.705 -32.904  1.00  0.00    -0.321 N 
HETATM   26  C   UNL     1      -5.808  -1.001 -34.072  1.00  0.00     0.279 C 
HETATM   27  O   UNL     1      -6.340  -0.180 -34.811  1.00  0.00    -0.265 OA
HETATM   28  H   UNL     1      -4.734  -1.515 -32.434  1.00  0.00     0.169 HD
BRANCH  26  29
HETATM   29  C   UNL     1      -5.834  -2.426 -34.354  1.00  0.00     0.142 A 
HETATM   30  O   UNL     1      -4.699  -3.174 -34.160  1.00  0.00    -0.317 OA
HETATM   31  C   UNL     1      -5.003  -4.456 -34.489  1.00  0.00     0.143 A 
HETATM   32  C   UNL     1      -6.313  -4.553 -34.894  1.00  0.00     0.027 A 
HETATM   33  C   UNL     1      -6.850  -3.246 -34.809  1.00  0.00     0.045 A 
ENDBRANCH  26  29
ENDBRANCH   4  25
TORSDOF 7
ENDMDL
MODEL 10
REMARK VINA RESULT:      -8.2      3.338      9.180
REMARK  7 active torsions:
REMARK  status: ('A' for Active; 'I' for Inactive)
REMARK    1  A    between atoms: C_4  and  N_5 
REMARK       I    between atoms: N_5  and  C_6 
REMARK    2  A    between atoms: C_6  and  C_7 
REMARK    3  A    between atoms: C_7  and  N_8 
REMARK    4  A    between atoms: N_8  and  C_9 
REMARK    5  A    between atoms: C_10  and  C_11 
REMARK    6  A    between atoms: C_16  and  N_17 
REMARK       I    between atoms: N_17  and  C_18 
REMARK    7  A    between atoms: C_18  and  C_19 
ROOT
HETATM    1  C   UNL     1      -4.848   3.415 -30.714  1.00  0.00     0.024 A 
HETATM    2  C   UNL     1      -4.059   3.108 -31.844  1.00  0.00     0.071 A 
HETATM    3  C   UNL     1      -4.280   1.914 -32.572  1.00  0.00     0.047 A 
HETATM    4  C   UNL     1      -5.264   1.006 -32.193  1.00  0.00     0.035 A 
HETATM    5  C   UNL     1      -6.024   1.293 -31.064  1.00  0.00     0.031 A 
HETATM    6  C   UNL     1      -5.805   2.465 -30.328  1.00  0.00     0.026 A 
ENDROOT
BRANCH   1   7
HETATM    7  N   UNL     1      -4.551   4.530 -29.925  1.00  0.00    -0.284 NA
HETATM    8  H   UNL     1      -3.547   4.616 -29.729  1.00  0.00     0.128 HD
BRANCH   7   9
HETATM    9  C   UNL     1      -5.105   5.877 -30.206  1.00  0.00     0.195 C 
BRANCH   9  10
HETATM   10  C   UNL     1      -4.039   6.956 -29.946  1.00  0.00     0.235 C 
HETATM   11  N   UNL     1      -2.914   6.425 -29.341  1.00  0.00    -0.326 N 
HETATM   12  H   UNL     1      -2.959   5.414 -29.222  1.00  0.00     0.169 HD
HETATM   13  O   UNL     1      -4.248   8.134 -30.221  1.00  0.00    -0.272 OA
BRANCH  11  14
HETATM   14  C   UNL     1      -1.757   7.082 -28.894  1.00  0.00     0.035 A 
HETATM   15  C   UNL     1      -1.714   7.899 -27.763  1.00  0.00     0.036 A 
HETATM   16  C   UNL     1      -0.513   8.511 -27.366  1.00  0.00    -0.060 A 
HETATM   17  C   UNL     1      -0.483   9.411 -26.166  1.00  0.00     0.048 C 
HETATM   18  C   UNL     1       0.642   8.318 -28.132  1.00  0.00     0.007 A 
HETATM   19  C   UNL     1       0.605   7.505 -29.263  1.00  0.00     0.003 A 
HETATM   20  C   UNL     1      -0.588   6.887 -29.640  1.00  0.00     0.029 A 
ENDBRANCH  11  14
ENDBRANCH   9  10
ENDBRANCH   7   9
ENDBRANCH   1   7
BRANCH   2  21
HETATM   21  C   UNL     1      -2.925   3.996 -32.299  1.00  0.00     0.419 C 
HETATM   22  F   UNL     1      -2.252   3.499 -33.382  1.00  0.00    -0.166 F 
HETATM   23  F   UNL     1      -3.348   5.236 -32.670  1.00  0.00    -0.166 F 
HETATM   24  F   UNL     1      -1.971   4.194 -31.346  1.00  0.00    -0.166 F 
ENDBRANCH   2  21
BRANCH   4  25
HETATM   25  N   UNL     1      -5.539  -0.195 -32.868  1.00  0.00    -0.321 N 
HETATM   26  C   UNL     1      -4.692  -1.265 -33.103  1.00  0.00     0.279 C 
HETATM   27  O   UNL     1      -3.528  -1.346 -32.726  1.00  0.00    -0.265 OA
HETATM   28  H   UNL     1      -6.476  -0.316 -33.238  1.00  0.00     0.169 HD
BRANCH  26  29
HETATM   29  C   UNL     1      -5.334  -2.325 -33.861  1.00  0.00     0.142 A 
HETATM   30  O   UNL     1      -4.646  -3.486 -34.114  1.00  0.00    -0.317 OA
HETATM   31  C   UNL     1      -5.474  -4.295 -34.824  1.00  0.00     0.143 A 
HETATM   32  C   UNL     1      -6.685  -3.679 -35.038  1.00  0.00     0.027 A 
HETATM   33  C   UNL     1      -6.596  -2.409 -34.419  1.00  0.00     0.045 A 
ENDBRANCH  26  29
ENDBRANCH   4  25
TORSDOF 7
ENDMDL
