MODEL 1
REMARK VINA RESULT:      -8.6      0.000      0.000
REMARK  6 active torsions:
REMARK  status: ('A' for Active; 'I' for Inactive)
REMARK    1  A    between atoms: C_7  and  C_8 
REMARK    2  A    between atoms: N_9  and  N_10 
REMARK       I    between atoms: N_10  and  C_11 
REMARK    3  A    between atoms: C_11  and  C_12 
REMARK    4  A    between atoms: C_12  and  N_13 
REMARK    5  A    between atoms: N_13  and  C_14 
REMARK    6  A    between atoms: C_15  and  O_16 
ROOT
HETATM    1  N   UNL     1      -4.633   1.692 -31.764  1.00  0.00    -0.246 N 
HETATM    2  C   UNL     1      -5.033   3.026 -31.729  1.00  0.00     0.250 C 
HETATM    3  O   UNL     1      -6.061   3.478 -32.232  1.00  0.00    -0.270 OA
HETATM    4  H   UNL     1      -3.936   1.412 -31.074  1.00  0.00     0.192 HD
ENDROOT
BRANCH   1   5
HETATM    5  N   UNL     1      -5.331   0.665 -32.348  1.00  0.00    -0.184 NA
HETATM    6  C   UNL     1      -4.727  -0.007 -33.278  1.00  0.00     0.153 C 
BRANCH   6   7
HETATM    7  C   UNL     1      -5.396  -1.101 -33.960  1.00  0.00     0.018 A 
HETATM    8  C   UNL     1      -6.552  -1.044 -34.726  1.00  0.00     0.018 A 
HETATM    9  C   UNL     1      -7.429   0.099 -35.092  1.00  0.00     0.069 C 
HETATM   10  N   UNL     1      -6.824  -2.316 -35.166  1.00  0.00    -0.358 N 
HETATM   11  H   UNL     1      -7.608  -2.574 -35.748  1.00  0.00     0.166 HD
HETATM   12  C   UNL     1      -5.878  -3.202 -34.710  1.00  0.00     0.043 A 
HETATM   13  C   UNL     1      -4.963  -2.471 -33.955  1.00  0.00     0.004 A 
HETATM   14  C   UNL     1      -5.766  -4.584 -34.909  1.00  0.00     0.030 A 
HETATM   15  C   UNL     1      -3.879  -3.159 -33.368  1.00  0.00     0.014 A 
HETATM   16  C   UNL     1      -3.753  -4.540 -33.554  1.00  0.00     0.001 A 
HETATM   17  C   UNL     1      -4.684  -5.240 -34.314  1.00  0.00     0.002 A 
ENDBRANCH   6   7
ENDBRANCH   1   5
BRANCH   2  18
HETATM   18  C   UNL     1      -4.058   3.918 -30.953  1.00  0.00     0.197 C 
BRANCH  18  19
HETATM   19  N   UNL     1      -2.661   3.642 -31.338  1.00  0.00    -0.282 NA
HETATM   20  H   UNL     1      -2.569   2.706 -31.751  1.00  0.00     0.128 HD
BRANCH  19  21
HETATM   21  C   UNL     1      -2.120   4.534 -32.299  1.00  0.00     0.042 A 
HETATM   22  C   UNL     1      -1.358   5.634 -31.848  1.00  0.00     0.089 A 
HETATM   23  C   UNL     1      -0.811   6.543 -32.757  1.00  0.00     0.038 A 
HETATM   24  C   UNL     1      -1.070   6.400 -34.120  1.00  0.00     0.003 A 
HETATM   25  C   UNL     1      -1.876   5.356 -34.571  1.00  0.00     0.002 A 
HETATM   26  C   UNL     1      -2.407   4.434 -33.664  1.00  0.00     0.026 A 
BRANCH  22  27
HETATM   27  O   UNL     1      -1.126   5.691 -30.492  1.00  0.00    -0.354 OA
HETATM   28  C   UNL     1       0.220   5.410 -30.121  1.00  0.00     0.210 C 
ENDBRANCH  22  27
ENDBRANCH  19  21
ENDBRANCH  18  19
ENDBRANCH   2  18
TORSDOF 6
ENDMDL
MODEL 2
REMARK VINA RESULT:      -8.3      4.908      8.330
REMARK  6 active torsions:
REMARK  status: ('A' for Active; 'I' for Inactive)
REMARK    1  A    between atoms: C_7  and  C_8 
REMARK    2  A    between atoms: N_9  and  N_10 
REMARK       I    between atoms: N_10  and  C_11 
REMARK    3  A    between atoms: C_11  and  C_12 
REMARK    4  A    between atoms: C_12  and  N_13 
REMARK    5  A    between atoms: N_13  and  C_14 
REMARK    6  A    between atoms: C_15  and  O_16 
ROOT
HETATM    1  N   UNL     1      -8.239   1.519 -32.584  1.00  0.00    -0.246 N 
HETATM    2  C   UNL     1      -9.608   1.311 -32.740  1.00  0.00     0.250 C 
HETATM    3  O   UNL     1     -10.158   0.216 -32.843  1.00  0.00    -0.270 OA
HETATM    4  H   UNL     1      -7.958   2.430 -32.222  1.00  0.00     0.192 HD
ENDROOT
BRANCH   1   5
HETATM    5  N   UNL     1      -7.288   0.532 -32.502  1.00  0.00    -0.184 NA
HETATM    6  C   UNL     1      -6.608   0.275 -33.575  1.00  0.00     0.153 C 
BRANCH   6   7
HETATM    7  C   UNL     1      -5.592  -0.762 -33.583  1.00  0.00     0.018 A 
HETATM    8  C   UNL     1      -4.276  -0.665 -33.150  1.00  0.00     0.018 A 
HETATM    9  C   UNL     1      -3.522   0.469 -32.555  1.00  0.00     0.069 C 
HETATM   10  N   UNL     1      -3.679  -1.885 -33.353  1.00  0.00    -0.358 N 
HETATM   11  H   UNL     1      -2.720  -2.107 -33.128  1.00  0.00     0.166 HD
HETATM   12  C   UNL     1      -4.568  -2.777 -33.905  1.00  0.00     0.043 A 
HETATM   13  C   UNL     1      -5.780  -2.106 -34.056  1.00  0.00     0.004 A 
HETATM   14  C   UNL     1      -4.389  -4.115 -34.278  1.00  0.00     0.030 A 
HETATM   15  C   UNL     1      -6.870  -2.811 -34.609  1.00  0.00     0.014 A 
HETATM   16  C   UNL     1      -6.709  -4.148 -34.990  1.00  0.00     0.001 A 
HETATM   17  C   UNL     1      -5.485  -4.788 -34.825  1.00  0.00     0.002 A 
ENDBRANCH   6   7
ENDBRANCH   1   5
BRANCH   2  18
HETATM   18  C   UNL     1     -10.409   2.618 -32.742  1.00  0.00     0.197 C 
BRANCH  18  19
HETATM   19  N   UNL     1     -11.536   2.550 -33.691  1.00  0.00    -0.282 NA
HETATM   20  H   UNL     1     -11.527   1.666 -34.215  1.00  0.00     0.128 HD
BRANCH  19  21
HETATM   21  C   UNL     1     -12.822   2.622 -33.096  1.00  0.00     0.042 A 
HETATM   22  C   UNL     1     -13.770   1.622 -33.408  1.00  0.00     0.089 A 
HETATM   23  C   UNL     1     -15.051   1.656 -32.853  1.00  0.00     0.038 A 
HETATM   24  C   UNL     1     -15.422   2.721 -32.031  1.00  0.00     0.003 A 
HETATM   25  C   UNL     1     -14.517   3.748 -31.771  1.00  0.00     0.002 A 
HETATM   26  C   UNL     1     -13.228   3.705 -32.309  1.00  0.00     0.026 A 
BRANCH  22  27
HETATM   27  O   UNL     1     -13.319   0.593 -34.204  1.00  0.00    -0.354 OA
HETATM   28  C   UNL     1     -13.501  -0.701 -33.639  1.00  0.00     0.210 C 
ENDBRANCH  22  27
ENDBRANCH  19  21
ENDBRANCH  18  19
ENDBRANCH   2  18
TORSDOF 6
ENDMDL
MODEL 3
REMARK VINA RESULT:      -8.3      4.494      8.049
REMARK  6 active torsions:
REMARK  status: ('A' for Active; 'I' for Inactive)
REMARK    1  A    between atoms: C_7  and  C_8 
REMARK    2  A    between atoms: N_9  and  N_10 
REMARK       I    between atoms: N_10  and  C_11 
REMARK    3  A    between atoms: C_11  and  C_12 
REMARK    4  A    between atoms: C_12  and  N_13 
REMARK    5  A    between atoms: N_13  and  C_14 
REMARK    6  A    between atoms: C_15  and  O_16 
ROOT
HETATM    1  N   UNL     1      -8.675   1.309 -34.943  1.00  0.00    -0.246 N 
HETATM    2  C   UNL     1      -8.957   2.418 -34.149  1.00  0.00     0.250 C 
HETATM    3  O   UNL     1      -8.210   2.897 -33.297  1.00  0.00    -0.270 OA
HETATM    4  H   UNL     1      -9.237   1.203 -35.787  1.00  0.00     0.192 HD
ENDROOT
BRANCH   1   5
HETATM    5  N   UNL     1      -7.508   0.586 -34.916  1.00  0.00    -0.184 NA
HETATM    6  C   UNL     1      -7.317  -0.190 -33.895  1.00  0.00     0.153 C 
BRANCH   6   7
HETATM    7  C   UNL     1      -6.105  -0.981 -33.777  1.00  0.00     0.018 A 
HETATM    8  C   UNL     1      -4.873  -0.577 -33.280  1.00  0.00     0.018 A 
HETATM    9  C   UNL     1      -4.420   0.724 -32.721  1.00  0.00     0.069 C 
HETATM   10  N   UNL     1      -4.017  -1.647 -33.368  1.00  0.00    -0.358 N 
HETATM   11  H   UNL     1      -3.050  -1.643 -33.077  1.00  0.00     0.166 HD
HETATM   12  C   UNL     1      -4.654  -2.739 -33.908  1.00  0.00     0.043 A 
HETATM   13  C   UNL     1      -5.969  -2.356 -34.170  1.00  0.00     0.004 A 
HETATM   14  C   UNL     1      -4.169  -4.024 -34.181  1.00  0.00     0.030 A 
HETATM   15  C   UNL     1      -6.843  -3.310 -34.734  1.00  0.00     0.014 A 
HETATM   16  C   UNL     1      -6.375  -4.598 -35.016  1.00  0.00     0.001 A 
HETATM   17  C   UNL     1      -5.056  -4.947 -34.742  1.00  0.00     0.002 A 
ENDBRANCH   6   7
ENDBRANCH   1   5
BRANCH   2  18
HETATM   18  C   UNL     1     -10.325   3.036 -34.458  1.00  0.00     0.197 C 
BRANCH  18  19
HETATM   19  N   UNL     1     -11.207   2.997 -33.276  1.00  0.00    -0.282 NA
HETATM   20  H   UNL     1     -11.603   3.924 -33.078  1.00  0.00     0.128 HD
BRANCH  19  21
HETATM   21  C   UNL     1     -12.322   2.127 -33.390  1.00  0.00     0.042 A 
HETATM   22  C   UNL     1     -13.599   2.613 -33.035  1.00  0.00     0.089 A 
HETATM   23  C   UNL     1     -14.725   1.791 -33.123  1.00  0.00     0.038 A 
HETATM   24  C   UNL     1     -14.580   0.458 -33.508  1.00  0.00     0.003 A 
HETATM   25  C   UNL     1     -13.316  -0.051 -33.796  1.00  0.00     0.002 A 
HETATM   26  C   UNL     1     -12.191   0.776 -33.728  1.00  0.00     0.026 A 
BRANCH  22  27
HETATM   27  O   UNL     1     -13.662   3.946 -32.691  1.00  0.00    -0.354 OA
HETATM   28  C   UNL     1     -14.406   4.204 -31.504  1.00  0.00     0.210 C 
ENDBRANCH  22  27
ENDBRANCH  19  21
ENDBRANCH  18  19
ENDBRANCH   2  18
TORSDOF 6
ENDMDL
MODEL 4
REMARK VINA RESULT:      -8.3      2.142      8.386
REMARK  6 active torsions:
REMARK  status: ('A' for Active; 'I' for Inactive)
REMARK    1  A    between atoms: C_7  and  C_8 
REMARK    2  A    between atoms: N_9  and  N_10 
REMARK       I    between atoms: N_10  and  C_11 
REMARK    3  A    between atoms: C_11  and  C_12 
REMARK    4  A    between atoms: C_12  and  N_13 
REMARK    5  A    between atoms: N_13  and  C_14 
REMARK    6  A    between atoms: C_15  and  O_16 
ROOT
HETATM    1  N   UNL     1      -5.427   1.044 -32.814  1.00  0.00    -0.246 N 
HETATM    2  C   UNL     1      -6.629   0.535 -32.327  1.00  0.00     0.250 C 
HETATM    3  O   UNL     1      -7.216   0.927 -31.319  1.00  0.00    -0.270 OA
HETATM    4  H   UNL     1      -5.212   0.839 -33.789  1.00  0.00     0.192 HD
ENDROOT
BRANCH   1   5
HETATM    5  N   UNL     1      -4.716   2.077 -32.257  1.00  0.00    -0.184 NA
HETATM    6  C   UNL     1      -4.882   3.255 -32.773  1.00  0.00     0.153 C 
BRANCH   6   7
HETATM    7  C   UNL     1      -4.159   4.404 -32.256  1.00  0.00     0.018 A 
HETATM    8  C   UNL     1      -4.375   5.076 -31.061  1.00  0.00     0.018 A 
HETATM    9  C   UNL     1      -5.357   4.843 -29.969  1.00  0.00     0.069 C 
HETATM   10  N   UNL     1      -3.465   6.102 -30.989  1.00  0.00    -0.358 N 
HETATM   11  H   UNL     1      -3.390   6.758 -30.225  1.00  0.00     0.166 HD
HETATM   12  C   UNL     1      -2.660   6.119 -32.102  1.00  0.00     0.043 A 
HETATM   13  C   UNL     1      -3.065   5.061 -32.915  1.00  0.00     0.004 A 
HETATM   14  C   UNL     1      -1.613   6.984 -32.446  1.00  0.00     0.030 A 
HETATM   15  C   UNL     1      -2.386   4.859 -34.136  1.00  0.00     0.014 A 
HETATM   16  C   UNL     1      -1.340   5.715 -34.497  1.00  0.00     0.001 A 
HETATM   17  C   UNL     1      -0.961   6.761 -33.662  1.00  0.00     0.002 A 
ENDBRANCH   6   7
ENDBRANCH   1   5
BRANCH   2  18
HETATM   18  C   UNL     1      -7.199  -0.583 -33.207  1.00  0.00     0.197 C 
BRANCH  18  19
HETATM   19  N   UNL     1      -6.274  -0.922 -34.305  1.00  0.00    -0.282 NA
HETATM   20  H   UNL     1      -5.410  -0.370 -34.244  1.00  0.00     0.128 HD
BRANCH  19  21
HETATM   21  C   UNL     1      -5.857  -2.277 -34.337  1.00  0.00     0.042 A 
HETATM   22  C   UNL     1      -4.547  -2.593 -33.914  1.00  0.00     0.089 A 
HETATM   23  C   UNL     1      -4.089  -3.912 -33.936  1.00  0.00     0.038 A 
HETATM   24  C   UNL     1      -4.910  -4.921 -34.440  1.00  0.00     0.003 A 
HETATM   25  C   UNL     1      -6.180  -4.611 -34.923  1.00  0.00     0.002 A 
HETATM   26  C   UNL     1      -6.647  -3.294 -34.882  1.00  0.00     0.026 A 
BRANCH  22  27
HETATM   27  O   UNL     1      -3.809  -1.546 -33.408  1.00  0.00    -0.354 OA
HETATM   28  C   UNL     1      -3.326  -1.762 -32.086  1.00  0.00     0.210 C 
ENDBRANCH  22  27
ENDBRANCH  19  21
ENDBRANCH  18  19
ENDBRANCH   2  18
TORSDOF 6
ENDMDL
MODEL 5
REMARK VINA RESULT:      -8.3      1.162      1.937
REMARK  6 active torsions:
REMARK  status: ('A' for Active; 'I' for Inactive)
REMARK    1  A    between atoms: C_7  and  C_8 
REMARK    2  A    between atoms: N_9  and  N_10 
REMARK       I    between atoms: N_10  and  C_11 
REMARK    3  A    between atoms: C_11  and  C_12 
REMARK    4  A    between atoms: C_12  and  N_13 
REMARK    5  A    between atoms: N_13  and  C_14 
REMARK    6  A    between atoms: C_15  and  O_16 
ROOT
HETATM    1  N   UNL     1      -4.857   2.139 -32.447  1.00  0.00    -0.246 N 
HETATM    2  C   UNL     1      -4.904   2.569 -31.124  1.00  0.00     0.250 C 
HETATM    3  O   UNL     1      -5.584   2.064 -30.231  1.00  0.00    -0.270 OA
HETATM    4  H   UNL     1      -4.054   2.448 -32.995  1.00  0.00     0.192 HD
ENDROOT
BRANCH   1   5
HETATM    5  N   UNL     1      -5.546   1.070 -32.963  1.00  0.00    -0.184 NA
HETATM    6  C   UNL     1      -4.846   0.119 -33.498  1.00  0.00     0.153 C 
BRANCH   6   7
HETATM    7  C   UNL     1      -5.492  -1.044 -34.081  1.00  0.00     0.018 A 
HETATM    8  C   UNL     1      -6.682  -1.085 -34.796  1.00  0.00     0.018 A 
HETATM    9  C   UNL     1      -7.625  -0.006 -35.193  1.00  0.00     0.069 C 
HETATM   10  N   UNL     1      -6.914  -2.393 -35.145  1.00  0.00    -0.358 N 
HETATM   11  H   UNL     1      -7.710  -2.721 -35.673  1.00  0.00     0.166 HD
HETATM   12  C   UNL     1      -5.910  -3.208 -34.678  1.00  0.00     0.043 A 
HETATM   13  C   UNL     1      -4.998  -2.391 -34.011  1.00  0.00     0.004 A 
HETATM   14  C   UNL     1      -5.744  -4.594 -34.797  1.00  0.00     0.030 A 
HETATM   15  C   UNL     1      -3.860  -2.993 -33.433  1.00  0.00     0.014 A 
HETATM   16  C   UNL     1      -3.679  -4.377 -33.539  1.00  0.00     0.001 A 
HETATM   17  C   UNL     1      -4.609  -5.163 -34.212  1.00  0.00     0.002 A 
ENDBRANCH   6   7
ENDBRANCH   1   5
BRANCH   2  18
HETATM   18  C   UNL     1      -3.977   3.760 -30.853  1.00  0.00     0.197 C 
BRANCH  18  19
HETATM   19  N   UNL     1      -2.659   3.563 -31.485  1.00  0.00    -0.282 NA
HETATM   20  H   UNL     1      -2.731   2.958 -32.312  1.00  0.00     0.128 HD
BRANCH  19  21
HETATM   21  C   UNL     1      -2.032   4.751 -31.940  1.00  0.00     0.042 A 
HETATM   22  C   UNL     1      -2.450   5.310 -33.168  1.00  0.00     0.089 A 
HETATM   23  C   UNL     1      -1.855   6.475 -33.660  1.00  0.00     0.038 A 
HETATM   24  C   UNL     1      -0.796   7.058 -32.965  1.00  0.00     0.003 A 
HETATM   25  C   UNL     1      -0.331   6.477 -31.787  1.00  0.00     0.002 A 
HETATM   26  C   UNL     1      -0.938   5.323 -31.283  1.00  0.00     0.026 A 
BRANCH  22  27
HETATM   27  O   UNL     1      -3.517   4.691 -33.780  1.00  0.00    -0.354 OA
HETATM   28  C   UNL     1      -3.758   5.132 -35.112  1.00  0.00     0.210 C 
ENDBRANCH  22  27
ENDBRANCH  19  21
ENDBRANCH  18  19
ENDBRANCH   2  18
TORSDOF 6
ENDMDL
MODEL 6
REMARK VINA RESULT:      -8.3      2.108      8.660
REMARK  6 active torsions:
REMARK  status: ('A' for Active; 'I' for Inactive)
REMARK    1  A    between atoms: C_7  and  C_8 
REMARK    2  A    between atoms: N_9  and  N_10 
REMARK       I    between atoms: N_10  and  C_11 
REMARK    3  A    between atoms: C_11  and  C_12 
REMARK    4  A    between atoms: C_12  and  N_13 
REMARK    5  A    between atoms: N_13  and  C_14 
REMARK    6  A    between atoms: C_15  and  O_16 
ROOT
HETATM    1  N   UNL     1      -3.961   1.118 -32.197  1.00  0.00    -0.246 N 
HETATM    2  C   UNL     1      -3.170   0.128 -31.620  1.00  0.00     0.250 C 
HETATM    3  O   UNL     1      -2.271   0.317 -30.801  1.00  0.00    -0.270 OA
HETATM    4  H   UNL     1      -4.837   0.809 -32.618  1.00  0.00     0.192 HD
ENDROOT
BRANCH   1   5
HETATM    5  N   UNL     1      -3.878   2.462 -31.929  1.00  0.00    -0.184 NA
HETATM    6  C   UNL     1      -3.209   3.192 -32.766  1.00  0.00     0.153 C 
BRANCH   6   7
HETATM    7  C   UNL     1      -3.057   4.620 -32.553  1.00  0.00     0.018 A 
HETATM    8  C   UNL     1      -3.968   5.625 -32.851  1.00  0.00     0.018 A 
HETATM    9  C   UNL     1      -5.331   5.568 -33.441  1.00  0.00     0.069 C 
HETATM   10  N   UNL     1      -3.401   6.822 -32.490  1.00  0.00    -0.358 N 
HETATM   11  H   UNL     1      -3.840   7.726 -32.592  1.00  0.00     0.166 HD
HETATM   12  C   UNL     1      -2.146   6.629 -31.964  1.00  0.00     0.043 A 
HETATM   13  C   UNL     1      -1.902   5.257 -31.983  1.00  0.00     0.004 A 
HETATM   14  C   UNL     1      -1.219   7.559 -31.477  1.00  0.00     0.030 A 
HETATM   15  C   UNL     1      -0.665   4.791 -31.488  1.00  0.00     0.014 A 
HETATM   16  C   UNL     1       0.275   5.706 -31.001  1.00  0.00     0.001 A 
HETATM   17  C   UNL     1      -0.001   7.070 -30.997  1.00  0.00     0.002 A 
ENDBRANCH   6   7
ENDBRANCH   1   5
BRANCH   2  18
HETATM   18  C   UNL     1      -3.548  -1.281 -32.089  1.00  0.00     0.197 C 
BRANCH  18  19
HETATM   19  N   UNL     1      -3.668  -1.340 -33.558  1.00  0.00    -0.282 NA
HETATM   20  H   UNL     1      -2.781  -1.624 -33.991  1.00  0.00     0.128 HD
BRANCH  19  21
HETATM   21  C   UNL     1      -4.635  -2.257 -34.042  1.00  0.00     0.042 A 
HETATM   22  C   UNL     1      -5.940  -1.787 -34.309  1.00  0.00     0.089 A 
HETATM   23  C   UNL     1      -6.929  -2.654 -34.779  1.00  0.00     0.038 A 
HETATM   24  C   UNL     1      -6.644  -4.012 -34.929  1.00  0.00     0.003 A 
HETATM   25  C   UNL     1      -5.379  -4.499 -34.605  1.00  0.00     0.002 A 
HETATM   26  C   UNL     1      -4.383  -3.628 -34.154  1.00  0.00     0.026 A 
BRANCH  22  27
HETATM   27  O   UNL     1      -6.134  -0.431 -34.161  1.00  0.00    -0.354 OA
HETATM   28  C   UNL     1      -6.992   0.143 -35.141  1.00  0.00     0.210 C 
ENDBRANCH  22  27
ENDBRANCH  19  21
ENDBRANCH  18  19
ENDBRANCH   2  18
TORSDOF 6
ENDMDL
MODEL 7
REMARK VINA RESULT:      -8.1      3.693      6.563
REMARK  6 active torsions:
REMARK  status: ('A' for Active; 'I' for Inactive)
REMARK    1  A    between atoms: C_7  and  C_8 
REMARK    2  A    between atoms: N_9  and  N_10 
REMARK       I    between atoms: N_10  and  C_11 
REMARK    3  A    between atoms: C_11  and  C_12 
REMARK    4  A    between atoms: C_12  and  N_13 
REMARK    5  A    between atoms: N_13  and  C_14 
REMARK    6  A    between atoms: C_15  and  O_16 
ROOT
HETATM    1  N   UNL     1      -7.189   2.596 -33.120  1.00  0.00    -0.246 N 
HETATM    2  C   UNL     1      -7.022   3.764 -33.860  1.00  0.00     0.250 C 
HETATM    3  O   UNL     1      -6.004   4.085 -34.471  1.00  0.00    -0.270 OA
HETATM    4  H   UNL     1      -8.151   2.322 -32.919  1.00  0.00     0.192 HD
ENDROOT
BRANCH   1   5
HETATM    5  N   UNL     1      -6.250   1.606 -32.972  1.00  0.00    -0.184 NA
HETATM    6  C   UNL     1      -6.371   0.558 -33.725  1.00  0.00     0.153 C 
BRANCH   6   7
HETATM    7  C   UNL     1      -5.431  -0.544 -33.625  1.00  0.00     0.018 A 
HETATM    8  C   UNL     1      -4.147  -0.520 -33.097  1.00  0.00     0.018 A 
HETATM    9  C   UNL     1      -3.362   0.582 -32.480  1.00  0.00     0.069 C 
HETATM   10  N   UNL     1      -3.622  -1.783 -33.218  1.00  0.00    -0.358 N 
HETATM   11  H   UNL     1      -2.699  -2.060 -32.915  1.00  0.00     0.166 HD
HETATM   12  C   UNL     1      -4.526  -2.632 -33.810  1.00  0.00     0.043 A 
HETATM   13  C   UNL     1      -5.675  -1.887 -34.072  1.00  0.00     0.004 A 
HETATM   14  C   UNL     1      -4.413  -3.991 -34.129  1.00  0.00     0.030 A 
HETATM   15  C   UNL     1      -6.768  -2.537 -34.685  1.00  0.00     0.014 A 
HETATM   16  C   UNL     1      -6.671  -3.894 -35.014  1.00  0.00     0.001 A 
HETATM   17  C   UNL     1      -5.509  -4.609 -34.738  1.00  0.00     0.002 A 
ENDBRANCH   6   7
ENDBRANCH   1   5
BRANCH   2  18
HETATM   18  C   UNL     1      -8.279   4.642 -33.873  1.00  0.00     0.197 C 
BRANCH  18  19
HETATM   19  N   UNL     1      -9.375   4.016 -33.111  1.00  0.00    -0.282 NA
HETATM   20  H   UNL     1      -9.851   4.703 -32.513  1.00  0.00     0.128 HD
BRANCH  19  21
HETATM   21  C   UNL     1     -10.397   3.433 -33.903  1.00  0.00     0.042 A 
HETATM   22  C   UNL     1     -10.705   2.068 -33.713  1.00  0.00     0.089 A 
HETATM   23  C   UNL     1     -11.698   1.448 -34.476  1.00  0.00     0.038 A 
HETATM   24  C   UNL     1     -12.350   2.166 -35.479  1.00  0.00     0.003 A 
HETATM   25  C   UNL     1     -12.006   3.495 -35.720  1.00  0.00     0.002 A 
HETATM   26  C   UNL     1     -11.028   4.122 -34.944  1.00  0.00     0.026 A 
BRANCH  22  27
HETATM   27  O   UNL     1     -10.036   1.436 -32.688  1.00  0.00    -0.354 OA
HETATM   28  C   UNL     1      -9.971   0.020 -32.824  1.00  0.00     0.210 C 
ENDBRANCH  22  27
ENDBRANCH  19  21
ENDBRANCH  18  19
ENDBRANCH   2  18
TORSDOF 6
ENDMDL
MODEL 8
REMARK VINA RESULT:      -7.9      4.751      8.548
REMARK  6 active torsions:
REMARK  status: ('A' for Active; 'I' for Inactive)
REMARK    1  A    between atoms: C_7  and  C_8 
REMARK    2  A    between atoms: N_9  and  N_10 
REMARK       I    between atoms: N_10  and  C_11 
REMARK    3  A    between atoms: C_11  and  C_12 
REMARK    4  A    between atoms: C_12  and  N_13 
REMARK    5  A    between atoms: N_13  and  C_14 
REMARK    6  A    between atoms: C_15  and  O_16 
ROOT
HETATM    1  N   UNL     1      -8.470   0.338 -32.631  1.00  0.00    -0.246 N 
HETATM    2  C   UNL     1      -7.152   0.786 -32.605  1.00  0.00     0.250 C 
HETATM    3  O   UNL     1      -6.788   1.949 -32.772  1.00  0.00    -0.270 OA
HETATM    4  H   UNL     1      -8.649  -0.567 -32.195  1.00  0.00     0.192 HD
ENDROOT
BRANCH   1   5
HETATM    5  N   UNL     1      -9.577   1.127 -32.826  1.00  0.00    -0.184 NA
HETATM    6  C   UNL     1     -10.169   1.040 -33.975  1.00  0.00     0.153 C 
BRANCH   6   7
HETATM    7  C   UNL     1     -11.338   1.849 -34.274  1.00  0.00     0.018 A 
HETATM    8  C   UNL     1     -12.671   1.460 -34.243  1.00  0.00     0.018 A 
HETATM    9  C   UNL     1     -13.304   0.160 -33.897  1.00  0.00     0.069 C 
HETATM   10  N   UNL     1     -13.431   2.545 -34.605  1.00  0.00    -0.358 N 
HETATM   11  H   UNL     1     -14.439   2.553 -34.668  1.00  0.00     0.166 HD
HETATM   12  C   UNL     1     -12.633   3.632 -34.872  1.00  0.00     0.043 A 
HETATM   13  C   UNL     1     -11.314   3.231 -34.667  1.00  0.00     0.004 A 
HETATM   14  C   UNL     1     -12.979   4.928 -35.275  1.00  0.00     0.030 A 
HETATM   15  C   UNL     1     -10.287   4.177 -34.876  1.00  0.00     0.014 A 
HETATM   16  C   UNL     1     -10.614   5.475 -35.282  1.00  0.00     0.001 A 
HETATM   17  C   UNL     1     -11.942   5.843 -35.477  1.00  0.00     0.002 A 
ENDBRANCH   6   7
ENDBRANCH   1   5
BRANCH   2  18
HETATM   18  C   UNL     1      -6.150  -0.336 -32.311  1.00  0.00     0.197 C 
BRANCH  18  19
HETATM   19  N   UNL     1      -5.391  -0.703 -33.521  1.00  0.00    -0.282 NA
HETATM   20  H   UNL     1      -4.381  -0.587 -33.374  1.00  0.00     0.128 HD
BRANCH  19  21
HETATM   21  C   UNL     1      -5.559  -2.046 -33.948  1.00  0.00     0.042 A 
HETATM   22  C   UNL     1      -4.487  -2.949 -33.778  1.00  0.00     0.089 A 
HETATM   23  C   UNL     1      -4.603  -4.279 -34.190  1.00  0.00     0.038 A 
HETATM   24  C   UNL     1      -5.765  -4.706 -34.832  1.00  0.00     0.003 A 
HETATM   25  C   UNL     1      -6.804  -3.806 -35.065  1.00  0.00     0.002 A 
HETATM   26  C   UNL     1      -6.697  -2.481 -34.635  1.00  0.00     0.026 A 
BRANCH  22  27
HETATM   27  O   UNL     1      -3.384  -2.458 -33.114  1.00  0.00    -0.354 OA
HETATM   28  C   UNL     1      -3.036  -3.193 -31.945  1.00  0.00     0.210 C 
ENDBRANCH  22  27
ENDBRANCH  19  21
ENDBRANCH  18  19
ENDBRANCH   2  18
TORSDOF 6
ENDMDL
MODEL 9
REMARK VINA RESULT:      -7.8      2.028      3.035
REMARK  6 active torsions:
REMARK  status: ('A' for Active; 'I' for Inactive)
REMARK    1  A    between atoms: C_7  and  C_8 
REMARK    2  A    between atoms: N_9  and  N_10 
REMARK       I    between atoms: N_10  and  C_11 
REMARK    3  A    between atoms: C_11  and  C_12 
REMARK    4  A    between atoms: C_12  and  N_13 
REMARK    5  A    between atoms: N_13  and  C_14 
REMARK    6  A    between atoms: C_15  and  O_16 
ROOT
HETATM    1  N   UNL     1      -5.186   4.145 -31.843  1.00  0.00    -0.246 N 
HETATM    2  C   UNL     1      -5.336   5.511 -32.068  1.00  0.00     0.250 C 
HETATM    3  O   UNL     1      -6.040   6.020 -32.940  1.00  0.00    -0.270 OA
HETATM    4  H   UNL     1      -4.820   3.876 -30.930  1.00  0.00     0.192 HD
ENDROOT
BRANCH   1   5
HETATM    5  N   UNL     1      -5.817   3.148 -32.544  1.00  0.00    -0.184 NA
HETATM    6  C   UNL     1      -6.214   2.113 -31.871  1.00  0.00     0.153 C 
BRANCH   6   7
HETATM    7  C   UNL     1      -6.878   1.004 -32.534  1.00  0.00     0.018 A 
HETATM    8  C   UNL     1      -8.242   0.812 -32.709  1.00  0.00     0.018 A 
HETATM    9  C   UNL     1      -9.407   1.643 -32.308  1.00  0.00     0.069 C 
HETATM   10  N   UNL     1      -8.414  -0.373 -33.380  1.00  0.00    -0.358 N 
HETATM   11  H   UNL     1      -9.305  -0.766 -33.645  1.00  0.00     0.166 HD
HETATM   12  C   UNL     1      -7.201  -0.961 -33.650  1.00  0.00     0.043 A 
HETATM   13  C   UNL     1      -6.216  -0.119 -33.138  1.00  0.00     0.004 A 
HETATM   14  C   UNL     1      -6.907  -2.165 -34.304  1.00  0.00     0.030 A 
HETATM   15  C   UNL     1      -4.865  -0.501 -33.289  1.00  0.00     0.014 A 
HETATM   16  C   UNL     1      -4.553  -1.701 -33.936  1.00  0.00     0.001 A 
HETATM   17  C   UNL     1      -5.561  -2.519 -34.436  1.00  0.00     0.002 A 
ENDBRANCH   6   7
ENDBRANCH   1   5
BRANCH   2  18
HETATM   18  C   UNL     1      -4.537   6.367 -31.079  1.00  0.00     0.197 C 
BRANCH  18  19
HETATM   19  N   UNL     1      -3.536   5.557 -30.360  1.00  0.00    -0.282 NA
HETATM   20  H   UNL     1      -3.578   4.572 -30.652  1.00  0.00     0.128 HD
BRANCH  19  21
HETATM   21  C   UNL     1      -2.189   5.953 -30.563  1.00  0.00     0.042 A 
HETATM   22  C   UNL     1      -1.379   5.184 -31.428  1.00  0.00     0.089 A 
HETATM   23  C   UNL     1      -0.045   5.531 -31.652  1.00  0.00     0.038 A 
HETATM   24  C   UNL     1       0.514   6.611 -30.968  1.00  0.00     0.003 A 
HETATM   25  C   UNL     1      -0.257   7.336 -30.061  1.00  0.00     0.002 A 
HETATM   26  C   UNL     1      -1.598   7.002 -29.852  1.00  0.00     0.026 A 
BRANCH  22  27
HETATM   27  O   UNL     1      -2.011   4.151 -32.084  1.00  0.00    -0.354 OA
HETATM   28  C   UNL     1      -2.120   4.337 -33.491  1.00  0.00     0.210 C 
ENDBRANCH  22  27
ENDBRANCH  19  21
ENDBRANCH  18  19
ENDBRANCH   2  18
TORSDOF 6
ENDMDL
MODEL 10
REMARK VINA RESULT:      -7.6      2.204      8.285
REMARK  6 active torsions:
REMARK  status: ('A' for Active; 'I' for Inactive)
REMARK    1  A    between atoms: C_7  and  C_8 
REMARK    2  A    between atoms: N_9  and  N_10 
REMARK       I    between atoms: N_10  and  C_11 
REMARK    3  A    between atoms: C_11  and  C_12 
REMARK    4  A    between atoms: C_12  and  N_13 
REMARK    5  A    between atoms: N_13  and  C_14 
REMARK    6  A    between atoms: C_15  and  O_16 
ROOT
HETATM    1  N   UNL     1      -5.090   2.706 -31.811  1.00  0.00    -0.246 N 
HETATM    2  C   UNL     1      -6.091   2.503 -32.757  1.00  0.00     0.250 C 
HETATM    3  O   UNL     1      -6.025   2.812 -33.946  1.00  0.00    -0.270 OA
HETATM    4  H   UNL     1      -5.155   2.151 -30.958  1.00  0.00     0.192 HD
ENDROOT
BRANCH   1   5
HETATM    5  N   UNL     1      -3.861   3.266 -32.058  1.00  0.00    -0.184 NA
HETATM    6  C   UNL     1      -3.790   4.561 -32.052  1.00  0.00     0.153 C 
BRANCH   6   7
HETATM    7  C   UNL     1      -2.533   5.238 -32.318  1.00  0.00     0.018 A 
HETATM    8  C   UNL     1      -1.921   5.442 -33.548  1.00  0.00     0.018 A 
HETATM    9  C   UNL     1      -2.340   5.067 -34.925  1.00  0.00     0.069 C 
HETATM   10  N   UNL     1      -0.747   6.117 -33.323  1.00  0.00    -0.358 N 
HETATM   11  H   UNL     1      -0.094   6.401 -34.040  1.00  0.00     0.166 HD
HETATM   12  C   UNL     1      -0.573   6.360 -31.982  1.00  0.00     0.043 A 
HETATM   13  C   UNL     1      -1.680   5.827 -31.323  1.00  0.00     0.004 A 
HETATM   14  C   UNL     1       0.472   7.008 -31.310  1.00  0.00     0.030 A 
HETATM   15  C   UNL     1      -1.745   5.948 -29.919  1.00  0.00     0.014 A 
HETATM   16  C   UNL     1      -0.708   6.589 -29.230  1.00  0.00     0.001 A 
HETATM   17  C   UNL     1       0.383   7.110 -29.918  1.00  0.00     0.002 A 
ENDBRANCH   6   7
ENDBRANCH   1   5
BRANCH   2  18
HETATM   18  C   UNL     1      -7.325   1.806 -32.175  1.00  0.00     0.197 C 
BRANCH  18  19
HETATM   19  N   UNL     1      -6.978   0.484 -31.619  1.00  0.00    -0.282 NA
HETATM   20  H   UNL     1      -7.793   0.044 -31.173  1.00  0.00     0.128 HD
BRANCH  19  21
HETATM   21  C   UNL     1      -6.511  -0.460 -32.569  1.00  0.00     0.042 A 
HETATM   22  C   UNL     1      -5.166  -0.886 -32.495  1.00  0.00     0.089 A 
HETATM   23  C   UNL     1      -4.659  -1.808 -33.413  1.00  0.00     0.038 A 
HETATM   24  C   UNL     1      -5.469  -2.267 -34.452  1.00  0.00     0.003 A 
HETATM   25  C   UNL     1      -6.776  -1.802 -34.575  1.00  0.00     0.002 A 
HETATM   26  C   UNL     1      -7.292  -0.895 -33.644  1.00  0.00     0.026 A 
BRANCH  22  27
HETATM   27  O   UNL     1      -4.441  -0.407 -31.426  1.00  0.00    -0.354 OA
HETATM   28  C   UNL     1      -3.031  -0.422 -31.629  1.00  0.00     0.210 C 
ENDBRANCH  22  27
ENDBRANCH  19  21
ENDBRANCH  18  19
ENDBRANCH   2  18
TORSDOF 6
ENDMDL
