MODEL 1
REMARK VINA RESULT:      -8.9      0.000      0.000
REMARK  6 active torsions:
REMARK  status: ('A' for Active; 'I' for Inactive)
REMARK    1  A    between atoms: C_2  and  C_3 
REMARK    2  A    between atoms: C_3  and  C_4 
REMARK    3  A    between atoms: C_3  and  C_11 
REMARK    4  A    between atoms: C_11  and  C_12 
REMARK       I    between atoms: C_12  and  N_13 
REMARK    5  A    between atoms: N_13  and  C_14 
REMARK    6  A    between atoms: C_21  and  C_22 
REMARK       I    between atoms: C_22  and  N_23 
ROOT
HETATM    1  C   UNL     1      -3.656   3.701 -32.807  1.00  0.00     0.035 A 
HETATM    2  C   UNL     1      -2.544   3.904 -31.976  1.00  0.00     0.046 A 
HETATM    3  C   UNL     1      -1.806   5.105 -32.083  1.00  0.00     0.030 A 
HETATM    4  C   UNL     1      -2.194   6.049 -33.026  1.00  0.00     0.063 A 
HETATM    5  N   UNL     1      -1.304   7.077 -32.898  1.00  0.00    -0.277 N 
HETATM    6  H   UNL     1      -1.280   7.939 -33.433  1.00  0.00     0.189 HD
HETATM    7  N   UNL     1      -0.381   6.899 -31.941  1.00  0.00    -0.168 NA
HETATM    8  C   UNL     1      -0.680   5.685 -31.425  1.00  0.00     0.156 A 
HETATM    9  C   UNL     1      -3.289   5.876 -33.873  1.00  0.00     0.034 A 
HETATM   10  C   UNL     1      -4.015   4.687 -33.736  1.00  0.00     0.032 A 
ENDROOT
BRANCH   1  11
HETATM   11  N   UNL     1      -4.489   2.563 -32.739  1.00  0.00    -0.327 N 
HETATM   12  C   UNL     1      -5.841   2.523 -32.459  1.00  0.00     0.222 C 
HETATM   13  O   UNL     1      -6.529   3.480 -32.113  1.00  0.00    -0.273 OA
HETATM   14  H   UNL     1      -4.013   1.679 -32.844  1.00  0.00     0.169 HD
BRANCH  12  15
HETATM   15  C   UNL     1      -6.510   1.176 -32.726  1.00  0.00     0.112 C 
BRANCH  15  16
HETATM   16  C   UNL     1      -6.283   0.542 -34.111  1.00  0.00     0.027 C 
BRANCH  16  17
HETATM   17  C   UNL     1      -7.545   0.626 -35.002  1.00  0.00     0.005 C 
HETATM   18  C   UNL     1      -8.877   0.757 -34.275  1.00  0.00     0.006 C 
ENDBRANCH  16  17
BRANCH  16  19
HETATM   19  C   UNL     1      -5.709  -0.866 -34.085  1.00  0.00    -0.053 A 
HETATM   20  C   UNL     1      -6.303  -1.935 -34.766  1.00  0.00     0.008 A 
HETATM   21  C   UNL     1      -5.726  -3.209 -34.740  1.00  0.00     0.007 A 
HETATM   22  C   UNL     1      -4.542  -3.441 -34.036  1.00  0.00    -0.062 A 
HETATM   23  C   UNL     1      -3.947  -4.818 -33.990  1.00  0.00     0.048 C 
HETATM   24  C   UNL     1      -3.953  -2.384 -33.338  1.00  0.00     0.007 A 
HETATM   25  C   UNL     1      -4.524  -1.109 -33.370  1.00  0.00     0.008 A 
ENDBRANCH  16  19
ENDBRANCH  15  16
ENDBRANCH  12  15
ENDBRANCH   1  11
BRANCH   8  26
HETATM   26  C   UNL     1       0.104   5.121 -30.316  1.00  0.00     0.270 C 
HETATM   27  N   UNL     1      -0.325   5.508 -29.076  1.00  0.00    -0.365 N 
HETATM   28  H   UNL     1      -1.128   6.122 -29.012  1.00  0.00     0.159 HD
HETATM   29  H   UNL     1       0.139   5.154 -28.255  1.00  0.00     0.159 HD
HETATM   30  O   UNL     1       1.055   4.357 -30.448  1.00  0.00    -0.266 OA
ENDBRANCH   8  26
TORSDOF 6
ENDMDL
MODEL 2
REMARK VINA RESULT:      -8.8      1.328      1.511
REMARK  6 active torsions:
REMARK  status: ('A' for Active; 'I' for Inactive)
REMARK    1  A    between atoms: C_2  and  C_3 
REMARK    2  A    between atoms: C_3  and  C_4 
REMARK    3  A    between atoms: C_3  and  C_11 
REMARK    4  A    between atoms: C_11  and  C_12 
REMARK       I    between atoms: C_12  and  N_13 
REMARK    5  A    between atoms: N_13  and  C_14 
REMARK    6  A    between atoms: C_21  and  C_22 
REMARK       I    between atoms: C_22  and  N_23 
ROOT
HETATM    1  C   UNL     1      -2.775   3.695 -32.397  1.00  0.00     0.035 A 
HETATM    2  C   UNL     1      -1.871   3.997 -31.369  1.00  0.00     0.046 A 
HETATM    3  C   UNL     1      -1.086   5.170 -31.455  1.00  0.00     0.030 A 
HETATM    4  C   UNL     1      -1.219   5.985 -32.572  1.00  0.00     0.063 A 
HETATM    5  N   UNL     1      -0.345   7.016 -32.376  1.00  0.00    -0.277 N 
HETATM    6  H   UNL     1      -0.172   7.800 -32.995  1.00  0.00     0.189 HD
HETATM    7  N   UNL     1       0.335   6.958 -31.220  1.00  0.00    -0.168 NA
HETATM    8  C   UNL     1      -0.115   5.823 -30.637  1.00  0.00     0.156 A 
HETATM    9  C   UNL     1      -2.103   5.711 -33.616  1.00  0.00     0.034 A 
HETATM   10  C   UNL     1      -2.883   4.554 -33.499  1.00  0.00     0.032 A 
ENDROOT
BRANCH   1  11
HETATM   11  N   UNL     1      -3.642   2.580 -32.377  1.00  0.00    -0.327 N 
HETATM   12  C   UNL     1      -4.622   2.291 -31.448  1.00  0.00     0.222 C 
HETATM   13  O   UNL     1      -4.832   2.914 -30.411  1.00  0.00    -0.273 OA
HETATM   14  H   UNL     1      -3.467   1.891 -33.093  1.00  0.00     0.169 HD
BRANCH  12  15
HETATM   15  C   UNL     1      -5.568   1.160 -31.847  1.00  0.00     0.112 C 
BRANCH  15  16
HETATM   16  C   UNL     1      -5.786   0.926 -33.354  1.00  0.00     0.027 C 
BRANCH  16  17
HETATM   17  C   UNL     1      -7.011   1.704 -33.892  1.00  0.00     0.005 C 
HETATM   18  C   UNL     1      -6.887   3.222 -33.921  1.00  0.00     0.006 C 
ENDBRANCH  16  17
BRANCH  16  19
HETATM   19  C   UNL     1      -5.818  -0.534 -33.778  1.00  0.00    -0.053 A 
HETATM   20  C   UNL     1      -6.988  -1.165 -34.219  1.00  0.00     0.008 A 
HETATM   21  C   UNL     1      -6.969  -2.502 -34.627  1.00  0.00     0.007 A 
HETATM   22  C   UNL     1      -5.780  -3.237 -34.608  1.00  0.00    -0.062 A 
HETATM   23  C   UNL     1      -5.776  -4.679 -35.021  1.00  0.00     0.048 C 
HETATM   24  C   UNL     1      -4.612  -2.620 -34.153  1.00  0.00     0.007 A 
HETATM   25  C   UNL     1      -4.629  -1.281 -33.752  1.00  0.00     0.008 A 
ENDBRANCH  16  19
ENDBRANCH  15  16
ENDBRANCH  12  15
ENDBRANCH   1  11
BRANCH   8  26
HETATM   26  C   UNL     1       0.381   5.403 -29.318  1.00  0.00     0.270 C 
HETATM   27  N   UNL     1       1.170   4.286 -29.349  1.00  0.00    -0.365 N 
HETATM   28  H   UNL     1       1.360   3.852 -30.244  1.00  0.00     0.159 HD
HETATM   29  H   UNL     1       1.573   3.936 -28.495  1.00  0.00     0.159 HD
HETATM   30  O   UNL     1       0.142   5.981 -28.263  1.00  0.00    -0.266 OA
ENDBRANCH   8  26
TORSDOF 6
ENDMDL
MODEL 3
REMARK VINA RESULT:      -8.3      5.724      9.174
REMARK  6 active torsions:
REMARK  status: ('A' for Active; 'I' for Inactive)
REMARK    1  A    between atoms: C_2  and  C_3 
REMARK    2  A    between atoms: C_3  and  C_4 
REMARK    3  A    between atoms: C_3  and  C_11 
REMARK    4  A    between atoms: C_11  and  C_12 
REMARK       I    between atoms: C_12  and  N_13 
REMARK    5  A    between atoms: N_13  and  C_14 
REMARK    6  A    between atoms: C_21  and  C_22 
REMARK       I    between atoms: C_22  and  N_23 
ROOT
HETATM    1  C   UNL     1     -11.856   1.637 -33.933  1.00  0.00     0.035 A 
HETATM    2  C   UNL     1     -12.365   2.588 -33.038  1.00  0.00     0.046 A 
HETATM    3  C   UNL     1     -13.754   2.624 -32.775  1.00  0.00     0.030 A 
HETATM    4  C   UNL     1     -14.583   1.723 -33.432  1.00  0.00     0.063 A 
HETATM    5  N   UNL     1     -15.845   2.000 -32.987  1.00  0.00    -0.277 N 
HETATM    6  H   UNL     1     -16.707   1.540 -33.258  1.00  0.00     0.189 HD
HETATM    7  N   UNL     1     -15.912   2.990 -32.084  1.00  0.00    -0.168 NA
HETATM    8  C   UNL     1     -14.626   3.385 -31.939  1.00  0.00     0.156 A 
HETATM    9  C   UNL     1     -14.112   0.769 -34.334  1.00  0.00     0.034 A 
HETATM   10  C   UNL     1     -12.732   0.741 -34.563  1.00  0.00     0.032 A 
ENDROOT
BRANCH   1  11
HETATM   11  N   UNL     1     -10.482   1.484 -34.219  1.00  0.00    -0.327 N 
HETATM   12  C   UNL     1      -9.590   0.610 -33.628  1.00  0.00     0.222 C 
HETATM   13  O   UNL     1      -9.830  -0.117 -32.666  1.00  0.00    -0.273 OA
HETATM   14  H   UNL     1     -10.109   2.142 -34.886  1.00  0.00     0.169 HD
BRANCH  12  15
HETATM   15  C   UNL     1      -8.243   0.494 -34.337  1.00  0.00     0.112 C 
BRANCH  15  16
HETATM   16  C   UNL     1      -7.000   0.283 -33.453  1.00  0.00     0.027 C 
BRANCH  16  17
HETATM   17  C   UNL     1      -6.067   1.518 -33.458  1.00  0.00     0.005 C 
HETATM   18  C   UNL     1      -6.580   2.747 -34.198  1.00  0.00     0.006 C 
ENDBRANCH  16  17
BRANCH  16  19
HETATM   19  C   UNL     1      -6.231  -1.000 -33.722  1.00  0.00    -0.053 A 
HETATM   20  C   UNL     1      -4.932  -1.216 -33.246  1.00  0.00     0.008 A 
HETATM   21  C   UNL     1      -4.270  -2.423 -33.492  1.00  0.00     0.007 A 
HETATM   22  C   UNL     1      -4.894  -3.443 -34.216  1.00  0.00    -0.062 A 
HETATM   23  C   UNL     1      -4.164  -4.722 -34.499  1.00  0.00     0.048 C 
HETATM   24  C   UNL     1      -6.182  -3.230 -34.711  1.00  0.00     0.007 A 
HETATM   25  C   UNL     1      -6.847  -2.026 -34.458  1.00  0.00     0.008 A 
ENDBRANCH  16  19
ENDBRANCH  15  16
ENDBRANCH  12  15
ENDBRANCH   1  11
BRANCH   8  26
HETATM   26  C   UNL     1     -14.265   4.460 -31.004  1.00  0.00     0.270 C 
HETATM   27  N   UNL     1     -14.961   5.622 -31.194  1.00  0.00    -0.365 N 
HETATM   28  H   UNL     1     -15.658   5.654 -31.928  1.00  0.00     0.159 HD
HETATM   29  H   UNL     1     -14.796   6.407 -30.585  1.00  0.00     0.159 HD
HETATM   30  O   UNL     1     -13.430   4.361 -30.111  1.00  0.00    -0.266 OA
ENDBRANCH   8  26
TORSDOF 6
ENDMDL
MODEL 4
REMARK VINA RESULT:      -8.0      3.494      7.620
REMARK  6 active torsions:
REMARK  status: ('A' for Active; 'I' for Inactive)
REMARK    1  A    between atoms: C_2  and  C_3 
REMARK    2  A    between atoms: C_3  and  C_4 
REMARK    3  A    between atoms: C_3  and  C_11 
REMARK    4  A    between atoms: C_11  and  C_12 
REMARK       I    between atoms: C_12  and  N_13 
REMARK    5  A    between atoms: N_13  and  C_14 
REMARK    6  A    between atoms: C_21  and  C_22 
REMARK       I    between atoms: C_22  and  N_23 
ROOT
HETATM    1  C   UNL     1      -4.845   0.488 -32.824  1.00  0.00     0.035 A 
HETATM    2  C   UNL     1      -4.927  -0.767 -33.446  1.00  0.00     0.046 A 
HETATM    3  C   UNL     1      -4.147  -1.839 -32.956  1.00  0.00     0.030 A 
HETATM    4  C   UNL     1      -3.301  -1.614 -31.877  1.00  0.00     0.063 A 
HETATM    5  N   UNL     1      -2.688  -2.811 -31.641  1.00  0.00    -0.277 N 
HETATM    6  H   UNL     1      -1.998  -3.018 -30.926  1.00  0.00     0.189 HD
HETATM    7  N   UNL     1      -3.071  -3.805 -32.457  1.00  0.00    -0.168 NA
HETATM    8  C   UNL     1      -3.977  -3.220 -33.275  1.00  0.00     0.156 A 
HETATM    9  C   UNL     1      -3.189  -0.378 -31.240  1.00  0.00     0.034 A 
HETATM   10  C   UNL     1      -3.984   0.663 -31.731  1.00  0.00     0.032 A 
ENDROOT
BRANCH   1  11
HETATM   11  N   UNL     1      -5.622   1.604 -33.203  1.00  0.00    -0.327 N 
HETATM   12  C   UNL     1      -6.773   2.073 -32.599  1.00  0.00     0.222 C 
HETATM   13  O   UNL     1      -7.376   1.523 -31.682  1.00  0.00    -0.273 OA
HETATM   14  H   UNL     1      -5.328   2.061 -34.052  1.00  0.00     0.169 HD
BRANCH  12  15
HETATM   15  C   UNL     1      -7.227   3.451 -33.075  1.00  0.00     0.112 C 
BRANCH  15  16
HETATM   16  C   UNL     1      -6.420   4.666 -32.581  1.00  0.00     0.027 C 
BRANCH  16  17
HETATM   17  C   UNL     1      -7.236   5.979 -32.661  1.00  0.00     0.005 C 
HETATM   18  C   UNL     1      -6.647   7.184 -31.940  1.00  0.00     0.006 C 
ENDBRANCH  16  17
BRANCH  16  19
HETATM   19  C   UNL     1      -5.045   4.822 -33.213  1.00  0.00    -0.053 A 
HETATM   20  C   UNL     1      -4.866   5.048 -34.583  1.00  0.00     0.008 A 
HETATM   21  C   UNL     1      -3.585   5.215 -35.119  1.00  0.00     0.007 A 
HETATM   22  C   UNL     1      -2.456   5.161 -34.298  1.00  0.00    -0.062 A 
HETATM   23  C   UNL     1      -1.085   5.312 -34.888  1.00  0.00     0.048 C 
HETATM   24  C   UNL     1      -2.624   4.918 -32.933  1.00  0.00     0.007 A 
HETATM   25  C   UNL     1      -3.905   4.760 -32.395  1.00  0.00     0.008 A 
ENDBRANCH  16  19
ENDBRANCH  15  16
ENDBRANCH  12  15
ENDBRANCH   1  11
BRANCH   8  26
HETATM   26  C   UNL     1      -4.661  -3.993 -34.322  1.00  0.00     0.270 C 
HETATM   27  N   UNL     1      -4.497  -5.347 -34.213  1.00  0.00    -0.365 N 
HETATM   28  H   UNL     1      -3.949  -5.707 -33.441  1.00  0.00     0.159 HD
HETATM   29  H   UNL     1      -4.948  -5.958 -34.874  1.00  0.00     0.159 HD
HETATM   30  O   UNL     1      -5.338  -3.507 -35.222  1.00  0.00    -0.266 OA
ENDBRANCH   8  26
TORSDOF 6
ENDMDL
MODEL 5
REMARK VINA RESULT:      -7.9      3.391      7.328
REMARK  6 active torsions:
REMARK  status: ('A' for Active; 'I' for Inactive)
REMARK    1  A    between atoms: C_2  and  C_3 
REMARK    2  A    between atoms: C_3  and  C_4 
REMARK    3  A    between atoms: C_3  and  C_11 
REMARK    4  A    between atoms: C_11  and  C_12 
REMARK       I    between atoms: C_12  and  N_13 
REMARK    5  A    between atoms: N_13  and  C_14 
REMARK    6  A    between atoms: C_21  and  C_22 
REMARK       I    between atoms: C_22  and  N_23 
ROOT
HETATM    1  C   UNL     1      -6.337   0.591 -33.860  1.00  0.00     0.035 A 
HETATM    2  C   UNL     1      -5.304  -0.063 -33.173  1.00  0.00     0.046 A 
HETATM    3  C   UNL     1      -5.002  -1.407 -33.487  1.00  0.00     0.030 A 
HETATM    4  C   UNL     1      -5.754  -2.053 -34.461  1.00  0.00     0.063 A 
HETATM    5  N   UNL     1      -5.241  -3.317 -34.537  1.00  0.00    -0.277 N 
HETATM    6  H   UNL     1      -5.550  -4.070 -35.142  1.00  0.00     0.189 HD
HETATM    7  N   UNL     1      -4.207  -3.549 -33.713  1.00  0.00    -0.168 NA
HETATM    8  C   UNL     1      -4.044  -2.376 -33.059  1.00  0.00     0.156 A 
HETATM    9  C   UNL     1      -6.793  -1.436 -35.158  1.00  0.00     0.034 A 
HETATM   10  C   UNL     1      -7.061  -0.099 -34.842  1.00  0.00     0.032 A 
ENDROOT
BRANCH   1  11
HETATM   11  N   UNL     1      -6.679   1.947 -33.659  1.00  0.00    -0.327 N 
HETATM   12  C   UNL     1      -7.288   2.507 -32.553  1.00  0.00     0.222 C 
HETATM   13  O   UNL     1      -7.735   1.888 -31.591  1.00  0.00    -0.273 OA
HETATM   14  H   UNL     1      -6.513   2.551 -34.449  1.00  0.00     0.169 HD
BRANCH  12  15
HETATM   15  C   UNL     1      -7.279   4.034 -32.522  1.00  0.00     0.112 C 
BRANCH  15  16
HETATM   16  C   UNL     1      -6.091   4.715 -31.817  1.00  0.00     0.027 C 
BRANCH  16  17
HETATM   17  C   UNL     1      -6.494   6.059 -31.165  1.00  0.00     0.005 C 
HETATM   18  C   UNL     1      -6.823   7.199 -32.120  1.00  0.00     0.006 C 
ENDBRANCH  16  17
BRANCH  16  19
HETATM   19  C   UNL     1      -4.838   4.858 -32.667  1.00  0.00    -0.053 A 
HETATM   20  C   UNL     1      -4.884   5.127 -34.040  1.00  0.00     0.008 A 
HETATM   21  C   UNL     1      -3.707   5.280 -34.780  1.00  0.00     0.007 A 
HETATM   22  C   UNL     1      -2.458   5.171 -34.162  1.00  0.00    -0.062 A 
HETATM   23  C   UNL     1      -1.202   5.308 -34.970  1.00  0.00     0.048 C 
HETATM   24  C   UNL     1      -2.402   4.885 -32.797  1.00  0.00     0.007 A 
HETATM   25  C   UNL     1      -3.578   4.739 -32.055  1.00  0.00     0.008 A 
ENDBRANCH  16  19
ENDBRANCH  15  16
ENDBRANCH  12  15
ENDBRANCH   1  11
BRANCH   8  26
HETATM   26  C   UNL     1      -2.979  -2.208 -32.061  1.00  0.00     0.270 C 
HETATM   27  N   UNL     1      -2.633  -3.363 -31.414  1.00  0.00    -0.365 N 
HETATM   28  H   UNL     1      -3.108  -4.221 -31.669  1.00  0.00     0.159 HD
HETATM   29  H   UNL     1      -1.896  -3.349 -30.728  1.00  0.00     0.159 HD
HETATM   30  O   UNL     1      -2.415  -1.148 -31.809  1.00  0.00    -0.266 OA
ENDBRANCH   8  26
TORSDOF 6
ENDMDL
MODEL 6
REMARK VINA RESULT:      -7.9      2.007      2.462
REMARK  6 active torsions:
REMARK  status: ('A' for Active; 'I' for Inactive)
REMARK    1  A    between atoms: C_2  and  C_3 
REMARK    2  A    between atoms: C_3  and  C_4 
REMARK    3  A    between atoms: C_3  and  C_11 
REMARK    4  A    between atoms: C_11  and  C_12 
REMARK       I    between atoms: C_12  and  N_13 
REMARK    5  A    between atoms: N_13  and  C_14 
REMARK    6  A    between atoms: C_21  and  C_22 
REMARK       I    between atoms: C_22  and  N_23 
ROOT
HETATM    1  C   UNL     1      -4.105   3.345 -31.909  1.00  0.00     0.035 A 
HETATM    2  C   UNL     1      -4.315   4.387 -30.993  1.00  0.00     0.046 A 
HETATM    3  C   UNL     1      -3.423   5.483 -30.970  1.00  0.00     0.030 A 
HETATM    4  C   UNL     1      -2.346   5.489 -31.848  1.00  0.00     0.063 A 
HETATM    5  N   UNL     1      -1.674   6.650 -31.591  1.00  0.00    -0.277 N 
HETATM    6  H   UNL     1      -0.830   6.985 -32.043  1.00  0.00     0.189 HD
HETATM    7  N   UNL     1      -2.227   7.414 -30.636  1.00  0.00    -0.168 NA
HETATM    8  C   UNL     1      -3.312   6.707 -30.244  1.00  0.00     0.156 A 
HETATM    9  C   UNL     1      -2.103   4.467 -32.766  1.00  0.00     0.034 A 
HETATM   10  C   UNL     1      -3.010   3.401 -32.783  1.00  0.00     0.032 A 
ENDROOT
BRANCH   1  11
HETATM   11  N   UNL     1      -4.969   2.236 -32.047  1.00  0.00    -0.327 N 
HETATM   12  C   UNL     1      -6.274   2.236 -32.500  1.00  0.00     0.222 C 
HETATM   13  O   UNL     1      -6.942   3.234 -32.760  1.00  0.00    -0.273 OA
HETATM   14  H   UNL     1      -4.598   1.362 -31.710  1.00  0.00     0.169 HD
BRANCH  12  15
HETATM   15  C   UNL     1      -6.850   0.852 -32.790  1.00  0.00     0.112 C 
BRANCH  15  16
HETATM   16  C   UNL     1      -6.610   0.273 -34.197  1.00  0.00     0.027 C 
BRANCH  16  17
HETATM   17  C   UNL     1      -7.869   0.379 -35.091  1.00  0.00     0.005 C 
HETATM   18  C   UNL     1      -9.160   0.789 -34.393  1.00  0.00     0.006 C 
ENDBRANCH  16  17
BRANCH  16  19
HETATM   19  C   UNL     1      -6.022  -1.128 -34.223  1.00  0.00    -0.053 A 
HETATM   20  C   UNL     1      -4.752  -1.422 -33.711  1.00  0.00     0.008 A 
HETATM   21  C   UNL     1      -4.259  -2.731 -33.728  1.00  0.00     0.007 A 
HETATM   22  C   UNL     1      -5.025  -3.775 -34.253  1.00  0.00    -0.062 A 
HETATM   23  C   UNL     1      -4.475  -5.170 -34.292  1.00  0.00     0.048 C 
HETATM   24  C   UNL     1      -6.286  -3.488 -34.782  1.00  0.00     0.007 A 
HETATM   25  C   UNL     1      -6.782  -2.181 -34.758  1.00  0.00     0.008 A 
ENDBRANCH  16  19
ENDBRANCH  15  16
ENDBRANCH  12  15
ENDBRANCH   1  11
BRANCH   8  26
HETATM   26  C   UNL     1      -4.215   7.222 -29.205  1.00  0.00     0.270 C 
HETATM   27  N   UNL     1      -4.717   8.467 -29.468  1.00  0.00    -0.365 N 
HETATM   28  H   UNL     1      -4.452   8.923 -30.333  1.00  0.00     0.159 HD
HETATM   29  H   UNL     1      -5.362   8.892 -28.821  1.00  0.00     0.159 HD
HETATM   30  O   UNL     1      -4.526   6.616 -28.185  1.00  0.00    -0.266 OA
ENDBRANCH   8  26
TORSDOF 6
ENDMDL
MODEL 7
REMARK VINA RESULT:      -7.9      4.199      8.164
REMARK  6 active torsions:
REMARK  status: ('A' for Active; 'I' for Inactive)
REMARK    1  A    between atoms: C_2  and  C_3 
REMARK    2  A    between atoms: C_3  and  C_4 
REMARK    3  A    between atoms: C_3  and  C_11 
REMARK    4  A    between atoms: C_11  and  C_12 
REMARK       I    between atoms: C_12  and  N_13 
REMARK    5  A    between atoms: N_13  and  C_14 
REMARK    6  A    between atoms: C_21  and  C_22 
REMARK       I    between atoms: C_22  and  N_23 
ROOT
HETATM    1  C   UNL     1      -9.357   2.682 -33.120  1.00  0.00     0.035 A 
HETATM    2  C   UNL     1     -10.418   1.766 -33.128  1.00  0.00     0.046 A 
HETATM    3  C   UNL     1     -11.483   1.942 -34.041  1.00  0.00     0.030 A 
HETATM    4  C   UNL     1     -11.456   3.035 -34.899  1.00  0.00     0.063 A 
HETATM    5  N   UNL     1     -12.598   2.941 -35.642  1.00  0.00    -0.277 N 
HETATM    6  H   UNL     1     -12.912   3.575 -36.369  1.00  0.00     0.189 HD
HETATM    7  N   UNL     1     -13.360   1.873 -35.362  1.00  0.00    -0.168 NA
HETATM    8  C   UNL     1     -12.681   1.242 -34.375  1.00  0.00     0.156 A 
HETATM    9  C   UNL     1     -10.420   3.969 -34.912  1.00  0.00     0.034 A 
HETATM   10  C   UNL     1      -9.369   3.764 -34.012  1.00  0.00     0.032 A 
ENDROOT
BRANCH   1  11
HETATM   11  N   UNL     1      -8.223   2.563 -32.286  1.00  0.00    -0.327 N 
HETATM   12  C   UNL     1      -7.849   1.473 -31.524  1.00  0.00     0.222 C 
HETATM   13  O   UNL     1      -8.509   0.450 -31.363  1.00  0.00    -0.273 OA
HETATM   14  H   UNL     1      -7.670   3.401 -32.195  1.00  0.00     0.169 HD
BRANCH  12  15
HETATM   15  C   UNL     1      -6.437   1.553 -30.945  1.00  0.00     0.112 C 
BRANCH  15  16
HETATM   16  C   UNL     1      -5.266   1.335 -31.921  1.00  0.00     0.027 C 
BRANCH  16  17
HETATM   17  C   UNL     1      -4.956   2.605 -32.750  1.00  0.00     0.005 C 
HETATM   18  C   UNL     1      -3.581   3.228 -32.541  1.00  0.00     0.006 C 
ENDBRANCH  16  17
BRANCH  16  19
HETATM   19  C   UNL     1      -5.388   0.105 -32.806  1.00  0.00    -0.053 A 
HETATM   20  C   UNL     1      -6.216   0.067 -33.934  1.00  0.00     0.008 A 
HETATM   21  C   UNL     1      -6.278  -1.076 -34.739  1.00  0.00     0.007 A 
HETATM   22  C   UNL     1      -5.511  -2.204 -34.434  1.00  0.00    -0.062 A 
HETATM   23  C   UNL     1      -5.607  -3.434 -35.287  1.00  0.00     0.048 C 
HETATM   24  C   UNL     1      -4.696  -2.181 -33.301  1.00  0.00     0.007 A 
HETATM   25  C   UNL     1      -4.628  -1.037 -32.501  1.00  0.00     0.008 A 
ENDBRANCH  16  19
ENDBRANCH  15  16
ENDBRANCH  12  15
ENDBRANCH   1  11
BRANCH   8  26
HETATM   26  C   UNL     1     -13.185  -0.010 -33.791  1.00  0.00     0.270 C 
HETATM   27  N   UNL     1     -14.528  -0.205 -33.965  1.00  0.00    -0.365 N 
HETATM   28  H   UNL     1     -15.057   0.492 -34.475  1.00  0.00     0.159 HD
HETATM   29  H   UNL     1     -14.958  -1.047 -33.617  1.00  0.00     0.159 HD
HETATM   30  O   UNL     1     -12.495  -0.837 -33.205  1.00  0.00    -0.266 OA
ENDBRANCH   8  26
TORSDOF 6
ENDMDL
MODEL 8
REMARK VINA RESULT:      -7.8      3.149      9.103
REMARK  6 active torsions:
REMARK  status: ('A' for Active; 'I' for Inactive)
REMARK    1  A    between atoms: C_2  and  C_3 
REMARK    2  A    between atoms: C_3  and  C_4 
REMARK    3  A    between atoms: C_3  and  C_11 
REMARK    4  A    between atoms: C_11  and  C_12 
REMARK       I    between atoms: C_12  and  N_13 
REMARK    5  A    between atoms: N_13  and  C_14 
REMARK    6  A    between atoms: C_21  and  C_22 
REMARK       I    between atoms: C_22  and  N_23 
ROOT
HETATM    1  C   UNL     1      -5.141   2.719 -31.314  1.00  0.00     0.035 A 
HETATM    2  C   UNL     1      -5.759   1.838 -32.213  1.00  0.00     0.046 A 
HETATM    3  C   UNL     1      -7.108   1.467 -32.008  1.00  0.00     0.030 A 
HETATM    4  C   UNL     1      -7.781   1.974 -30.904  1.00  0.00     0.063 A 
HETATM    5  N   UNL     1      -9.038   1.443 -30.969  1.00  0.00    -0.277 N 
HETATM    6  H   UNL     1      -9.803   1.593 -30.320  1.00  0.00     0.189 HD
HETATM    7  N   UNL     1      -9.253   0.648 -32.029  1.00  0.00    -0.168 NA
HETATM    8  C   UNL     1      -8.068   0.656 -32.684  1.00  0.00     0.156 A 
HETATM    9  C   UNL     1      -7.195   2.846 -29.986  1.00  0.00     0.034 A 
HETATM   10  C   UNL     1      -5.865   3.213 -30.221  1.00  0.00     0.032 A 
ENDROOT
BRANCH   1  11
HETATM   11  N   UNL     1      -3.818   3.192 -31.463  1.00  0.00    -0.327 N 
HETATM   12  C   UNL     1      -3.414   4.462 -31.824  1.00  0.00     0.222 C 
HETATM   13  O   UNL     1      -4.153   5.375 -32.183  1.00  0.00    -0.273 OA
HETATM   14  H   UNL     1      -3.100   2.492 -31.355  1.00  0.00     0.169 HD
BRANCH  12  15
HETATM   15  C   UNL     1      -1.923   4.736 -31.635  1.00  0.00     0.112 C 
BRANCH  15  16
HETATM   16  C   UNL     1      -1.486   6.210 -31.544  1.00  0.00     0.027 C 
BRANCH  16  17
HETATM   17  C   UNL     1      -0.746   6.677 -32.820  1.00  0.00     0.005 C 
HETATM   18  C   UNL     1      -1.533   6.599 -34.122  1.00  0.00     0.006 C 
ENDBRANCH  16  17
BRANCH  16  19
HETATM   19  C   UNL     1      -0.715   6.573 -30.284  1.00  0.00    -0.053 A 
HETATM   20  C   UNL     1      -0.738   7.858 -29.730  1.00  0.00     0.008 A 
HETATM   21  C   UNL     1      -0.037   8.144 -28.554  1.00  0.00     0.007 A 
HETATM   22  C   UNL     1       0.700   7.149 -27.905  1.00  0.00    -0.062 A 
HETATM   23  C   UNL     1       1.472   7.473 -26.660  1.00  0.00     0.048 C 
HETATM   24  C   UNL     1       0.744   5.869 -28.461  1.00  0.00     0.007 A 
HETATM   25  C   UNL     1       0.037   5.581 -29.632  1.00  0.00     0.008 A 
ENDBRANCH  16  19
ENDBRANCH  15  16
ENDBRANCH  12  15
ENDBRANCH   1  11
BRANCH   8  26
HETATM   26  C   UNL     1      -7.891  -0.096 -33.935  1.00  0.00     0.270 C 
HETATM   27  N   UNL     1      -8.311   0.574 -35.052  1.00  0.00    -0.365 N 
HETATM   28  H   UNL     1      -8.687   1.508 -34.944  1.00  0.00     0.159 HD
HETATM   29  H   UNL     1      -8.208   0.145 -35.958  1.00  0.00     0.159 HD
HETATM   30  O   UNL     1      -7.403  -1.218 -34.015  1.00  0.00    -0.266 OA
ENDBRANCH   8  26
TORSDOF 6
ENDMDL
MODEL 9
REMARK VINA RESULT:      -7.6      5.049      8.422
REMARK  6 active torsions:
REMARK  status: ('A' for Active; 'I' for Inactive)
REMARK    1  A    between atoms: C_2  and  C_3 
REMARK    2  A    between atoms: C_3  and  C_4 
REMARK    3  A    between atoms: C_3  and  C_11 
REMARK    4  A    between atoms: C_11  and  C_12 
REMARK       I    between atoms: C_12  and  N_13 
REMARK    5  A    between atoms: N_13  and  C_14 
REMARK    6  A    between atoms: C_21  and  C_22 
REMARK       I    between atoms: C_22  and  N_23 
ROOT
HETATM    1  C   UNL     1      -9.038   0.522 -33.054  1.00  0.00     0.035 A 
HETATM    2  C   UNL     1     -10.267   0.747 -33.691  1.00  0.00     0.046 A 
HETATM    3  C   UNL     1     -11.082   1.823 -33.270  1.00  0.00     0.030 A 
HETATM    4  C   UNL     1     -10.648   2.620 -32.217  1.00  0.00     0.063 A 
HETATM    5  N   UNL     1     -11.631   3.552 -32.039  1.00  0.00    -0.277 N 
HETATM    6  H   UNL     1     -11.653   4.297 -31.351  1.00  0.00     0.189 HD
HETATM    7  N   UNL     1     -12.660   3.448 -32.894  1.00  0.00    -0.168 NA
HETATM    8  C   UNL     1     -12.334   2.385 -33.665  1.00  0.00     0.156 A 
HETATM    9  C   UNL     1      -9.436   2.419 -31.557  1.00  0.00     0.034 A 
HETATM   10  C   UNL     1      -8.639   1.360 -32.004  1.00  0.00     0.032 A 
ENDROOT
BRANCH   1  11
HETATM   11  N   UNL     1      -8.130  -0.490 -33.437  1.00  0.00    -0.327 N 
HETATM   12  C   UNL     1      -7.296  -0.500 -34.539  1.00  0.00     0.222 C 
HETATM   13  O   UNL     1      -7.286   0.337 -35.438  1.00  0.00    -0.273 OA
HETATM   14  H   UNL     1      -8.153  -1.322 -32.868  1.00  0.00     0.169 HD
BRANCH  12  15
HETATM   15  C   UNL     1      -6.243  -1.606 -34.532  1.00  0.00     0.112 C 
BRANCH  15  16
HETATM   16  C   UNL     1      -4.928  -1.317 -33.784  1.00  0.00     0.027 C 
BRANCH  16  17
HETATM   17  C   UNL     1      -4.297  -2.605 -33.200  1.00  0.00     0.005 C 
HETATM   18  C   UNL     1      -3.198  -2.407 -32.163  1.00  0.00     0.006 C 
ENDBRANCH  16  17
BRANCH  16  19
HETATM   19  C   UNL     1      -5.012  -0.213 -32.742  1.00  0.00    -0.053 A 
HETATM   20  C   UNL     1      -4.648   1.111 -33.015  1.00  0.00     0.008 A 
HETATM   21  C   UNL     1      -4.768   2.103 -32.036  1.00  0.00     0.007 A 
HETATM   22  C   UNL     1      -5.256   1.793 -30.764  1.00  0.00    -0.062 A 
HETATM   23  C   UNL     1      -5.353   2.859 -29.713  1.00  0.00     0.048 C 
HETATM   24  C   UNL     1      -5.604   0.472 -30.477  1.00  0.00     0.007 A 
HETATM   25  C   UNL     1      -5.492  -0.519 -31.457  1.00  0.00     0.008 A 
ENDBRANCH  16  19
ENDBRANCH  15  16
ENDBRANCH  12  15
ENDBRANCH   1  11
BRANCH   8  26
HETATM   26  C   UNL     1     -13.212   1.945 -34.758  1.00  0.00     0.270 C 
HETATM   27  N   UNL     1     -14.471   1.593 -34.355  1.00  0.00    -0.365 N 
HETATM   28  H   UNL     1     -14.704   1.669 -33.372  1.00  0.00     0.159 HD
HETATM   29  H   UNL     1     -15.150   1.299 -35.038  1.00  0.00     0.159 HD
HETATM   30  O   UNL     1     -12.889   1.897 -35.940  1.00  0.00    -0.266 OA
ENDBRANCH   8  26
TORSDOF 6
ENDMDL
MODEL 10
REMARK VINA RESULT:      -7.6      1.543      2.128
REMARK  6 active torsions:
REMARK  status: ('A' for Active; 'I' for Inactive)
REMARK    1  A    between atoms: C_2  and  C_3 
REMARK    2  A    between atoms: C_3  and  C_4 
REMARK    3  A    between atoms: C_3  and  C_11 
REMARK    4  A    between atoms: C_11  and  C_12 
REMARK       I    between atoms: C_12  and  N_13 
REMARK    5  A    between atoms: N_13  and  C_14 
REMARK    6  A    between atoms: C_21  and  C_22 
REMARK       I    between atoms: C_22  and  N_23 
ROOT
HETATM    1  C   UNL     1      -4.648   4.181 -33.747  1.00  0.00     0.035 A 
HETATM    2  C   UNL     1      -3.703   4.342 -32.724  1.00  0.00     0.046 A 
HETATM    3  C   UNL     1      -2.559   5.141 -32.952  1.00  0.00     0.030 A 
HETATM    4  C   UNL     1      -2.394   5.733 -34.198  1.00  0.00     0.063 A 
HETATM    5  N   UNL     1      -1.218   6.424 -34.119  1.00  0.00    -0.277 N 
HETATM    6  H   UNL     1      -0.779   6.975 -34.848  1.00  0.00     0.189 HD
HETATM    7  N   UNL     1      -0.609   6.352 -32.925  1.00  0.00    -0.168 NA
HETATM    8  C   UNL     1      -1.428   5.564 -32.191  1.00  0.00     0.156 A 
HETATM    9  C   UNL     1      -3.310   5.588 -35.240  1.00  0.00     0.034 A 
HETATM   10  C   UNL     1      -4.443   4.808 -34.984  1.00  0.00     0.032 A 
ENDROOT
BRANCH   1  11
HETATM   11  N   UNL     1      -5.848   3.450 -33.599  1.00  0.00    -0.327 N 
HETATM   12  C   UNL     1      -7.140   3.913 -33.753  1.00  0.00     0.222 C 
HETATM   13  O   UNL     1      -7.465   5.082 -33.944  1.00  0.00    -0.273 OA
HETATM   14  H   UNL     1      -5.733   2.501 -33.279  1.00  0.00     0.169 HD
BRANCH  12  15
HETATM   15  C   UNL     1      -8.209   2.822 -33.794  1.00  0.00     0.112 C 
BRANCH  15  16
HETATM   16  C   UNL     1      -8.096   1.690 -32.755  1.00  0.00     0.027 C 
BRANCH  16  17
HETATM   17  C   UNL     1      -7.645   2.215 -31.370  1.00  0.00     0.005 C 
HETATM   18  C   UNL     1      -8.708   2.920 -30.538  1.00  0.00     0.006 C 
ENDBRANCH  16  17
BRANCH  16  19
HETATM   19  C   UNL     1      -7.269   0.494 -33.197  1.00  0.00    -0.053 A 
HETATM   20  C   UNL     1      -7.522  -0.200 -34.387  1.00  0.00     0.008 A 
HETATM   21  C   UNL     1      -6.719  -1.278 -34.771  1.00  0.00     0.007 A 
HETATM   22  C   UNL     1      -5.642  -1.684 -33.978  1.00  0.00    -0.062 A 
HETATM   23  C   UNL     1      -4.805  -2.860 -34.385  1.00  0.00     0.048 C 
HETATM   24  C   UNL     1      -5.393  -1.009 -32.781  1.00  0.00     0.007 A 
HETATM   25  C   UNL     1      -6.191   0.074 -32.400  1.00  0.00     0.008 A 
ENDBRANCH  16  19
ENDBRANCH  15  16
ENDBRANCH  12  15
ENDBRANCH   1  11
BRANCH   8  26
HETATM   26  C   UNL     1      -1.119   5.250 -30.789  1.00  0.00     0.270 C 
HETATM   27  N   UNL     1      -1.837   5.980 -29.882  1.00  0.00    -0.365 N 
HETATM   28  H   UNL     1      -2.515   6.650 -30.227  1.00  0.00     0.159 HD
HETATM   29  H   UNL     1      -1.707   5.818 -28.896  1.00  0.00     0.159 HD
HETATM   30  O   UNL     1      -0.306   4.408 -30.422  1.00  0.00    -0.266 OA
ENDBRANCH   8  26
TORSDOF 6
ENDMDL
