MODEL 1
REMARK VINA RESULT:      -8.8      0.000      0.000
REMARK  3 active torsions:
REMARK  status: ('A' for Active; 'I' for Inactive)
REMARK    1  A    between atoms: C_4  and  N_5 
REMARK       I    between atoms: N_5  and  C_6 
REMARK    2  A    between atoms: C_6  and  C_7 
REMARK    3  A    between atoms: C_7  and  C_8 
ROOT
HETATM    1  C   UNL     1      -3.843   2.736 -32.005  1.00  0.00     0.286 C 
HETATM    2  N   UNL     1      -2.824   3.418 -31.099  1.00  0.00    -0.056 N 
HETATM    3  H   UNL     1      -3.295   3.494 -30.171  1.00  0.00     0.278 HD
HETATM    4  H   UNL     1      -2.003   2.820 -30.947  1.00  0.00     0.278 HD
HETATM    5  C   UNL     1      -2.423   4.804 -31.522  1.00  0.00     0.209 C 
HETATM    6  C   UNL     1      -3.691   5.667 -31.744  1.00  0.00     0.115 C 
HETATM    7  N   UNL     1      -4.699   5.001 -32.566  1.00  0.00    -0.353 N 
HETATM    8  C   UNL     1      -4.994   3.665 -32.445  1.00  0.00     0.249 C 
HETATM    9  O   UNL     1      -6.092   3.248 -32.793  1.00  0.00    -0.271 OA
HETATM   10  C   UNL     1      -1.510   4.733 -32.747  1.00  0.00     0.035 C 
HETATM   11  C   UNL     1      -1.169   6.128 -33.261  1.00  0.00     0.002 C 
HETATM   12  C   UNL     1      -2.430   6.934 -33.558  1.00  0.00     0.002 C 
HETATM   13  C   UNL     1      -3.332   7.038 -32.329  1.00  0.00     0.027 C 
HETATM   14  H   UNL     1      -5.519   5.545 -32.834  1.00  0.00     0.163 HD
ENDROOT
BRANCH   1  15
HETATM   15  C   UNL     1      -4.381   1.431 -31.396  1.00  0.00     0.146 C 
BRANCH  15  16
HETATM   16  C   UNL     1      -3.417   0.288 -31.570  1.00  0.00     0.224 C 
HETATM   17  N   UNL     1      -3.617  -0.712 -32.468  1.00  0.00    -0.327 N 
HETATM   18  H   UNL     1      -2.816  -1.338 -32.504  1.00  0.00     0.169 HD
HETATM   19  O   UNL     1      -2.341   0.323 -30.954  1.00  0.00    -0.273 OA
BRANCH  17  20
HETATM   20  C   UNL     1      -4.660  -1.056 -33.354  1.00  0.00     0.035 A 
HETATM   21  C   UNL     1      -5.617  -0.185 -33.872  1.00  0.00     0.036 A 
HETATM   22  C   UNL     1      -6.634  -0.649 -34.726  1.00  0.00    -0.059 A 
HETATM   23  C   UNL     1      -7.706   0.290 -35.204  1.00  0.00     0.048 C 
HETATM   24  C   UNL     1      -6.689  -2.003 -35.064  1.00  0.00     0.013 A 
HETATM   25  C   UNL     1      -5.729  -2.892 -34.576  1.00  0.00    -0.059 A 
HETATM   26  C   UNL     1      -4.737  -2.413 -33.709  1.00  0.00     0.036 A 
HETATM   27  C   UNL     1      -5.801  -4.351 -34.918  1.00  0.00     0.048 C 
ENDBRANCH  17  20
ENDBRANCH  15  16
ENDBRANCH   1  15
TORSDOF 3
ENDMDL
MODEL 2
REMARK VINA RESULT:      -8.7      4.393      6.955
REMARK  3 active torsions:
REMARK  status: ('A' for Active; 'I' for Inactive)
REMARK    1  A    between atoms: C_4  and  N_5 
REMARK       I    between atoms: N_5  and  C_6 
REMARK    2  A    between atoms: C_6  and  C_7 
REMARK    3  A    between atoms: C_7  and  C_8 
ROOT
HETATM    1  C   UNL     1      -9.455   0.980 -32.463  1.00  0.00     0.286 C 
HETATM    2  N   UNL     1      -9.938   0.891 -33.906  1.00  0.00    -0.056 N 
HETATM    3  H   UNL     1      -9.332   1.555 -34.435  1.00  0.00     0.278 HD
HETATM    4  H   UNL     1      -9.750  -0.036 -34.305  1.00  0.00     0.278 HD
HETATM    5  C   UNL     1     -11.367   1.304 -34.126  1.00  0.00     0.209 C 
HETATM    6  C   UNL     1     -11.605   2.704 -33.505  1.00  0.00     0.115 C 
HETATM    7  N   UNL     1     -11.096   2.818 -32.139  1.00  0.00    -0.353 N 
HETATM    8  C   UNL     1      -9.901   2.269 -31.743  1.00  0.00     0.249 C 
HETATM    9  O   UNL     1      -9.304   2.737 -30.780  1.00  0.00    -0.271 OA
HETATM   10  C   UNL     1     -12.311   0.228 -33.585  1.00  0.00     0.035 C 
HETATM   11  C   UNL     1     -13.768   0.665 -33.703  1.00  0.00     0.002 C 
HETATM   12  C   UNL     1     -14.003   2.003 -33.009  1.00  0.00     0.002 C 
HETATM   13  C   UNL     1     -13.086   3.092 -33.566  1.00  0.00     0.027 C 
HETATM   14  H   UNL     1     -11.301   3.679 -31.633  1.00  0.00     0.163 HD
ENDROOT
BRANCH   1  15
HETATM   15  C   UNL     1      -7.936   0.771 -32.345  1.00  0.00     0.146 C 
BRANCH  15  16
HETATM   16  C   UNL     1      -7.198   1.306 -33.544  1.00  0.00     0.224 C 
HETATM   17  N   UNL     1      -6.364   0.540 -34.294  1.00  0.00    -0.327 N 
HETATM   18  H   UNL     1      -6.034   1.049 -35.110  1.00  0.00     0.169 HD
HETATM   19  O   UNL     1      -7.454   2.456 -33.931  1.00  0.00    -0.273 OA
BRANCH  17  20
HETATM   20  C   UNL     1      -5.878  -0.781 -34.201  1.00  0.00     0.035 A 
HETATM   21  C   UNL     1      -6.374  -1.888 -34.889  1.00  0.00     0.036 A 
HETATM   22  C   UNL     1      -5.828  -3.170 -34.692  1.00  0.00    -0.059 A 
HETATM   23  C   UNL     1      -6.435  -4.362 -35.377  1.00  0.00     0.048 C 
HETATM   24  C   UNL     1      -4.770  -3.340 -33.796  1.00  0.00     0.013 A 
HETATM   25  C   UNL     1      -4.241  -2.245 -33.112  1.00  0.00    -0.059 A 
HETATM   26  C   UNL     1      -4.814  -0.980 -33.305  1.00  0.00     0.036 A 
HETATM   27  C   UNL     1      -3.121  -2.430 -32.130  1.00  0.00     0.048 C 
ENDBRANCH  17  20
ENDBRANCH  15  16
ENDBRANCH   1  15
TORSDOF 3
ENDMDL
MODEL 3
REMARK VINA RESULT:      -8.5      4.297      6.997
REMARK  3 active torsions:
REMARK  status: ('A' for Active; 'I' for Inactive)
REMARK    1  A    between atoms: C_4  and  N_5 
REMARK       I    between atoms: N_5  and  C_6 
REMARK    2  A    between atoms: C_6  and  C_7 
REMARK    3  A    between atoms: C_7  and  C_8 
ROOT
HETATM    1  C   UNL     1      -9.472   1.241 -32.463  1.00  0.00     0.286 C 
HETATM    2  N   UNL     1      -9.946   1.084 -33.904  1.00  0.00    -0.056 N 
HETATM    3  H   UNL     1      -9.403   1.791 -34.446  1.00  0.00     0.278 HD
HETATM    4  H   UNL     1      -9.673   0.171 -34.287  1.00  0.00     0.278 HD
HETATM    5  C   UNL     1     -11.407   1.360 -34.128  1.00  0.00     0.209 C 
HETATM    6  C   UNL     1     -11.772   2.742 -33.531  1.00  0.00     0.115 C 
HETATM    7  N   UNL     1     -11.276   2.926 -32.168  1.00  0.00    -0.353 N 
HETATM    8  C   UNL     1     -10.035   2.496 -31.764  1.00  0.00     0.249 C 
HETATM    9  O   UNL     1      -9.483   3.033 -30.811  1.00  0.00    -0.271 OA
HETATM   10  C   UNL     1     -12.247   0.211 -33.568  1.00  0.00     0.035 C 
HETATM   11  C   UNL     1     -13.738   0.510 -33.690  1.00  0.00     0.002 C 
HETATM   12  C   UNL     1     -14.095   1.833 -33.018  1.00  0.00     0.002 C 
HETATM   13  C   UNL     1     -13.283   2.992 -33.596  1.00  0.00     0.027 C 
HETATM   14  H   UNL     1     -11.559   3.773 -31.677  1.00  0.00     0.163 HD
ENDROOT
BRANCH   1  15
HETATM   15  C   UNL     1      -7.941   1.175 -32.344  1.00  0.00     0.146 C 
BRANCH  15  16
HETATM   16  C   UNL     1      -7.257   1.591 -33.620  1.00  0.00     0.224 C 
HETATM   17  N   UNL     1      -6.362   0.799 -34.265  1.00  0.00    -0.327 N 
HETATM   18  H   UNL     1      -6.081   1.210 -35.152  1.00  0.00     0.169 HD
HETATM   19  O   UNL     1      -7.614   2.646 -34.165  1.00  0.00    -0.273 OA
BRANCH  17  20
HETATM   20  C   UNL     1      -5.762  -0.448 -33.991  1.00  0.00     0.035 A 
HETATM   21  C   UNL     1      -4.728  -0.681 -33.085  1.00  0.00     0.036 A 
HETATM   22  C   UNL     1      -4.185  -1.967 -32.917  1.00  0.00    -0.059 A 
HETATM   23  C   UNL     1      -3.014  -2.178 -32.000  1.00  0.00     0.048 C 
HETATM   24  C   UNL     1      -4.689  -3.034 -33.666  1.00  0.00     0.013 A 
HETATM   25  C   UNL     1      -5.739  -2.832 -34.563  1.00  0.00    -0.059 A 
HETATM   26  C   UNL     1      -6.251  -1.537 -34.732  1.00  0.00     0.036 A 
HETATM   27  C   UNL     1      -6.265  -3.971 -35.387  1.00  0.00     0.048 C 
ENDBRANCH  17  20
ENDBRANCH  15  16
ENDBRANCH   1  15
TORSDOF 3
ENDMDL
MODEL 4
REMARK VINA RESULT:      -8.5      4.534      8.988
REMARK  3 active torsions:
REMARK  status: ('A' for Active; 'I' for Inactive)
REMARK    1  A    between atoms: C_4  and  N_5 
REMARK       I    between atoms: N_5  and  C_6 
REMARK    2  A    between atoms: C_6  and  C_7 
REMARK    3  A    between atoms: C_7  and  C_8 
ROOT
HETATM    1  C   UNL     1      -1.266   6.231 -31.863  1.00  0.00     0.286 C 
HETATM    2  N   UNL     1      -1.161   4.831 -32.456  1.00  0.00    -0.056 N 
HETATM    3  H   UNL     1      -0.307   4.853 -33.054  1.00  0.00     0.278 HD
HETATM    4  H   UNL     1      -0.972   4.132 -31.727  1.00  0.00     0.278 HD
HETATM    5  C   UNL     1      -2.317   4.419 -33.326  1.00  0.00     0.209 C 
HETATM    6  C   UNL     1      -2.567   5.502 -34.404  1.00  0.00     0.115 C 
HETATM    7  N   UNL     1      -2.615   6.856 -33.855  1.00  0.00    -0.353 N 
HETATM    8  C   UNL     1      -1.761   7.290 -32.871  1.00  0.00     0.249 C 
HETATM    9  O   UNL     1      -1.520   8.486 -32.754  1.00  0.00    -0.271 OA
HETATM   10  C   UNL     1      -3.543   4.124 -32.459  1.00  0.00     0.035 C 
HETATM   11  C   UNL     1      -4.760   3.802 -33.321  1.00  0.00     0.002 C 
HETATM   12  C   UNL     1      -5.045   4.921 -34.318  1.00  0.00     0.002 C 
HETATM   13  C   UNL     1      -3.835   5.199 -35.210  1.00  0.00     0.027 C 
HETATM   14  H   UNL     1      -2.870   7.611 -34.491  1.00  0.00     0.163 HD
ENDROOT
BRANCH   1  15
HETATM   15  C   UNL     1       0.040   6.675 -31.184  1.00  0.00     0.146 C 
BRANCH  15  16
HETATM   16  C   UNL     1       0.660   5.566 -30.375  1.00  0.00     0.224 C 
HETATM   17  N   UNL     1       0.672   5.566 -29.017  1.00  0.00    -0.327 N 
HETATM   18  H   UNL     1       1.049   4.695 -28.653  1.00  0.00     0.169 HD
HETATM   19  O   UNL     1       1.069   4.558 -30.970  1.00  0.00    -0.273 OA
BRANCH  17  20
HETATM   20  C   UNL     1       0.271   6.482 -28.022  1.00  0.00     0.035 A 
HETATM   21  C   UNL     1      -1.043   6.814 -27.693  1.00  0.00     0.036 A 
HETATM   22  C   UNL     1      -1.324   7.769 -26.699  1.00  0.00    -0.059 A 
HETATM   23  C   UNL     1      -2.744   8.174 -26.421  1.00  0.00     0.048 C 
HETATM   24  C   UNL     1      -0.272   8.397 -26.026  1.00  0.00     0.013 A 
HETATM   25  C   UNL     1       1.051   8.067 -26.322  1.00  0.00    -0.059 A 
HETATM   26  C   UNL     1       1.310   7.128 -27.331  1.00  0.00     0.036 A 
HETATM   27  C   UNL     1       2.182   8.759 -25.618  1.00  0.00     0.048 C 
ENDBRANCH  17  20
ENDBRANCH  15  16
ENDBRANCH   1  15
TORSDOF 3
ENDMDL
MODEL 5
REMARK VINA RESULT:      -8.4      0.768      1.949
REMARK  3 active torsions:
REMARK  status: ('A' for Active; 'I' for Inactive)
REMARK    1  A    between atoms: C_4  and  N_5 
REMARK       I    between atoms: N_5  and  C_6 
REMARK    2  A    between atoms: C_6  and  C_7 
REMARK    3  A    between atoms: C_7  and  C_8 
ROOT
HETATM    1  C   UNL     1      -3.654   3.306 -32.433  1.00  0.00     0.286 C 
HETATM    2  N   UNL     1      -3.066   3.882 -31.150  1.00  0.00    -0.056 N 
HETATM    3  H   UNL     1      -3.875   3.968 -30.496  1.00  0.00     0.278 HD
HETATM    4  H   UNL     1      -2.420   3.218 -30.707  1.00  0.00     0.278 HD
HETATM    5  C   UNL     1      -2.445   5.244 -31.289  1.00  0.00     0.209 C 
HETATM    6  C   UNL     1      -3.452   6.208 -31.965  1.00  0.00     0.115 C 
HETATM    7  N   UNL     1      -4.064   5.645 -33.167  1.00  0.00    -0.353 N 
HETATM    8  C   UNL     1      -4.461   4.333 -33.255  1.00  0.00     0.249 C 
HETATM    9  O   UNL     1      -5.338   4.012 -34.048  1.00  0.00    -0.271 OA
HETATM   10  C   UNL     1      -1.111   5.136 -32.031  1.00  0.00     0.035 C 
HETATM   11  C   UNL     1      -0.505   6.514 -32.277  1.00  0.00     0.002 C 
HETATM   12  C   UNL     1      -1.478   7.423 -33.022  1.00  0.00     0.002 C 
HETATM   13  C   UNL     1      -2.802   7.562 -32.271  1.00  0.00     0.027 C 
HETATM   14  H   UNL     1      -4.665   6.258 -33.717  1.00  0.00     0.163 HD
ENDROOT
BRANCH   1  15
HETATM   15  C   UNL     1      -4.473   2.031 -32.176  1.00  0.00     0.146 C 
BRANCH  15  16
HETATM   16  C   UNL     1      -3.594   0.854 -31.840  1.00  0.00     0.224 C 
HETATM   17  N   UNL     1      -3.775  -0.376 -32.386  1.00  0.00    -0.327 N 
HETATM   18  H   UNL     1      -3.031  -1.012 -32.110  1.00  0.00     0.169 HD
HETATM   19  O   UNL     1      -2.596   1.046 -31.130  1.00  0.00    -0.273 OA
BRANCH  17  20
HETATM   20  C   UNL     1      -4.736  -0.950 -33.245  1.00  0.00     0.035 A 
HETATM   21  C   UNL     1      -4.788  -2.284 -33.646  1.00  0.00     0.036 A 
HETATM   22  C   UNL     1      -5.779  -2.738 -34.535  1.00  0.00    -0.059 A 
HETATM   23  C   UNL     1      -5.763  -4.159 -35.021  1.00  0.00     0.048 C 
HETATM   24  C   UNL     1      -6.731  -1.840 -35.025  1.00  0.00     0.013 A 
HETATM   25  C   UNL     1      -6.714  -0.504 -34.623  1.00  0.00    -0.059 A 
HETATM   26  C   UNL     1      -5.705  -0.067 -33.753  1.00  0.00     0.036 A 
HETATM   27  C   UNL     1      -7.721   0.467 -35.168  1.00  0.00     0.048 C 
ENDBRANCH  17  20
ENDBRANCH  15  16
ENDBRANCH   1  15
TORSDOF 3
ENDMDL
MODEL 6
REMARK VINA RESULT:      -8.3      2.037      3.250
REMARK  3 active torsions:
REMARK  status: ('A' for Active; 'I' for Inactive)
REMARK    1  A    between atoms: C_4  and  N_5 
REMARK       I    between atoms: N_5  and  C_6 
REMARK    2  A    between atoms: C_6  and  C_7 
REMARK    3  A    between atoms: C_7  and  C_8 
ROOT
HETATM    1  C   UNL     1      -4.007   4.428 -33.296  1.00  0.00     0.286 C 
HETATM    2  N   UNL     1      -4.046   4.933 -31.858  1.00  0.00    -0.056 N 
HETATM    3  H   UNL     1      -4.906   5.521 -31.801  1.00  0.00     0.278 HD
HETATM    4  H   UNL     1      -4.193   4.161 -31.197  1.00  0.00     0.278 HD
HETATM    5  C   UNL     1      -2.879   5.791 -31.452  1.00  0.00     0.209 C 
HETATM    6  C   UNL     1      -2.694   6.936 -32.478  1.00  0.00     0.115 C 
HETATM    7  N   UNL     1      -2.710   6.472 -33.864  1.00  0.00    -0.353 N 
HETATM    8  C   UNL     1      -3.575   5.505 -34.314  1.00  0.00     0.249 C 
HETATM    9  O   UNL     1      -3.875   5.458 -35.501  1.00  0.00    -0.271 OA
HETATM   10  C   UNL     1      -1.632   4.923 -31.273  1.00  0.00     0.035 C 
HETATM   11  C   UNL     1      -0.408   5.779 -30.959  1.00  0.00     0.002 C 
HETATM   12  C   UNL     1      -0.189   6.846 -32.027  1.00  0.00     0.002 C 
HETATM   13  C   UNL     1      -1.420   7.738 -32.189  1.00  0.00     0.027 C 
HETATM   14  H   UNL     1      -2.499   7.155 -34.590  1.00  0.00     0.163 HD
ENDROOT
BRANCH   1  15
HETATM   15  C   UNL     1      -5.327   3.761 -33.715  1.00  0.00     0.146 C 
BRANCH  15  16
HETATM   16  C   UNL     1      -6.187   3.419 -32.527  1.00  0.00     0.224 C 
HETATM   17  N   UNL     1      -6.219   2.177 -31.977  1.00  0.00    -0.327 N 
HETATM   18  H   UNL     1      -6.783   2.165 -31.131  1.00  0.00     0.169 HD
HETATM   19  O   UNL     1      -6.799   4.334 -31.957  1.00  0.00    -0.273 OA
BRANCH  17  20
HETATM   20  C   UNL     1      -5.640   0.933 -32.303  1.00  0.00     0.035 A 
HETATM   21  C   UNL     1      -4.408   0.457 -31.855  1.00  0.00     0.036 A 
HETATM   22  C   UNL     1      -3.916  -0.793 -32.273  1.00  0.00    -0.059 A 
HETATM   23  C   UNL     1      -2.549  -1.247 -31.847  1.00  0.00     0.048 C 
HETATM   24  C   UNL     1      -4.672  -1.574 -33.151  1.00  0.00     0.013 A 
HETATM   25  C   UNL     1      -5.917  -1.130 -33.598  1.00  0.00    -0.059 A 
HETATM   26  C   UNL     1      -6.380   0.128 -33.186  1.00  0.00     0.036 A 
HETATM   27  C   UNL     1      -6.718  -1.957 -34.561  1.00  0.00     0.048 C 
ENDBRANCH  17  20
ENDBRANCH  15  16
ENDBRANCH   1  15
TORSDOF 3
ENDMDL
MODEL 7
REMARK VINA RESULT:      -8.2      1.923      2.887
REMARK  3 active torsions:
REMARK  status: ('A' for Active; 'I' for Inactive)
REMARK    1  A    between atoms: C_4  and  N_5 
REMARK       I    between atoms: N_5  and  C_6 
REMARK    2  A    between atoms: C_6  and  C_7 
REMARK    3  A    between atoms: C_7  and  C_8 
ROOT
HETATM    1  C   UNL     1      -4.658   3.918 -32.315  1.00  0.00     0.286 C 
HETATM    2  N   UNL     1      -3.400   3.324 -32.939  1.00  0.00    -0.056 N 
HETATM    3  H   UNL     1      -3.169   2.497 -32.347  1.00  0.00     0.278 HD
HETATM    4  H   UNL     1      -3.591   2.950 -33.876  1.00  0.00     0.278 HD
HETATM    5  C   UNL     1      -2.201   4.231 -32.942  1.00  0.00     0.209 C 
HETATM    6  C   UNL     1      -1.955   4.772 -31.511  1.00  0.00     0.115 C 
HETATM    7  N   UNL     1      -3.166   5.295 -30.881  1.00  0.00    -0.353 N 
HETATM    8  C   UNL     1      -4.390   4.685 -31.004  1.00  0.00     0.249 C 
HETATM    9  O   UNL     1      -5.249   4.862 -30.147  1.00  0.00    -0.271 OA
HETATM   10  C   UNL     1      -2.382   5.332 -33.989  1.00  0.00     0.035 C 
HETATM   11  C   UNL     1      -1.227   6.328 -33.945  1.00  0.00     0.002 C 
HETATM   12  C   UNL     1      -1.055   6.918 -32.549  1.00  0.00     0.002 C 
HETATM   13  C   UNL     1      -0.841   5.825 -31.501  1.00  0.00     0.027 C 
HETATM   14  H   UNL     1      -3.063   5.755 -29.977  1.00  0.00     0.163 HD
ENDROOT
BRANCH   1  15
HETATM   15  C   UNL     1      -5.767   2.869 -32.133  1.00  0.00     0.146 C 
BRANCH  15  16
HETATM   16  C   UNL     1      -6.493   2.585 -33.421  1.00  0.00     0.224 C 
HETATM   17  N   UNL     1      -6.467   1.369 -34.025  1.00  0.00    -0.327 N 
HETATM   18  H   UNL     1      -7.089   1.345 -34.830  1.00  0.00     0.169 HD
HETATM   19  O   UNL     1      -7.238   3.460 -33.885  1.00  0.00    -0.273 OA
BRANCH  17  20
HETATM   20  C   UNL     1      -5.796   0.152 -33.778  1.00  0.00     0.035 A 
HETATM   21  C   UNL     1      -4.683  -0.020 -32.956  1.00  0.00     0.036 A 
HETATM   22  C   UNL     1      -4.076  -1.280 -32.810  1.00  0.00    -0.059 A 
HETATM   23  C   UNL     1      -2.827  -1.425 -31.988  1.00  0.00     0.048 C 
HETATM   24  C   UNL     1      -4.595  -2.381 -33.496  1.00  0.00     0.013 A 
HETATM   25  C   UNL     1      -5.721  -2.240 -34.308  1.00  0.00    -0.059 A 
HETATM   26  C   UNL     1      -6.298  -0.971 -34.457  1.00  0.00     0.036 A 
HETATM   27  C   UNL     1      -6.265  -3.417 -35.065  1.00  0.00     0.048 C 
ENDBRANCH  17  20
ENDBRANCH  15  16
ENDBRANCH   1  15
TORSDOF 3
ENDMDL
MODEL 8
REMARK VINA RESULT:      -8.1      2.096      2.905
REMARK  3 active torsions:
REMARK  status: ('A' for Active; 'I' for Inactive)
REMARK    1  A    between atoms: C_4  and  N_5 
REMARK       I    between atoms: N_5  and  C_6 
REMARK    2  A    between atoms: C_6  and  C_7 
REMARK    3  A    between atoms: C_7  and  C_8 
ROOT
HETATM    1  C   UNL     1      -5.671   3.236 -33.676  1.00  0.00     0.286 C 
HETATM    2  N   UNL     1      -4.920   2.786 -32.428  1.00  0.00    -0.056 N 
HETATM    3  H   UNL     1      -5.659   2.642 -31.705  1.00  0.00     0.278 HD
HETATM    4  H   UNL     1      -4.485   1.866 -32.567  1.00  0.00     0.278 HD
HETATM    5  C   UNL     1      -3.936   3.783 -31.881  1.00  0.00     0.209 C 
HETATM    6  C   UNL     1      -4.635   5.152 -31.692  1.00  0.00     0.115 C 
HETATM    7  N   UNL     1      -5.404   5.570 -32.863  1.00  0.00    -0.353 N 
HETATM    8  C   UNL     1      -6.162   4.697 -33.604  1.00  0.00     0.249 C 
HETATM    9  O   UNL     1      -7.107   5.116 -34.262  1.00  0.00    -0.271 OA
HETATM   10  C   UNL     1      -2.702   3.846 -32.783  1.00  0.00     0.035 C 
HETATM   11  C   UNL     1      -1.730   4.923 -32.311  1.00  0.00     0.002 C 
HETATM   12  C   UNL     1      -2.414   6.284 -32.215  1.00  0.00     0.002 C 
HETATM   13  C   UNL     1      -3.629   6.237 -31.289  1.00  0.00     0.027 C 
HETATM   14  H   UNL     1      -5.812   6.504 -32.847  1.00  0.00     0.163 HD
ENDROOT
BRANCH   1  15
HETATM   15  C   UNL     1      -6.817   2.279 -34.042  1.00  0.00     0.146 C 
BRANCH  15  16
HETATM   16  C   UNL     1      -7.448   1.662 -32.822  1.00  0.00     0.224 C 
HETATM   17  N   UNL     1      -7.149   0.408 -32.395  1.00  0.00    -0.327 N 
HETATM   18  H   UNL     1      -7.602   0.204 -31.508  1.00  0.00     0.169 HD
HETATM   19  O   UNL     1      -8.179   2.369 -32.113  1.00  0.00    -0.273 OA
BRANCH  17  20
HETATM   20  C   UNL     1      -6.351  -0.645 -32.892  1.00  0.00     0.035 A 
HETATM   21  C   UNL     1      -6.715  -1.551 -33.887  1.00  0.00     0.036 A 
HETATM   22  C   UNL     1      -5.845  -2.585 -34.281  1.00  0.00    -0.059 A 
HETATM   23  C   UNL     1      -6.292  -3.602 -35.293  1.00  0.00     0.048 C 
HETATM   24  C   UNL     1      -4.596  -2.708 -33.668  1.00  0.00     0.013 A 
HETATM   25  C   UNL     1      -4.199  -1.801 -32.685  1.00  0.00    -0.059 A 
HETATM   26  C   UNL     1      -5.089  -0.791 -32.291  1.00  0.00     0.036 A 
HETATM   27  C   UNL     1      -2.867  -1.946 -32.008  1.00  0.00     0.048 C 
ENDBRANCH  17  20
ENDBRANCH  15  16
ENDBRANCH   1  15
TORSDOF 3
ENDMDL
MODEL 9
REMARK VINA RESULT:      -8.0      2.210      7.848
REMARK  3 active torsions:
REMARK  status: ('A' for Active; 'I' for Inactive)
REMARK    1  A    between atoms: C_4  and  N_5 
REMARK       I    between atoms: N_5  and  C_6 
REMARK    2  A    between atoms: C_6  and  C_7 
REMARK    3  A    between atoms: C_7  and  C_8 
ROOT
HETATM    1  C   UNL     1      -5.174   3.508 -33.613  1.00  0.00     0.286 C 
HETATM    2  N   UNL     1      -6.669   3.214 -33.558  1.00  0.00    -0.056 N 
HETATM    3  H   UNL     1      -7.007   3.693 -32.695  1.00  0.00     0.278 HD
HETATM    4  H   UNL     1      -7.165   3.663 -34.337  1.00  0.00     0.278 HD
HETATM    5  C   UNL     1      -7.028   1.759 -33.443  1.00  0.00     0.209 C 
HETATM    6  C   UNL     1      -6.254   1.124 -32.261  1.00  0.00     0.115 C 
HETATM    7  N   UNL     1      -4.828   1.444 -32.272  1.00  0.00    -0.353 N 
HETATM    8  C   UNL     1      -4.348   2.689 -32.600  1.00  0.00     0.249 C 
HETATM    9  O   UNL     1      -3.254   3.051 -32.183  1.00  0.00    -0.271 OA
HETATM   10  C   UNL     1      -6.786   1.054 -34.780  1.00  0.00     0.035 C 
HETATM   11  C   UNL     1      -7.045  -0.445 -34.666  1.00  0.00     0.002 C 
HETATM   12  C   UNL     1      -6.208  -1.070 -33.554  1.00  0.00     0.002 C 
HETATM   13  C   UNL     1      -6.469  -0.393 -32.208  1.00  0.00     0.027 C 
HETATM   14  H   UNL     1      -4.239   0.984 -31.579  1.00  0.00     0.163 HD
ENDROOT
BRANCH   1  15
HETATM   15  C   UNL     1      -4.872   5.011 -33.494  1.00  0.00     0.146 C 
BRANCH  15  16
HETATM   16  C   UNL     1      -3.892   5.474 -34.539  1.00  0.00     0.224 C 
HETATM   17  N   UNL     1      -2.730   6.105 -34.228  1.00  0.00    -0.327 N 
HETATM   18  H   UNL     1      -2.160   6.255 -35.056  1.00  0.00     0.169 HD
HETATM   19  O   UNL     1      -4.096   5.162 -35.721  1.00  0.00    -0.273 OA
BRANCH  17  20
HETATM   20  C   UNL     1      -2.144   6.572 -33.032  1.00  0.00     0.035 A 
HETATM   21  C   UNL     1      -2.511   7.720 -32.331  1.00  0.00     0.036 A 
HETATM   22  C   UNL     1      -1.831   8.106 -31.162  1.00  0.00    -0.059 A 
HETATM   23  C   UNL     1      -2.187   9.392 -30.472  1.00  0.00     0.048 C 
HETATM   24  C   UNL     1      -0.772   7.327 -30.689  1.00  0.00     0.013 A 
HETATM   25  C   UNL     1      -0.399   6.162 -31.360  1.00  0.00    -0.059 A 
HETATM   26  C   UNL     1      -1.075   5.806 -32.536  1.00  0.00     0.036 A 
HETATM   27  C   UNL     1       0.755   5.338 -30.867  1.00  0.00     0.048 C 
ENDBRANCH  17  20
ENDBRANCH  15  16
ENDBRANCH   1  15
TORSDOF 3
ENDMDL
MODEL 10
REMARK VINA RESULT:      -8.0      1.788      3.424
REMARK  3 active torsions:
REMARK  status: ('A' for Active; 'I' for Inactive)
REMARK    1  A    between atoms: C_4  and  N_5 
REMARK       I    between atoms: N_5  and  C_6 
REMARK    2  A    between atoms: C_6  and  C_7 
REMARK    3  A    between atoms: C_7  and  C_8 
ROOT
HETATM    1  C   UNL     1      -6.278   2.810 -31.903  1.00  0.00     0.286 C 
HETATM    2  N   UNL     1      -5.569   3.249 -33.179  1.00  0.00    -0.056 N 
HETATM    3  H   UNL     1      -5.247   2.364 -33.627  1.00  0.00     0.278 HD
HETATM    4  H   UNL     1      -6.228   3.673 -33.843  1.00  0.00     0.278 HD
HETATM    5  C   UNL     1      -4.361   4.120 -32.970  1.00  0.00     0.209 C 
HETATM    6  C   UNL     1      -3.401   3.444 -31.961  1.00  0.00     0.115 C 
HETATM    7  N   UNL     1      -4.078   2.969 -30.756  1.00  0.00    -0.353 N 
HETATM    8  C   UNL     1      -5.312   2.366 -30.785  1.00  0.00     0.249 C 
HETATM    9  O   UNL     1      -5.641   1.604 -29.882  1.00  0.00    -0.271 OA
HETATM   10  C   UNL     1      -4.798   5.525 -32.551  1.00  0.00     0.035 C 
HETATM   11  C   UNL     1      -3.592   6.404 -32.233  1.00  0.00     0.002 C 
HETATM   12  C   UNL     1      -2.703   5.763 -31.172  1.00  0.00     0.002 C 
HETATM   13  C   UNL     1      -2.235   4.371 -31.598  1.00  0.00     0.027 C 
HETATM   14  H   UNL     1      -3.496   2.599 -30.006  1.00  0.00     0.163 HD
ENDROOT
BRANCH   1  15
HETATM   15  C   UNL     1      -7.351   1.743 -32.171  1.00  0.00     0.146 C 
BRANCH  15  16
HETATM   16  C   UNL     1      -7.759   1.704 -33.620  1.00  0.00     0.224 C 
HETATM   17  N   UNL     1      -7.410   0.691 -34.455  1.00  0.00    -0.327 N 
HETATM   18  H   UNL     1      -7.855   0.795 -35.363  1.00  0.00     0.169 HD
HETATM   19  O   UNL     1      -8.543   2.570 -34.036  1.00  0.00    -0.273 OA
BRANCH  17  20
HETATM   20  C   UNL     1      -6.598  -0.456 -34.336  1.00  0.00     0.035 A 
HETATM   21  C   UNL     1      -6.910  -1.735 -34.798  1.00  0.00     0.036 A 
HETATM   22  C   UNL     1      -6.032  -2.815 -34.594  1.00  0.00    -0.059 A 
HETATM   23  C   UNL     1      -6.428  -4.200 -35.023  1.00  0.00     0.048 C 
HETATM   24  C   UNL     1      -4.826  -2.608 -33.922  1.00  0.00     0.013 A 
HETATM   25  C   UNL     1      -4.479  -1.334 -33.469  1.00  0.00    -0.059 A 
HETATM   26  C   UNL     1      -5.378  -0.275 -33.662  1.00  0.00     0.036 A 
HETATM   27  C   UNL     1      -3.195  -1.115 -32.724  1.00  0.00     0.048 C 
ENDBRANCH  17  20
ENDBRANCH  15  16
ENDBRANCH   1  15
TORSDOF 3
ENDMDL
