MODEL 1
REMARK VINA RESULT:      -9.3      0.000      0.000
REMARK  5 active torsions:
REMARK  status: ('A' for Active; 'I' for Inactive)
REMARK    1  A    between atoms: C_7  and  C_8 
REMARK    2  A    between atoms: C_16  and  C_17 
REMARK    3  A    between atoms: C_20  and  O_21 
REMARK    4  A    between atoms: C_24  and  C_25 
REMARK       I    between atoms: C_25  and  N_26 
REMARK    5  A    between atoms: N_26  and  C_27 
ROOT
HETATM    1  C   UNL     1      -9.905   5.561 -34.394  1.00  0.00     0.070 C 
HETATM    2  C   UNL     1      -8.699   4.864 -33.815  1.00  0.00     0.037 C 
HETATM    3  N   UNL     1      -7.469   5.470 -34.059  1.00  0.00    -0.192 N 
HETATM    4  C   UNL     1      -6.335   5.090 -33.439  1.00  0.00     0.726 A 
HETATM    5  N   UNL     1      -6.325   3.936 -32.707  1.00  0.00    -0.083 N 
HETATM    6  N   UNL     1      -5.185   3.813 -31.999  1.00  0.00    -0.135 NA
HETATM    7  C   UNL     1      -4.490   4.882 -32.430  1.00  0.00     0.199 A 
HETATM    8  N   UNL     1      -5.177   5.682 -33.327  1.00  0.00    -0.041 NA
HETATM    9  C   UNL     1      -7.495   3.067 -32.536  1.00  0.00     0.202 C 
HETATM   10  C   UNL     1      -8.754   3.737 -33.065  1.00  0.00     0.062 C 
HETATM   11  H   UNL     1      -7.479   6.362 -34.547  1.00  0.00     0.184 HD
ENDROOT
BRANCH  10  12
HETATM   12  C   UNL     1     -10.055   3.083 -32.763  1.00  0.00     0.256 C 
HETATM   13  N   UNL     1     -10.602   2.459 -33.864  1.00  0.00    -0.323 N 
HETATM   14  H   UNL     1     -10.096   2.504 -34.739  1.00  0.00     0.169 HD
HETATM   15  O   UNL     1     -10.505   3.124 -31.626  1.00  0.00    -0.267 OA
BRANCH  13  16
HETATM   16  C   UNL     1     -11.796   1.706 -33.912  1.00  0.00     0.035 A 
HETATM   17  C   UNL     1     -13.030   2.221 -34.308  1.00  0.00     0.029 A 
HETATM   18  C   UNL     1     -14.171   1.411 -34.301  1.00  0.00     0.002 A 
HETATM   19  C   UNL     1     -14.083   0.077 -33.911  1.00  0.00     0.000 A 
HETATM   20  C   UNL     1     -12.855  -0.450 -33.522  1.00  0.00     0.002 A 
HETATM   21  C   UNL     1     -11.717   0.363 -33.516  1.00  0.00     0.029 A 
ENDBRANCH  13  16
ENDBRANCH  10  12
BRANCH   9  22
HETATM   22  C   UNL     1      -7.239   1.701 -33.163  1.00  0.00    -0.028 A 
HETATM   23  C   UNL     1      -7.177   1.570 -34.561  1.00  0.00     0.012 A 
HETATM   24  C   UNL     1      -6.931   0.328 -35.153  1.00  0.00     0.037 A 
HETATM   25  C   UNL     1      -6.748  -0.790 -34.348  1.00  0.00     0.065 A 
HETATM   26  C   UNL     1      -6.806  -0.687 -32.964  1.00  0.00     0.037 A 
HETATM   27  C   UNL     1      -7.050   0.554 -32.371  1.00  0.00     0.012 A 
BRANCH  25  28
HETATM   28  O   UNL     1      -6.505  -2.020 -34.883  1.00  0.00    -0.361 OA
HETATM   29  H   UNL     1      -7.312  -2.331 -35.326  1.00  0.00     0.217 HD
ENDBRANCH  25  28
ENDBRANCH   9  22
BRANCH   7  30
HETATM   30  C   UNL     1      -3.155   5.233 -31.949  1.00  0.00     0.016 A 
HETATM   31  C   UNL     1      -2.989   6.039 -30.814  1.00  0.00     0.039 A 
HETATM   32  C   UNL     1      -1.708   6.390 -30.387  1.00  0.00     0.035 A 
HETATM   33 CL   UNL     1      -1.516   7.393 -29.000  1.00  0.00    -0.084 Cl
HETATM   34  C   UNL     1      -0.582   5.943 -31.075  1.00  0.00     0.024 A 
HETATM   35  C   UNL     1      -0.735   5.135 -32.201  1.00  0.00     0.003 A 
HETATM   36  C   UNL     1      -2.016   4.784 -32.635  1.00  0.00     0.015 A 
ENDBRANCH   7  30
TORSDOF 5
ENDMDL
MODEL 2
REMARK VINA RESULT:      -9.1      4.386      9.547
REMARK  5 active torsions:
REMARK  status: ('A' for Active; 'I' for Inactive)
REMARK    1  A    between atoms: C_7  and  C_8 
REMARK    2  A    between atoms: C_16  and  C_17 
REMARK    3  A    between atoms: C_20  and  O_21 
REMARK    4  A    between atoms: C_24  and  C_25 
REMARK       I    between atoms: C_25  and  N_26 
REMARK    5  A    between atoms: N_26  and  C_27 
ROOT
HETATM    1  C   UNL     1      -2.313   7.749 -32.705  1.00  0.00     0.070 C 
HETATM    2  C   UNL     1      -3.230   6.628 -32.281  1.00  0.00     0.037 C 
HETATM    3  N   UNL     1      -3.881   5.950 -33.308  1.00  0.00    -0.192 N 
HETATM    4  C   UNL     1      -4.560   4.804 -33.109  1.00  0.00     0.726 A 
HETATM    5  N   UNL     1      -4.815   4.390 -31.831  1.00  0.00    -0.083 N 
HETATM    6  N   UNL     1      -5.319   3.140 -31.811  1.00  0.00    -0.135 NA
HETATM    7  C   UNL     1      -5.448   2.886 -33.128  1.00  0.00     0.199 A 
HETATM    8  N   UNL     1      -4.992   3.903 -33.949  1.00  0.00    -0.041 NA
HETATM    9  C   UNL     1      -4.381   5.118 -30.635  1.00  0.00     0.202 C 
HETATM   10  C   UNL     1      -3.417   6.238 -30.996  1.00  0.00     0.062 C 
HETATM   11  H   UNL     1      -3.644   6.212 -34.262  1.00  0.00     0.184 HD
ENDROOT
BRANCH  10  12
HETATM   12  C   UNL     1      -2.714   6.924 -29.880  1.00  0.00     0.256 C 
HETATM   13  N   UNL     1      -1.494   6.349 -29.591  1.00  0.00    -0.323 N 
HETATM   14  H   UNL     1      -1.202   5.548 -30.135  1.00  0.00     0.169 HD
HETATM   15  O   UNL     1      -3.226   7.900 -29.349  1.00  0.00    -0.267 OA
BRANCH  13  16
HETATM   16  C   UNL     1      -0.554   6.783 -28.630  1.00  0.00     0.035 A 
HETATM   17  C   UNL     1      -0.503   6.311 -27.319  1.00  0.00     0.029 A 
HETATM   18  C   UNL     1       0.446   6.814 -26.422  1.00  0.00     0.002 A 
HETATM   19  C   UNL     1       1.358   7.782 -26.833  1.00  0.00     0.000 A 
HETATM   20  C   UNL     1       1.321   8.254 -28.141  1.00  0.00     0.002 A 
HETATM   21  C   UNL     1       0.365   7.762 -29.035  1.00  0.00     0.029 A 
ENDBRANCH  13  16
ENDBRANCH  10  12
BRANCH   9  22
HETATM   22  C   UNL     1      -5.588   5.605 -29.840  1.00  0.00    -0.028 A 
HETATM   23  C   UNL     1      -6.453   6.564 -30.396  1.00  0.00     0.012 A 
HETATM   24  C   UNL     1      -7.572   7.013 -29.687  1.00  0.00     0.037 A 
HETATM   25  C   UNL     1      -7.829   6.505 -28.419  1.00  0.00     0.065 A 
HETATM   26  C   UNL     1      -6.988   5.557 -27.849  1.00  0.00     0.037 A 
HETATM   27  C   UNL     1      -5.872   5.106 -28.556  1.00  0.00     0.012 A 
BRANCH  25  28
HETATM   28  O   UNL     1      -8.908   6.914 -27.694  1.00  0.00    -0.361 OA
HETATM   29  H   UNL     1      -8.655   6.958 -26.758  1.00  0.00     0.217 HD
ENDBRANCH  25  28
ENDBRANCH   9  22
BRANCH   7  30
HETATM   30  C   UNL     1      -5.948   1.624 -33.668  1.00  0.00     0.016 A 
HETATM   31  C   UNL     1      -5.263   0.422 -33.439  1.00  0.00     0.039 A 
HETATM   32  C   UNL     1      -5.738  -0.770 -33.988  1.00  0.00     0.035 A 
HETATM   33 CL   UNL     1      -4.881  -2.237 -33.712  1.00  0.00    -0.084 Cl
HETATM   34  C   UNL     1      -6.896  -0.782 -34.764  1.00  0.00     0.024 A 
HETATM   35  C   UNL     1      -7.588   0.405 -34.992  1.00  0.00     0.003 A 
HETATM   36  C   UNL     1      -7.115   1.602 -34.447  1.00  0.00     0.015 A 
ENDBRANCH   7  30
TORSDOF 5
ENDMDL
MODEL 3
REMARK VINA RESULT:      -8.9      4.424      6.798
REMARK  5 active torsions:
REMARK  status: ('A' for Active; 'I' for Inactive)
REMARK    1  A    between atoms: C_7  and  C_8 
REMARK    2  A    between atoms: C_16  and  C_17 
REMARK    3  A    between atoms: C_20  and  O_21 
REMARK    4  A    between atoms: C_24  and  C_25 
REMARK       I    between atoms: C_25  and  N_26 
REMARK    5  A    between atoms: N_26  and  C_27 
ROOT
HETATM    1  C   UNL     1      -7.890   3.602 -29.721  1.00  0.00     0.070 C 
HETATM    2  C   UNL     1      -7.113   2.976 -30.852  1.00  0.00     0.037 C 
HETATM    3  N   UNL     1      -6.537   1.737 -30.585  1.00  0.00    -0.192 N 
HETATM    4  C   UNL     1      -5.998   0.961 -31.545  1.00  0.00     0.726 A 
HETATM    5  N   UNL     1      -5.804   1.479 -32.795  1.00  0.00    -0.083 N 
HETATM    6  N   UNL     1      -5.449   0.521 -33.674  1.00  0.00    -0.135 NA
HETATM    7  C   UNL     1      -5.339  -0.551 -32.867  1.00  0.00     0.199 A 
HETATM    8  N   UNL     1      -5.665  -0.301 -31.544  1.00  0.00    -0.041 NA
HETATM    9  C   UNL     1      -6.161   2.850 -33.175  1.00  0.00     0.202 C 
HETATM   10  C   UNL     1      -6.985   3.522 -32.087  1.00  0.00     0.062 C 
HETATM   11  H   UNL     1      -6.733   1.319 -29.678  1.00  0.00     0.184 HD
ENDROOT
BRANCH  10  12
HETATM   12  C   UNL     1      -7.614   4.830 -32.412  1.00  0.00     0.256 C 
HETATM   13  N   UNL     1      -8.801   4.689 -33.100  1.00  0.00    -0.323 N 
HETATM   14  H   UNL     1      -9.120   3.754 -33.315  1.00  0.00     0.169 HD
HETATM   15  O   UNL     1      -7.078   5.867 -32.048  1.00  0.00    -0.267 OA
BRANCH  13  16
HETATM   16  C   UNL     1      -9.673   5.719 -33.514  1.00  0.00     0.035 A 
HETATM   17  C   UNL     1     -10.382   6.541 -32.638  1.00  0.00     0.029 A 
HETATM   18  C   UNL     1     -11.248   7.523 -33.132  1.00  0.00     0.002 A 
HETATM   19  C   UNL     1     -11.400   7.699 -34.505  1.00  0.00     0.000 A 
HETATM   20  C   UNL     1     -10.691   6.890 -35.388  1.00  0.00     0.002 A 
HETATM   21  C   UNL     1      -9.836   5.900 -34.895  1.00  0.00     0.029 A 
ENDBRANCH  13  16
ENDBRANCH  10  12
BRANCH   9  22
HETATM   22  C   UNL     1      -4.913   3.641 -33.551  1.00  0.00    -0.028 A 
HETATM   23  C   UNL     1      -4.934   4.497 -34.666  1.00  0.00     0.012 A 
HETATM   24  C   UNL     1      -3.803   5.238 -35.019  1.00  0.00     0.037 A 
HETATM   25  C   UNL     1      -2.645   5.125 -34.259  1.00  0.00     0.065 A 
HETATM   26  C   UNL     1      -2.599   4.286 -33.153  1.00  0.00     0.037 A 
HETATM   27  C   UNL     1      -3.728   3.545 -32.798  1.00  0.00     0.012 A 
BRANCH  25  28
HETATM   28  O   UNL     1      -1.519   5.831 -34.567  1.00  0.00    -0.361 OA
HETATM   29  H   UNL     1      -1.736   6.777 -34.563  1.00  0.00     0.217 HD
ENDBRANCH  25  28
ENDBRANCH   9  22
BRANCH   7  30
HETATM   30  C   UNL     1      -4.984  -1.888 -33.335  1.00  0.00     0.016 A 
HETATM   31  C   UNL     1      -5.785  -2.560 -34.269  1.00  0.00     0.039 A 
HETATM   32  C   UNL     1      -5.449  -3.849 -34.682  1.00  0.00     0.035 A 
HETATM   33 CL   UNL     1      -6.448  -4.669 -35.819  1.00  0.00    -0.084 Cl
HETATM   34  C   UNL     1      -4.315  -4.483 -34.177  1.00  0.00     0.024 A 
HETATM   35  C   UNL     1      -3.507  -3.823 -33.253  1.00  0.00     0.003 A 
HETATM   36  C   UNL     1      -3.842  -2.532 -32.834  1.00  0.00     0.015 A 
ENDBRANCH   7  30
TORSDOF 5
ENDMDL
MODEL 4
REMARK VINA RESULT:      -8.8      3.774      6.889
REMARK  5 active torsions:
REMARK  status: ('A' for Active; 'I' for Inactive)
REMARK    1  A    between atoms: C_7  and  C_8 
REMARK    2  A    between atoms: C_16  and  C_17 
REMARK    3  A    between atoms: C_20  and  O_21 
REMARK    4  A    between atoms: C_24  and  C_25 
REMARK       I    between atoms: C_25  and  N_26 
REMARK    5  A    between atoms: N_26  and  C_27 
ROOT
HETATM    1  C   UNL     1      -5.936   4.362 -31.900  1.00  0.00     0.070 C 
HETATM    2  C   UNL     1      -6.616   3.081 -32.315  1.00  0.00     0.037 C 
HETATM    3  N   UNL     1      -5.882   2.243 -33.150  1.00  0.00    -0.192 N 
HETATM    4  C   UNL     1      -6.262   0.982 -33.434  1.00  0.00     0.726 A 
HETATM    5  N   UNL     1      -7.513   0.563 -33.077  1.00  0.00    -0.083 N 
HETATM    6  N   UNL     1      -7.654  -0.767 -33.251  1.00  0.00    -0.135 NA
HETATM    7  C   UNL     1      -6.477  -1.084 -33.823  1.00  0.00     0.199 A 
HETATM    8  N   UNL     1      -5.603  -0.018 -33.954  1.00  0.00    -0.041 NA
HETATM    9  C   UNL     1      -8.489   1.407 -32.380  1.00  0.00     0.202 C 
HETATM   10  C   UNL     1      -7.849   2.699 -31.898  1.00  0.00     0.062 C 
HETATM   11  H   UNL     1      -4.928   2.521 -33.365  1.00  0.00     0.184 HD
ENDROOT
BRANCH  10  12
HETATM   12  C   UNL     1      -8.645   3.559 -30.982  1.00  0.00     0.256 C 
HETATM   13  N   UNL     1      -9.340   4.544 -31.651  1.00  0.00    -0.323 N 
HETATM   14  H   UNL     1      -9.246   4.595 -32.657  1.00  0.00     0.169 HD
HETATM   15  O   UNL     1      -8.644   3.328 -29.781  1.00  0.00    -0.267 OA
BRANCH  13  16
HETATM   16  C   UNL     1     -10.226   5.491 -31.092  1.00  0.00     0.035 A 
HETATM   17  C   UNL     1      -9.818   6.612 -30.370  1.00  0.00     0.029 A 
HETATM   18  C   UNL     1     -10.765   7.487 -29.827  1.00  0.00     0.002 A 
HETATM   19  C   UNL     1     -12.126   7.255 -30.013  1.00  0.00     0.000 A 
HETATM   20  C   UNL     1     -12.543   6.144 -30.740  1.00  0.00     0.002 A 
HETATM   21  C   UNL     1     -11.598   5.262 -31.271  1.00  0.00     0.029 A 
ENDBRANCH  13  16
ENDBRANCH  10  12
BRANCH   9  22
HETATM   22  C   UNL     1      -9.714   1.639 -33.257  1.00  0.00    -0.028 A 
HETATM   23  C   UNL     1     -10.854   0.831 -33.099  1.00  0.00     0.012 A 
HETATM   24  C   UNL     1     -11.991   1.036 -33.886  1.00  0.00     0.037 A 
HETATM   25  C   UNL     1     -11.991   2.051 -34.836  1.00  0.00     0.065 A 
HETATM   26  C   UNL     1     -10.877   2.862 -35.012  1.00  0.00     0.037 A 
HETATM   27  C   UNL     1      -9.742   2.659 -34.225  1.00  0.00     0.012 A 
BRANCH  25  28
HETATM   28  O   UNL     1     -13.079   2.287 -35.625  1.00  0.00    -0.361 OA
HETATM   29  H   UNL     1     -12.863   2.029 -36.536  1.00  0.00     0.217 HD
ENDBRANCH  25  28
ENDBRANCH   9  22
BRANCH   7  30
HETATM   30  C   UNL     1      -6.100  -2.442 -34.209  1.00  0.00     0.016 A 
HETATM   31  C   UNL     1      -4.855  -2.974 -33.845  1.00  0.00     0.039 A 
HETATM   32  C   UNL     1      -4.498  -4.261 -34.249  1.00  0.00     0.035 A 
HETATM   33 CL   UNL     1      -2.961  -4.898 -33.807  1.00  0.00    -0.084 Cl
HETATM   34  C   UNL     1      -5.372  -5.033 -35.011  1.00  0.00     0.024 A 
HETATM   35  C   UNL     1      -6.615  -4.517 -35.373  1.00  0.00     0.003 A 
HETATM   36  C   UNL     1      -6.975  -3.228 -34.974  1.00  0.00     0.015 A 
ENDBRANCH   7  30
TORSDOF 5
ENDMDL
MODEL 5
REMARK VINA RESULT:      -8.8      4.707      7.319
REMARK  5 active torsions:
REMARK  status: ('A' for Active; 'I' for Inactive)
REMARK    1  A    between atoms: C_7  and  C_8 
REMARK    2  A    between atoms: C_16  and  C_17 
REMARK    3  A    between atoms: C_20  and  O_21 
REMARK    4  A    between atoms: C_24  and  C_25 
REMARK       I    between atoms: C_25  and  N_26 
REMARK    5  A    between atoms: N_26  and  C_27 
ROOT
HETATM    1  C   UNL     1      -6.254   4.151 -28.958  1.00  0.00     0.070 C 
HETATM    2  C   UNL     1      -5.950   3.522 -30.295  1.00  0.00     0.037 C 
HETATM    3  N   UNL     1      -5.600   2.175 -30.271  1.00  0.00    -0.192 N 
HETATM    4  C   UNL     1      -5.507   1.426 -31.387  1.00  0.00     0.726 A 
HETATM    5  N   UNL     1      -5.541   2.037 -32.609  1.00  0.00    -0.083 N 
HETATM    6  N   UNL     1      -5.640   1.136 -33.606  1.00  0.00    -0.135 NA
HETATM    7  C   UNL     1      -5.552  -0.023 -32.925  1.00  0.00     0.199 A 
HETATM    8  N   UNL     1      -5.462   0.132 -31.552  1.00  0.00    -0.041 NA
HETATM    9  C   UNL     1      -5.686   3.485 -32.794  1.00  0.00     0.202 C 
HETATM   10  C   UNL     1      -6.036   4.171 -31.483  1.00  0.00     0.062 C 
HETATM   11  H   UNL     1      -5.637   1.702 -29.372  1.00  0.00     0.184 HD
ENDROOT
BRANCH  10  12
HETATM   12  C   UNL     1      -6.436   5.602 -31.544  1.00  0.00     0.256 C 
HETATM   13  N   UNL     1      -7.805   5.768 -31.580  1.00  0.00    -0.323 N 
HETATM   14  H   UNL     1      -8.386   4.940 -31.566  1.00  0.00     0.169 HD
HETATM   15  O   UNL     1      -5.577   6.473 -31.534  1.00  0.00    -0.267 OA
BRANCH  13  16
HETATM   16  C   UNL     1      -8.516   6.988 -31.587  1.00  0.00     0.035 A 
HETATM   17  C   UNL     1      -9.074   7.559 -32.730  1.00  0.00     0.029 A 
HETATM   18  C   UNL     1      -9.741   8.787 -32.655  1.00  0.00     0.002 A 
HETATM   19  C   UNL     1      -9.866   9.445 -31.434  1.00  0.00     0.000 A 
HETATM   20  C   UNL     1      -9.319   8.880 -30.286  1.00  0.00     0.002 A 
HETATM   21  C   UNL     1      -8.641   7.660 -30.363  1.00  0.00     0.029 A 
ENDBRANCH  13  16
ENDBRANCH  10  12
BRANCH   9  22
HETATM   22  C   UNL     1      -4.441   4.064 -33.457  1.00  0.00    -0.028 A 
HETATM   23  C   UNL     1      -4.560   4.807 -34.645  1.00  0.00     0.012 A 
HETATM   24  C   UNL     1      -3.431   5.356 -35.260  1.00  0.00     0.037 A 
HETATM   25  C   UNL     1      -2.178   5.161 -34.691  1.00  0.00     0.065 A 
HETATM   26  C   UNL     1      -2.035   4.430 -33.518  1.00  0.00     0.037 A 
HETATM   27  C   UNL     1      -3.162   3.883 -32.901  1.00  0.00     0.012 A 
BRANCH  25  28
HETATM   28  O   UNL     1      -1.051   5.679 -35.257  1.00  0.00    -0.361 OA
HETATM   29  H   UNL     1      -0.727   6.403 -34.697  1.00  0.00     0.217 HD
ENDBRANCH  25  28
ENDBRANCH   9  22
BRANCH   7  30
HETATM   30  C   UNL     1      -5.623  -1.341 -33.550  1.00  0.00     0.016 A 
HETATM   31  C   UNL     1      -4.543  -2.232 -33.474  1.00  0.00     0.039 A 
HETATM   32  C   UNL     1      -4.616  -3.476 -34.102  1.00  0.00     0.035 A 
HETATM   33 CL   UNL     1      -3.278  -4.556 -34.014  1.00  0.00    -0.084 Cl
HETATM   34  C   UNL     1      -5.759  -3.849 -34.807  1.00  0.00     0.024 A 
HETATM   35  C   UNL     1      -6.840  -2.974 -34.884  1.00  0.00     0.003 A 
HETATM   36  C   UNL     1      -6.772  -1.727 -34.259  1.00  0.00     0.015 A 
ENDBRANCH   7  30
TORSDOF 5
ENDMDL
MODEL 6
REMARK VINA RESULT:      -8.8      3.384      8.445
REMARK  5 active torsions:
REMARK  status: ('A' for Active; 'I' for Inactive)
REMARK    1  A    between atoms: C_7  and  C_8 
REMARK    2  A    between atoms: C_16  and  C_17 
REMARK    3  A    between atoms: C_20  and  O_21 
REMARK    4  A    between atoms: C_24  and  C_25 
REMARK       I    between atoms: C_25  and  N_26 
REMARK    5  A    between atoms: N_26  and  C_27 
ROOT
HETATM    1  C   UNL     1      -5.862   4.539 -29.384  1.00  0.00     0.070 C 
HETATM    2  C   UNL     1      -6.549   3.754 -30.474  1.00  0.00     0.037 C 
HETATM    3  N   UNL     1      -7.880   3.419 -30.239  1.00  0.00    -0.192 N 
HETATM    4  C   UNL     1      -8.682   2.909 -31.194  1.00  0.00     0.726 A 
HETATM    5  N   UNL     1      -8.137   2.496 -32.377  1.00  0.00    -0.083 N 
HETATM    6  N   UNL     1      -9.092   2.207 -33.284  1.00  0.00    -0.135 NA
HETATM    7  C   UNL     1     -10.209   2.362 -32.548  1.00  0.00     0.199 A 
HETATM    8  N   UNL     1      -9.980   2.788 -31.251  1.00  0.00    -0.041 NA
HETATM    9  C   UNL     1      -6.707   2.583 -32.692  1.00  0.00     0.202 C 
HETATM   10  C   UNL     1      -5.966   3.402 -31.646  1.00  0.00     0.062 C 
HETATM   11  H   UNL     1      -8.307   3.779 -29.390  1.00  0.00     0.184 HD
ENDROOT
BRANCH  10  12
HETATM   12  C   UNL     1      -4.555   3.771 -31.938  1.00  0.00     0.256 C 
HETATM   13  N   UNL     1      -4.456   4.820 -32.829  1.00  0.00    -0.323 N 
HETATM   14  H   UNL     1      -5.311   5.222 -33.189  1.00  0.00     0.169 HD
HETATM   15  O   UNL     1      -3.645   3.171 -31.384  1.00  0.00    -0.267 OA
BRANCH  13  16
HETATM   16  C   UNL     1      -3.274   5.448 -33.277  1.00  0.00     0.035 A 
HETATM   17  C   UNL     1      -2.412   4.904 -34.229  1.00  0.00     0.029 A 
HETATM   18  C   UNL     1      -1.245   5.582 -34.598  1.00  0.00     0.002 A 
HETATM   19  C   UNL     1      -0.938   6.815 -34.027  1.00  0.00     0.000 A 
HETATM   20  C   UNL     1      -1.795   7.371 -33.082  1.00  0.00     0.002 A 
HETATM   21  C   UNL     1      -2.954   6.688 -32.703  1.00  0.00     0.029 A 
ENDBRANCH  13  16
ENDBRANCH  10  12
BRANCH   9  22
HETATM   22  C   UNL     1      -6.119   1.189 -32.883  1.00  0.00    -0.028 A 
HETATM   23  C   UNL     1      -5.598   0.490 -31.780  1.00  0.00     0.012 A 
HETATM   24  C   UNL     1      -5.066  -0.794 -31.933  1.00  0.00     0.037 A 
HETATM   25  C   UNL     1      -5.052  -1.383 -33.193  1.00  0.00     0.065 A 
HETATM   26  C   UNL     1      -5.559  -0.712 -34.298  1.00  0.00     0.037 A 
HETATM   27  C   UNL     1      -6.093   0.570 -34.146  1.00  0.00     0.012 A 
BRANCH  25  28
HETATM   28  O   UNL     1      -4.543  -2.633 -33.387  1.00  0.00    -0.361 OA
HETATM   29  H   UNL     1      -3.626  -2.550 -33.696  1.00  0.00     0.217 HD
ENDBRANCH  25  28
ENDBRANCH   9  22
BRANCH   7  30
HETATM   30  C   UNL     1     -11.560   2.178 -33.073  1.00  0.00     0.016 A 
HETATM   31  C   UNL     1     -12.650   2.857 -32.508  1.00  0.00     0.039 A 
HETATM   32  C   UNL     1     -13.938   2.647 -33.001  1.00  0.00     0.035 A 
HETATM   33 CL   UNL     1     -15.269   3.475 -32.290  1.00  0.00    -0.084 Cl
HETATM   34  C   UNL     1     -14.158   1.768 -34.059  1.00  0.00     0.024 A 
HETATM   35  C   UNL     1     -13.082   1.093 -34.633  1.00  0.00     0.003 A 
HETATM   36  C   UNL     1     -11.791   1.298 -34.141  1.00  0.00     0.015 A 
ENDBRANCH   7  30
TORSDOF 5
ENDMDL
MODEL 7
REMARK VINA RESULT:      -8.7     16.881     19.954
REMARK  5 active torsions:
REMARK  status: ('A' for Active; 'I' for Inactive)
REMARK    1  A    between atoms: C_7  and  C_8 
REMARK    2  A    between atoms: C_16  and  C_17 
REMARK    3  A    between atoms: C_20  and  O_21 
REMARK    4  A    between atoms: C_24  and  C_25 
REMARK       I    between atoms: C_25  and  N_26 
REMARK    5  A    between atoms: N_26  and  C_27 
ROOT
HETATM    1  C   UNL     1      -1.590 -12.097 -38.316  1.00  0.00     0.070 C 
HETATM    2  C   UNL     1      -2.928 -12.726 -38.017  1.00  0.00     0.037 C 
HETATM    3  N   UNL     1      -4.043 -12.053 -38.508  1.00  0.00    -0.192 N 
HETATM    4  C   UNL     1      -5.278 -12.591 -38.507  1.00  0.00     0.726 A 
HETATM    5  N   UNL     1      -5.506 -13.744 -37.810  1.00  0.00    -0.083 N 
HETATM    6  N   UNL     1      -6.728 -14.246 -38.078  1.00  0.00    -0.135 NA
HETATM    7  C   UNL     1      -7.240 -13.286 -38.871  1.00  0.00     0.199 A 
HETATM    8  N   UNL     1      -6.365 -12.248 -39.144  1.00  0.00    -0.041 NA
HETATM    9  C   UNL     1      -4.473 -14.460 -37.055  1.00  0.00     0.202 C 
HETATM   10  C   UNL     1      -3.091 -13.895 -37.349  1.00  0.00     0.062 C 
HETATM   11  H   UNL     1      -3.873 -11.230 -39.082  1.00  0.00     0.184 HD
ENDROOT
BRANCH  10  12
HETATM   12  C   UNL     1      -1.918 -14.653 -36.838  1.00  0.00     0.256 C 
HETATM   13  N   UNL     1      -1.479 -15.611 -37.727  1.00  0.00    -0.323 N 
HETATM   14  H   UNL     1      -1.973 -15.711 -38.603  1.00  0.00     0.169 HD
HETATM   15  O   UNL     1      -1.445 -14.372 -35.745  1.00  0.00    -0.267 OA
BRANCH  13  16
HETATM   16  C   UNL     1      -0.364 -16.464 -37.578  1.00  0.00     0.035 A 
HETATM   17  C   UNL     1      -0.366 -17.625 -36.804  1.00  0.00     0.029 A 
HETATM   18  C   UNL     1       0.793 -18.401 -36.689  1.00  0.00     0.002 A 
HETATM   19  C   UNL     1       1.957 -18.029 -37.357  1.00  0.00     0.000 A 
HETATM   20  C   UNL     1       1.968 -16.877 -38.138  1.00  0.00     0.002 A 
HETATM   21  C   UNL     1       0.814 -16.095 -38.243  1.00  0.00     0.029 A 
ENDBRANCH  13  16
ENDBRANCH  10  12
BRANCH   9  22
HETATM   22  C   UNL     1      -4.809 -14.466 -35.568  1.00  0.00    -0.028 A 
HETATM   23  C   UNL     1      -5.094 -13.258 -34.907  1.00  0.00     0.012 A 
HETATM   24  C   UNL     1      -5.416 -13.246 -33.547  1.00  0.00     0.037 A 
HETATM   25  C   UNL     1      -5.454 -14.443 -32.841  1.00  0.00     0.065 A 
HETATM   26  C   UNL     1      -5.175 -15.649 -33.471  1.00  0.00     0.037 A 
HETATM   27  C   UNL     1      -4.854 -15.663 -34.830  1.00  0.00     0.012 A 
BRANCH  25  28
HETATM   28  O   UNL     1      -5.764 -14.477 -31.514  1.00  0.00    -0.361 OA
HETATM   29  H   UNL     1      -4.939 -14.528 -31.004  1.00  0.00     0.217 HD
ENDBRANCH  25  28
ENDBRANCH   9  22
BRANCH   7  30
HETATM   30  C   UNL     1      -8.572 -13.348 -39.468  1.00  0.00     0.016 A 
HETATM   31  C   UNL     1      -9.297 -12.177 -39.733  1.00  0.00     0.039 A 
HETATM   32  C   UNL     1     -10.581 -12.256 -40.274  1.00  0.00     0.035 A 
HETATM   33 CL   UNL     1     -11.467 -10.813 -40.582  1.00  0.00    -0.084 Cl
HETATM   34  C   UNL     1     -11.156 -13.493 -40.562  1.00  0.00     0.024 A 
HETATM   35  C   UNL     1     -10.442 -14.663 -40.308  1.00  0.00     0.003 A 
HETATM   36  C   UNL     1      -9.157 -14.589 -39.764  1.00  0.00     0.015 A 
ENDBRANCH   7  30
TORSDOF 5
ENDMDL
MODEL 8
REMARK VINA RESULT:      -8.6      4.751      9.854
REMARK  5 active torsions:
REMARK  status: ('A' for Active; 'I' for Inactive)
REMARK    1  A    between atoms: C_7  and  C_8 
REMARK    2  A    between atoms: C_16  and  C_17 
REMARK    3  A    between atoms: C_20  and  O_21 
REMARK    4  A    between atoms: C_24  and  C_25 
REMARK       I    between atoms: C_25  and  N_26 
REMARK    5  A    between atoms: N_26  and  C_27 
ROOT
HETATM    1  C   UNL     1      -1.823   7.794 -32.768  1.00  0.00     0.070 C 
HETATM    2  C   UNL     1      -2.715   6.711 -32.216  1.00  0.00     0.037 C 
HETATM    3  N   UNL     1      -3.355   5.908 -33.156  1.00  0.00    -0.192 N 
HETATM    4  C   UNL     1      -4.010   4.779 -32.824  1.00  0.00     0.726 A 
HETATM    5  N   UNL     1      -4.254   4.508 -31.507  1.00  0.00    -0.083 N 
HETATM    6  N   UNL     1      -4.732   3.258 -31.343  1.00  0.00    -0.135 NA
HETATM    7  C   UNL     1      -4.860   2.854 -32.621  1.00  0.00     0.199 A 
HETATM    8  N   UNL     1      -4.427   3.781 -33.555  1.00  0.00    -0.041 NA
HETATM    9  C   UNL     1      -3.831   5.376 -30.403  1.00  0.00     0.202 C 
HETATM   10  C   UNL     1      -2.891   6.466 -30.894  1.00  0.00     0.062 C 
HETATM   11  H   UNL     1      -3.126   6.065 -34.134  1.00  0.00     0.184 HD
ENDROOT
BRANCH  10  12
HETATM   12  C   UNL     1      -2.198   7.288 -29.866  1.00  0.00     0.256 C 
HETATM   13  N   UNL     1      -1.097   6.651 -29.334  1.00  0.00    -0.323 N 
HETATM   14  H   UNL     1      -0.872   5.724 -29.671  1.00  0.00     0.169 HD
HETATM   15  O   UNL     1      -2.616   8.406 -29.602  1.00  0.00    -0.267 OA
BRANCH  13  16
HETATM   16  C   UNL     1      -0.192   7.167 -28.381  1.00  0.00     0.035 A 
HETATM   17  C   UNL     1       0.809   8.093 -28.675  1.00  0.00     0.029 A 
HETATM   18  C   UNL     1       1.682   8.534 -27.674  1.00  0.00     0.002 A 
HETATM   19  C   UNL     1       1.552   8.062 -26.370  1.00  0.00     0.000 A 
HETATM   20  C   UNL     1       0.552   7.144 -26.064  1.00  0.00     0.002 A 
HETATM   21  C   UNL     1      -0.312   6.694 -27.066  1.00  0.00     0.029 A 
ENDBRANCH  13  16
ENDBRANCH  10  12
BRANCH   9  22
HETATM   22  C   UNL     1      -5.046   5.925 -29.663  1.00  0.00    -0.028 A 
HETATM   23  C   UNL     1      -5.271   5.567 -28.321  1.00  0.00     0.012 A 
HETATM   24  C   UNL     1      -6.373   6.070 -27.623  1.00  0.00     0.037 A 
HETATM   25  C   UNL     1      -7.255   6.932 -28.264  1.00  0.00     0.065 A 
HETATM   26  C   UNL     1      -7.054   7.299 -29.589  1.00  0.00     0.037 A 
HETATM   27  C   UNL     1      -5.953   6.799 -30.287  1.00  0.00     0.012 A 
BRANCH  25  28
HETATM   28  O   UNL     1      -8.341   7.446 -27.621  1.00  0.00    -0.361 OA
HETATM   29  H   UNL     1      -8.101   7.618 -26.696  1.00  0.00     0.217 HD
ENDBRANCH  25  28
ENDBRANCH   9  22
BRANCH   7  30
HETATM   30  C   UNL     1      -5.336   1.530 -33.012  1.00  0.00     0.016 A 
HETATM   31  C   UNL     1      -6.364   1.384 -33.955  1.00  0.00     0.039 A 
HETATM   32  C   UNL     1      -6.828   0.113 -34.294  1.00  0.00     0.035 A 
HETATM   33 CL   UNL     1      -8.100  -0.052 -35.442  1.00  0.00    -0.084 Cl
HETATM   34  C   UNL     1      -6.277  -1.024 -33.707  1.00  0.00     0.024 A 
HETATM   35  C   UNL     1      -5.251  -0.892 -32.774  1.00  0.00     0.003 A 
HETATM   36  C   UNL     1      -4.784   0.379 -32.429  1.00  0.00     0.015 A 
ENDBRANCH   7  30
TORSDOF 5
ENDMDL
MODEL 9
REMARK VINA RESULT:      -8.5      3.724      9.450
REMARK  5 active torsions:
REMARK  status: ('A' for Active; 'I' for Inactive)
REMARK    1  A    between atoms: C_7  and  C_8 
REMARK    2  A    between atoms: C_16  and  C_17 
REMARK    3  A    between atoms: C_20  and  O_21 
REMARK    4  A    between atoms: C_24  and  C_25 
REMARK       I    between atoms: C_25  and  N_26 
REMARK    5  A    between atoms: N_26  and  C_27 
ROOT
HETATM    1  C   UNL     1      -3.012   5.578 -34.441  1.00  0.00     0.070 C 
HETATM    2  C   UNL     1      -4.125   5.023 -33.588  1.00  0.00     0.037 C 
HETATM    3  N   UNL     1      -5.330   4.776 -34.239  1.00  0.00    -0.192 N 
HETATM    4  C   UNL     1      -6.340   4.091 -33.669  1.00  0.00     0.726 A 
HETATM    5  N   UNL     1      -6.287   3.807 -32.333  1.00  0.00    -0.083 N 
HETATM    6  N   UNL     1      -7.266   2.953 -31.973  1.00  0.00    -0.135 NA
HETATM    7  C   UNL     1      -7.953   2.838 -33.125  1.00  0.00     0.199 A 
HETATM    8  N   UNL     1      -7.404   3.539 -34.186  1.00  0.00    -0.041 NA
HETATM    9  C   UNL     1      -5.175   4.196 -31.459  1.00  0.00     0.202 C 
HETATM   10  C   UNL     1      -4.003   4.727 -32.270  1.00  0.00     0.062 C 
HETATM   11  H   UNL     1      -5.353   4.924 -35.245  1.00  0.00     0.184 HD
ENDROOT
BRANCH  10  12
HETATM   12  C   UNL     1      -2.719   4.951 -31.553  1.00  0.00     0.256 C 
HETATM   13  N   UNL     1      -2.631   6.216 -31.010  1.00  0.00    -0.323 N 
HETATM   14  H   UNL     1      -3.408   6.849 -31.146  1.00  0.00     0.169 HD
HETATM   15  O   UNL     1      -1.899   4.047 -31.481  1.00  0.00    -0.267 OA
BRANCH  13  16
HETATM   16  C   UNL     1      -1.577   6.736 -30.227  1.00  0.00     0.035 A 
HETATM   17  C   UNL     1      -0.252   6.816 -30.655  1.00  0.00     0.029 A 
HETATM   18  C   UNL     1       0.737   7.321 -29.804  1.00  0.00     0.002 A 
HETATM   19  C   UNL     1       0.407   7.761 -28.525  1.00  0.00     0.000 A 
HETATM   20  C   UNL     1      -0.913   7.693 -28.091  1.00  0.00     0.002 A 
HETATM   21  C   UNL     1      -1.900   7.176 -28.936  1.00  0.00     0.029 A 
ENDBRANCH  13  16
ENDBRANCH  10  12
BRANCH   9  22
HETATM   22  C   UNL     1      -5.654   5.175 -30.393  1.00  0.00    -0.028 A 
HETATM   23  C   UNL     1      -6.136   6.442 -30.769  1.00  0.00     0.012 A 
HETATM   24  C   UNL     1      -6.590   7.348 -29.806  1.00  0.00     0.037 A 
HETATM   25  C   UNL     1      -6.562   6.992 -28.463  1.00  0.00     0.065 A 
HETATM   26  C   UNL     1      -6.089   5.747 -28.067  1.00  0.00     0.037 A 
HETATM   27  C   UNL     1      -5.636   4.840 -29.027  1.00  0.00     0.012 A 
BRANCH  25  28
HETATM   28  O   UNL     1      -6.995   7.845 -27.492  1.00  0.00    -0.361 OA
HETATM   29  H   UNL     1      -7.334   8.651 -27.915  1.00  0.00     0.217 HD
ENDBRANCH  25  28
ENDBRANCH   9  22
BRANCH   7  30
HETATM   30  C   UNL     1      -9.132   1.991 -33.288  1.00  0.00     0.016 A 
HETATM   31  C   UNL     1     -10.224   2.418 -34.058  1.00  0.00     0.039 A 
HETATM   32  C   UNL     1     -11.355   1.610 -34.177  1.00  0.00     0.035 A 
HETATM   33 CL   UNL     1     -12.694   2.151 -35.113  1.00  0.00    -0.084 Cl
HETATM   34  C   UNL     1     -11.414   0.372 -33.541  1.00  0.00     0.024 A 
HETATM   35  C   UNL     1     -10.332  -0.065 -32.778  1.00  0.00     0.003 A 
HETATM   36  C   UNL     1      -9.198   0.741 -32.653  1.00  0.00     0.015 A 
ENDBRANCH   7  30
TORSDOF 5
ENDMDL
MODEL 10
REMARK VINA RESULT:      -8.5      3.612      8.767
REMARK  5 active torsions:
REMARK  status: ('A' for Active; 'I' for Inactive)
REMARK    1  A    between atoms: C_7  and  C_8 
REMARK    2  A    between atoms: C_16  and  C_17 
REMARK    3  A    between atoms: C_20  and  O_21 
REMARK    4  A    between atoms: C_24  and  C_25 
REMARK       I    between atoms: C_25  and  N_26 
REMARK    5  A    between atoms: N_26  and  C_27 
ROOT
HETATM    1  C   UNL     1      -6.340   7.395 -30.426  1.00  0.00     0.070 C 
HETATM    2  C   UNL     1      -6.645   6.140 -31.204  1.00  0.00     0.037 C 
HETATM    3  N   UNL     1      -7.952   5.670 -31.117  1.00  0.00    -0.192 N 
HETATM    4  C   UNL     1      -8.430   4.692 -31.911  1.00  0.00     0.726 A 
HETATM    5  N   UNL     1      -7.562   3.974 -32.686  1.00  0.00    -0.083 N 
HETATM    6  N   UNL     1      -8.220   3.185 -33.559  1.00  0.00    -0.135 NA
HETATM    7  C   UNL     1      -9.498   3.389 -33.187  1.00  0.00     0.199 A 
HETATM    8  N   UNL     1      -9.652   4.311 -32.165  1.00  0.00    -0.041 NA
HETATM    9  C   UNL     1      -6.114   4.208 -32.722  1.00  0.00     0.202 C 
HETATM   10  C   UNL     1      -5.750   5.489 -31.987  1.00  0.00     0.062 C 
HETATM   11  H   UNL     1      -8.616   6.236 -30.594  1.00  0.00     0.184 HD
ENDROOT
BRANCH  10  12
HETATM   12  C   UNL     1      -4.354   5.983 -32.124  1.00  0.00     0.256 C 
HETATM   13  N   UNL     1      -3.557   5.620 -31.059  1.00  0.00    -0.323 N 
HETATM   14  H   UNL     1      -3.974   5.080 -30.313  1.00  0.00     0.169 HD
HETATM   15  O   UNL     1      -4.030   6.615 -33.120  1.00  0.00    -0.267 OA
BRANCH  13  16
HETATM   16  C   UNL     1      -2.178   5.880 -30.898  1.00  0.00     0.035 A 
HETATM   17  C   UNL     1      -1.166   5.107 -31.468  1.00  0.00     0.029 A 
HETATM   18  C   UNL     1       0.178   5.419 -31.236  1.00  0.00     0.002 A 
HETATM   19  C   UNL     1       0.520   6.513 -30.445  1.00  0.00     0.000 A 
HETATM   20  C   UNL     1      -0.482   7.296 -29.879  1.00  0.00     0.002 A 
HETATM   21  C   UNL     1      -1.825   6.977 -30.099  1.00  0.00     0.029 A 
ENDBRANCH  13  16
ENDBRANCH  10  12
BRANCH   9  22
HETATM   22  C   UNL     1      -5.365   2.987 -32.200  1.00  0.00    -0.028 A 
HETATM   23  C   UNL     1      -5.827   2.318 -31.053  1.00  0.00     0.012 A 
HETATM   24  C   UNL     1      -5.160   1.190 -30.567  1.00  0.00     0.037 A 
HETATM   25  C   UNL     1      -4.027   0.728 -31.225  1.00  0.00     0.065 A 
HETATM   26  C   UNL     1      -3.551   1.372 -32.359  1.00  0.00     0.037 A 
HETATM   27  C   UNL     1      -4.216   2.498 -32.848  1.00  0.00     0.012 A 
BRANCH  25  28
HETATM   28  O   UNL     1      -3.347  -0.369 -30.785  1.00  0.00    -0.361 OA
HETATM   29  H   UNL     1      -2.984  -0.838 -31.554  1.00  0.00     0.217 HD
ENDBRANCH  25  28
ENDBRANCH   9  22
BRANCH   7  30
HETATM   30  C   UNL     1     -10.645   2.764 -33.842  1.00  0.00     0.016 A 
HETATM   31  C   UNL     1     -11.183   1.562 -33.358  1.00  0.00     0.039 A 
HETATM   32  C   UNL     1     -12.259   0.963 -34.014  1.00  0.00     0.035 A 
HETATM   33 CL   UNL     1     -12.901  -0.519 -33.419  1.00  0.00    -0.084 Cl
HETATM   34  C   UNL     1     -12.814   1.549 -35.149  1.00  0.00     0.024 A 
HETATM   35  C   UNL     1     -12.292   2.746 -35.635  1.00  0.00     0.003 A 
HETATM   36  C   UNL     1     -11.213   3.349 -34.984  1.00  0.00     0.015 A 
ENDBRANCH   7  30
TORSDOF 5
ENDMDL
