MODEL 1
REMARK VINA RESULT:     -10.4      0.000      0.000
REMARK  5 active torsions:
REMARK  status: ('A' for Active; 'I' for Inactive)
REMARK    1  A    between atoms: C_6  and  C_7 
REMARK    2  A    between atoms: C_7  and  N_8 
REMARK    3  A    between atoms: C_17  and  C_18 
REMARK    4  A    between atoms: C_18  and  N_19 
REMARK    5  A    between atoms: C_22  and  C_23 
REMARK       I    between atoms: C_23  and  N_24 
ROOT
HETATM    1  N   UNL     1      -8.295   0.352 -33.183  1.00  0.00    -0.061 N 
HETATM    2  H   UNL     1      -8.518  -0.635 -33.014  1.00  0.00     0.280 HD
HETATM    3  C   UNL     1      -8.186   1.002 -31.811  1.00  0.00     0.276 C 
HETATM    4  C   UNL     1      -7.592   2.386 -31.875  1.00  0.00     0.002 A 
HETATM    5  C   UNL     1      -8.311   3.404 -32.499  1.00  0.00     0.076 A 
HETATM    6  O   UNL     1      -9.551   3.147 -33.015  1.00  0.00    -0.349 OA
HETATM    7  C   UNL     1      -9.444   2.392 -34.236  1.00  0.00     0.203 C 
HETATM    8  C   UNL     1      -9.485   0.879 -33.978  1.00  0.00     0.262 C 
HETATM    9  C   UNL     1      -6.270   2.648 -31.467  1.00  0.00     0.020 A 
HETATM   10  C   UNL     1      -5.671   3.905 -31.695  1.00  0.00    -0.032 A 
HETATM   11  C   UNL     1      -6.448   4.917 -32.283  1.00  0.00     0.011 A 
HETATM   12  C   UNL     1      -7.771   4.674 -32.660  1.00  0.00     0.038 A 
ENDROOT
BRANCH  10  13
HETATM   13  C   UNL     1      -4.181   4.068 -31.468  1.00  0.00     0.273 C 
BRANCH  13  14
HETATM   14  N   UNL     1      -3.396   4.813 -32.512  1.00  0.00    -0.066 N 
HETATM   15  H   UNL     1      -3.612   5.823 -32.405  1.00  0.00     0.280 HD
HETATM   16  C   UNL     1      -1.895   4.711 -32.324  1.00  0.00     0.249 C 
HETATM   17  C   UNL     1      -1.166   5.590 -33.343  1.00  0.00     0.103 C 
HETATM   18  C   UNL     1      -1.592   5.240 -34.771  1.00  0.00     0.017 C 
HETATM   19  C   UNL     1      -3.111   5.269 -34.941  1.00  0.00     0.029 C 
HETATM   20  C   UNL     1      -3.826   4.415 -33.905  1.00  0.00     0.235 C 
BRANCH  17  21
HETATM   21  C   UNL     1      -1.458   7.048 -33.039  1.00  0.00     0.221 C 
HETATM   22  N   UNL     1      -1.504   7.393 -31.728  1.00  0.00    -0.370 N 
HETATM   23  H   UNL     1      -1.431   6.737 -30.959  1.00  0.00     0.159 HD
HETATM   24  H   UNL     1      -1.684   8.361 -31.481  1.00  0.00     0.159 HD
HETATM   25  O   UNL     1      -1.563   7.879 -33.940  1.00  0.00    -0.273 OA
ENDBRANCH  17  21
ENDBRANCH  13  14
ENDBRANCH  10  13
BRANCH   1  26
HETATM   26  C   UNL     1      -6.967   0.359 -33.898  1.00  0.00     0.274 C 
BRANCH  26  27
HETATM   27  C   UNL     1      -6.145  -0.896 -33.843  1.00  0.00    -0.026 A 
HETATM   28  C   UNL     1      -6.682  -2.055 -34.443  1.00  0.00     0.016 A 
HETATM   29  C   UNL     1      -5.941  -3.237 -34.567  1.00  0.00    -0.056 A 
HETATM   30  C   UNL     1      -4.620  -3.260 -34.094  1.00  0.00    -0.056 A 
HETATM   31  C   UNL     1      -6.552  -4.413 -35.281  1.00  0.00     0.049 C 
HETATM   32  C   UNL     1      -3.748  -4.477 -34.259  1.00  0.00     0.049 C 
HETATM   33  C   UNL     1      -4.102  -2.127 -33.448  1.00  0.00     0.014 A 
HETATM   34  C   UNL     1      -4.839  -0.937 -33.325  1.00  0.00    -0.053 A 
HETATM   35  C   UNL     1      -4.185   0.236 -32.645  1.00  0.00     0.049 C 
ENDBRANCH  26  27
ENDBRANCH   1  26
TORSDOF 5
ENDMDL
MODEL 2
REMARK VINA RESULT:     -10.4      1.358      1.731
REMARK  5 active torsions:
REMARK  status: ('A' for Active; 'I' for Inactive)
REMARK    1  A    between atoms: C_6  and  C_7 
REMARK    2  A    between atoms: C_7  and  N_8 
REMARK    3  A    between atoms: C_17  and  C_18 
REMARK    4  A    between atoms: C_18  and  N_19 
REMARK    5  A    between atoms: C_22  and  C_23 
REMARK       I    between atoms: C_23  and  N_24 
ROOT
HETATM    1  N   UNL     1      -7.827   0.533 -33.019  1.00  0.00    -0.061 N 
HETATM    2  H   UNL     1      -7.990  -0.363 -32.547  1.00  0.00     0.280 HD
HETATM    3  C   UNL     1      -7.365   1.503 -31.942  1.00  0.00     0.276 C 
HETATM    4  C   UNL     1      -6.819   2.785 -32.515  1.00  0.00     0.002 A 
HETATM    5  C   UNL     1      -7.685   3.653 -33.179  1.00  0.00     0.076 A 
HETATM    6  O   UNL     1      -9.015   3.351 -33.273  1.00  0.00    -0.349 OA
HETATM    7  C   UNL     1      -9.228   2.305 -34.238  1.00  0.00     0.203 C 
HETATM    8  C   UNL     1      -9.188   0.913 -33.592  1.00  0.00     0.262 C 
HETATM    9  C   UNL     1      -5.438   3.060 -32.544  1.00  0.00     0.020 A 
HETATM   10  C   UNL     1      -4.930   4.178 -33.239  1.00  0.00    -0.032 A 
HETATM   11  C   UNL     1      -5.842   5.053 -33.851  1.00  0.00     0.011 A 
HETATM   12  C   UNL     1      -7.216   4.805 -33.799  1.00  0.00     0.038 A 
ENDROOT
BRANCH  10  13
HETATM   13  C   UNL     1      -3.435   4.300 -33.453  1.00  0.00     0.273 C 
BRANCH  13  14
HETATM   14  N   UNL     1      -2.718   5.410 -32.735  1.00  0.00    -0.066 N 
HETATM   15  H   UNL     1      -3.421   5.918 -32.163  1.00  0.00     0.280 HD
HETATM   16  C   UNL     1      -1.686   4.917 -31.739  1.00  0.00     0.249 C 
HETATM   17  C   UNL     1      -1.089   6.091 -30.960  1.00  0.00     0.103 C 
HETATM   18  C   UNL     1      -0.513   7.143 -31.912  1.00  0.00     0.017 C 
HETATM   19  C   UNL     1      -1.531   7.584 -32.964  1.00  0.00     0.029 C 
HETATM   20  C   UNL     1      -2.139   6.407 -33.711  1.00  0.00     0.235 C 
BRANCH  17  21
HETATM   21  C   UNL     1      -2.164   6.699 -30.077  1.00  0.00     0.221 C 
HETATM   22  N   UNL     1      -1.779   7.724 -29.278  1.00  0.00    -0.370 N 
HETATM   23  H   UNL     1      -0.824   8.050 -29.182  1.00  0.00     0.159 HD
HETATM   24  H   UNL     1      -2.470   8.167 -28.681  1.00  0.00     0.159 HD
HETATM   25  O   UNL     1      -3.334   6.328 -30.152  1.00  0.00    -0.273 OA
ENDBRANCH  17  21
ENDBRANCH  13  14
ENDBRANCH  10  13
BRANCH   1  26
HETATM   26  C   UNL     1      -6.735   0.275 -34.028  1.00  0.00     0.274 C 
BRANCH  26  27
HETATM   27  C   UNL     1      -6.001  -1.031 -33.934  1.00  0.00    -0.026 A 
HETATM   28  C   UNL     1      -6.583  -2.153 -34.561  1.00  0.00     0.016 A 
HETATM   29  C   UNL     1      -5.917  -3.381 -34.651  1.00  0.00    -0.056 A 
HETATM   30  C   UNL     1      -4.625  -3.491 -34.114  1.00  0.00    -0.056 A 
HETATM   31  C   UNL     1      -6.568  -4.516 -35.396  1.00  0.00     0.049 C 
HETATM   32  C   UNL     1      -3.828  -4.763 -34.237  1.00  0.00     0.049 C 
HETATM   33  C   UNL     1      -4.066  -2.393 -33.440  1.00  0.00     0.014 A 
HETATM   34  C   UNL     1      -4.728  -1.157 -33.352  1.00  0.00    -0.053 A 
HETATM   35  C   UNL     1      -4.033  -0.029 -32.639  1.00  0.00     0.049 C 
ENDBRANCH  26  27
ENDBRANCH   1  26
TORSDOF 5
ENDMDL
MODEL 3
REMARK VINA RESULT:     -10.0      2.872      6.881
REMARK  5 active torsions:
REMARK  status: ('A' for Active; 'I' for Inactive)
REMARK    1  A    between atoms: C_6  and  C_7 
REMARK    2  A    between atoms: C_7  and  N_8 
REMARK    3  A    between atoms: C_17  and  C_18 
REMARK    4  A    between atoms: C_18  and  N_19 
REMARK    5  A    between atoms: C_22  and  C_23 
REMARK       I    between atoms: C_23  and  N_24 
ROOT
HETATM    1  N   UNL     1      -5.017   2.162 -32.461  1.00  0.00    -0.061 N 
HETATM    2  H   UNL     1      -4.157   1.772 -32.861  1.00  0.00     0.280 HD
HETATM    3  C   UNL     1      -5.286   3.457 -33.212  1.00  0.00     0.276 C 
HETATM    4  C   UNL     1      -6.660   4.010 -32.935  1.00  0.00     0.002 A 
HETATM    5  C   UNL     1      -6.958   4.478 -31.657  1.00  0.00     0.076 A 
HETATM    6  O   UNL     1      -5.998   4.463 -30.683  1.00  0.00    -0.349 OA
HETATM    7  C   UNL     1      -5.784   3.121 -30.207  1.00  0.00     0.203 C 
HETATM    8  C   UNL     1      -4.679   2.405 -30.994  1.00  0.00     0.262 C 
HETATM    9  C   UNL     1      -7.702   3.921 -33.879  1.00  0.00     0.020 A 
HETATM   10  C   UNL     1      -9.024   4.282 -33.544  1.00  0.00    -0.032 A 
HETATM   11  C   UNL     1      -9.269   4.796 -32.260  1.00  0.00     0.011 A 
HETATM   12  C   UNL     1      -8.235   4.917 -31.329  1.00  0.00     0.038 A 
ENDROOT
BRANCH  10  13
HETATM   13  C   UNL     1     -10.150   3.942 -34.500  1.00  0.00     0.273 C 
BRANCH  13  14
HETATM   14  N   UNL     1     -11.184   2.956 -34.034  1.00  0.00    -0.066 N 
HETATM   15  H   UNL     1     -11.380   3.156 -33.034  1.00  0.00     0.280 HD
HETATM   16  C   UNL     1     -12.522   3.109 -34.732  1.00  0.00     0.249 C 
HETATM   17  C   UNL     1     -13.557   2.160 -34.122  1.00  0.00     0.103 C 
HETATM   18  C   UNL     1     -13.056   0.714 -34.150  1.00  0.00     0.017 C 
HETATM   19  C   UNL     1     -11.673   0.572 -33.514  1.00  0.00     0.029 C 
HETATM   20  C   UNL     1     -10.660   1.540 -34.107  1.00  0.00     0.235 C 
BRANCH  17  21
HETATM   21  C   UNL     1     -13.853   2.598 -32.700  1.00  0.00     0.221 C 
HETATM   22  N   UNL     1     -14.752   1.850 -32.014  1.00  0.00    -0.370 N 
HETATM   23  H   UNL     1     -15.281   1.081 -32.410  1.00  0.00     0.159 HD
HETATM   24  H   UNL     1     -14.970   2.100 -31.054  1.00  0.00     0.159 HD
HETATM   25  O   UNL     1     -13.244   3.531 -32.180  1.00  0.00    -0.273 OA
ENDBRANCH  17  21
ENDBRANCH  13  14
ENDBRANCH  10  13
BRANCH   1  26
HETATM   26  C   UNL     1      -6.095   1.140 -32.729  1.00  0.00     0.274 C 
BRANCH  26  27
HETATM   27  C   UNL     1      -5.671  -0.180 -33.304  1.00  0.00    -0.026 A 
HETATM   28  C   UNL     1      -4.644  -0.881 -32.638  1.00  0.00     0.016 A 
HETATM   29  C   UNL     1      -4.269  -2.178 -33.010  1.00  0.00    -0.056 A 
HETATM   30  C   UNL     1      -4.950  -2.801 -34.067  1.00  0.00    -0.056 A 
HETATM   31  C   UNL     1      -3.214  -2.895 -32.210  1.00  0.00     0.049 C 
HETATM   32  C   UNL     1      -4.643  -4.220 -34.472  1.00  0.00     0.049 C 
HETATM   33  C   UNL     1      -5.933  -2.086 -34.767  1.00  0.00     0.014 A 
HETATM   34  C   UNL     1      -6.316  -0.786 -34.395  1.00  0.00    -0.053 A 
HETATM   35  C   UNL     1      -7.404  -0.113 -35.186  1.00  0.00     0.049 C 
ENDBRANCH  26  27
ENDBRANCH   1  26
TORSDOF 5
ENDMDL
MODEL 4
REMARK VINA RESULT:      -9.9      1.663      2.630
REMARK  5 active torsions:
REMARK  status: ('A' for Active; 'I' for Inactive)
REMARK    1  A    between atoms: C_6  and  C_7 
REMARK    2  A    between atoms: C_7  and  N_8 
REMARK    3  A    between atoms: C_17  and  C_18 
REMARK    4  A    between atoms: C_18  and  N_19 
REMARK    5  A    between atoms: C_22  and  C_23 
REMARK       I    between atoms: C_23  and  N_24 
ROOT
HETATM    1  N   UNL     1      -6.799   0.965 -31.464  1.00  0.00    -0.061 N 
HETATM    2  H   UNL     1      -6.483   0.152 -30.924  1.00  0.00     0.280 HD
HETATM    3  C   UNL     1      -6.497   2.186 -30.609  1.00  0.00     0.276 C 
HETATM    4  C   UNL     1      -6.647   3.477 -31.372  1.00  0.00     0.002 A 
HETATM    5  C   UNL     1      -7.914   3.867 -31.801  1.00  0.00     0.076 A 
HETATM    6  O   UNL     1      -9.004   3.099 -31.499  1.00  0.00    -0.349 OA
HETATM    7  C   UNL     1      -9.027   1.913 -32.316  1.00  0.00     0.203 C 
HETATM    8  C   UNL     1      -8.297   0.743 -31.644  1.00  0.00     0.262 C 
HETATM    9  C   UNL     1      -5.531   4.219 -31.804  1.00  0.00     0.020 A 
HETATM   10  C   UNL     1      -5.680   5.327 -32.666  1.00  0.00    -0.032 A 
HETATM   11  C   UNL     1      -6.979   5.715 -33.033  1.00  0.00     0.011 A 
HETATM   12  C   UNL     1      -8.093   5.003 -32.581  1.00  0.00     0.038 A 
ENDROOT
BRANCH  10  13
HETATM   13  C   UNL     1      -4.450   5.943 -33.300  1.00  0.00     0.273 C 
BRANCH  13  14
HETATM   14  N   UNL     1      -3.237   6.127 -32.431  1.00  0.00    -0.066 N 
HETATM   15  H   UNL     1      -3.330   5.483 -31.623  1.00  0.00     0.280 HD
HETATM   16  C   UNL     1      -1.942   5.721 -33.108  1.00  0.00     0.249 C 
HETATM   17  C   UNL     1      -0.771   5.817 -32.127  1.00  0.00     0.103 C 
HETATM   18  C   UNL     1      -0.685   7.217 -31.514  1.00  0.00     0.017 C 
HETATM   19  C   UNL     1      -2.013   7.657 -30.898  1.00  0.00     0.029 C 
HETATM   20  C   UNL     1      -3.174   7.530 -31.873  1.00  0.00     0.235 C 
BRANCH  17  21
HETATM   21  C   UNL     1      -0.943   4.767 -31.045  1.00  0.00     0.221 C 
HETATM   22  N   UNL     1      -0.187   4.920 -29.931  1.00  0.00    -0.370 N 
HETATM   23  H   UNL     1       0.524   5.633 -29.813  1.00  0.00     0.159 HD
HETATM   24  H   UNL     1      -0.281   4.247 -29.176  1.00  0.00     0.159 HD
HETATM   25  O   UNL     1      -1.787   3.878 -31.148  1.00  0.00    -0.273 OA
ENDBRANCH  17  21
ENDBRANCH  13  14
ENDBRANCH  10  13
BRANCH   1  26
HETATM   26  C   UNL     1      -5.975   0.966 -32.728  1.00  0.00     0.274 C 
BRANCH  26  27
HETATM   27  C   UNL     1      -5.487  -0.359 -33.238  1.00  0.00    -0.026 A 
HETATM   28  C   UNL     1      -4.466  -1.003 -32.508  1.00  0.00     0.016 A 
HETATM   29  C   UNL     1      -4.037  -2.299 -32.818  1.00  0.00    -0.056 A 
HETATM   30  C   UNL     1      -4.655  -2.981 -33.876  1.00  0.00    -0.056 A 
HETATM   31  C   UNL     1      -2.993  -2.952 -31.952  1.00  0.00     0.049 C 
HETATM   32  C   UNL     1      -4.288  -4.402 -34.218  1.00  0.00     0.049 C 
HETATM   33  C   UNL     1      -5.632  -2.323 -34.640  1.00  0.00     0.014 A 
HETATM   34  C   UNL     1      -6.070  -1.024 -34.330  1.00  0.00    -0.053 A 
HETATM   35  C   UNL     1      -7.146  -0.415 -35.187  1.00  0.00     0.049 C 
ENDBRANCH  26  27
ENDBRANCH   1  26
TORSDOF 5
ENDMDL
MODEL 5
REMARK VINA RESULT:      -9.7      1.999      6.205
REMARK  5 active torsions:
REMARK  status: ('A' for Active; 'I' for Inactive)
REMARK    1  A    between atoms: C_6  and  C_7 
REMARK    2  A    between atoms: C_7  and  N_8 
REMARK    3  A    between atoms: C_17  and  C_18 
REMARK    4  A    between atoms: C_18  and  N_19 
REMARK    5  A    between atoms: C_22  and  C_23 
REMARK       I    between atoms: C_23  and  N_24 
ROOT
HETATM    1  N   UNL     1      -3.662   3.323 -32.597  1.00  0.00    -0.061 N 
HETATM    2  H   UNL     1      -3.004   2.635 -32.981  1.00  0.00     0.280 HD
HETATM    3  C   UNL     1      -4.103   4.187 -33.769  1.00  0.00     0.276 C 
HETATM    4  C   UNL     1      -5.277   5.067 -33.428  1.00  0.00     0.002 A 
HETATM    5  C   UNL     1      -5.108   6.094 -32.501  1.00  0.00     0.076 A 
HETATM    6  O   UNL     1      -3.880   6.312 -31.940  1.00  0.00    -0.349 OA
HETATM    7  C   UNL     1      -3.585   5.299 -30.961  1.00  0.00     0.203 C 
HETATM    8  C   UNL     1      -2.841   4.107 -31.579  1.00  0.00     0.262 C 
HETATM    9  C   UNL     1      -6.577   4.786 -33.891  1.00  0.00     0.020 A 
HETATM   10  C   UNL     1      -7.693   5.513 -33.423  1.00  0.00    -0.032 A 
HETATM   11  C   UNL     1      -7.470   6.571 -32.527  1.00  0.00     0.011 A 
HETATM   12  C   UNL     1      -6.179   6.877 -32.088  1.00  0.00     0.038 A 
ENDROOT
BRANCH  10  13
HETATM   13  C   UNL     1      -9.088   5.023 -33.754  1.00  0.00     0.273 C 
BRANCH  13  14
HETATM   14  N   UNL     1      -9.493   3.672 -33.233  1.00  0.00    -0.066 N 
HETATM   15  H   UNL     1     -10.510   3.709 -33.025  1.00  0.00     0.280 HD
HETATM   16  C   UNL     1      -9.343   2.562 -34.255  1.00  0.00     0.249 C 
HETATM   17  C   UNL     1      -9.889   1.244 -33.700  1.00  0.00     0.103 C 
HETATM   18  C   UNL     1      -9.221   0.894 -32.367  1.00  0.00     0.017 C 
HETATM   19  C   UNL     1      -9.306   2.043 -31.362  1.00  0.00     0.029 C 
HETATM   20  C   UNL     1      -8.789   3.354 -31.935  1.00  0.00     0.235 C 
BRANCH  17  21
HETATM   21  C   UNL     1     -11.393   1.362 -33.531  1.00  0.00     0.221 C 
HETATM   22  N   UNL     1     -12.049   0.233 -33.169  1.00  0.00    -0.370 N 
HETATM   23  H   UNL     1     -11.617  -0.679 -33.080  1.00  0.00     0.159 HD
HETATM   24  H   UNL     1     -13.055   0.271 -33.032  1.00  0.00     0.159 HD
HETATM   25  O   UNL     1     -11.963   2.447 -33.638  1.00  0.00    -0.273 OA
ENDBRANCH  17  21
ENDBRANCH  13  14
ENDBRANCH  10  13
BRANCH   1  26
HETATM   26  C   UNL     1      -4.816   2.524 -32.042  1.00  0.00     0.274 C 
BRANCH  26  27
HETATM   27  C   UNL     1      -5.038   1.149 -32.600  1.00  0.00    -0.026 A 
HETATM   28  C   UNL     1      -6.008   1.005 -33.614  1.00  0.00     0.016 A 
HETATM   29  C   UNL     1      -6.196  -0.204 -34.294  1.00  0.00    -0.056 A 
HETATM   30  C   UNL     1      -5.381  -1.298 -33.967  1.00  0.00    -0.056 A 
HETATM   31  C   UNL     1      -7.201  -0.267 -35.413  1.00  0.00     0.049 C 
HETATM   32  C   UNL     1      -5.485  -2.606 -34.708  1.00  0.00     0.049 C 
HETATM   33  C   UNL     1      -4.452  -1.175 -32.922  1.00  0.00     0.014 A 
HETATM   34  C   UNL     1      -4.257   0.038 -32.239  1.00  0.00    -0.053 A 
HETATM   35  C   UNL     1      -3.214   0.081 -31.155  1.00  0.00     0.049 C 
ENDBRANCH  26  27
ENDBRANCH   1  26
TORSDOF 5
ENDMDL
MODEL 6
REMARK VINA RESULT:      -9.7      2.153      3.035
REMARK  5 active torsions:
REMARK  status: ('A' for Active; 'I' for Inactive)
REMARK    1  A    between atoms: C_6  and  C_7 
REMARK    2  A    between atoms: C_7  and  N_8 
REMARK    3  A    between atoms: C_17  and  C_18 
REMARK    4  A    between atoms: C_18  and  N_19 
REMARK    5  A    between atoms: C_22  and  C_23 
REMARK       I    between atoms: C_23  and  N_24 
ROOT
HETATM    1  N   UNL     1      -7.648   1.095 -31.566  1.00  0.00    -0.061 N 
HETATM    2  H   UNL     1      -7.932   0.111 -31.513  1.00  0.00     0.280 HD
HETATM    3  C   UNL     1      -6.758   1.345 -30.357  1.00  0.00     0.276 C 
HETATM    4  C   UNL     1      -6.035   2.665 -30.435  1.00  0.00     0.002 A 
HETATM    5  C   UNL     1      -6.772   3.846 -30.363  1.00  0.00     0.076 A 
HETATM    6  O   UNL     1      -8.128   3.796 -30.190  1.00  0.00    -0.349 OA
HETATM    7  C   UNL     1      -8.777   3.395 -31.410  1.00  0.00     0.203 C 
HETATM    8  C   UNL     1      -8.957   1.873 -31.488  1.00  0.00     0.262 C 
HETATM    9  C   UNL     1      -4.663   2.745 -30.739  1.00  0.00     0.020 A 
HETATM   10  C   UNL     1      -4.040   3.988 -30.982  1.00  0.00    -0.032 A 
HETATM   11  C   UNL     1      -4.809   5.156 -30.850  1.00  0.00     0.011 A 
HETATM   12  C   UNL     1      -6.163   5.086 -30.517  1.00  0.00     0.038 A 
ENDROOT
BRANCH  10  13
HETATM   13  C   UNL     1      -2.632   4.014 -31.544  1.00  0.00     0.273 C 
BRANCH  13  14
HETATM   14  N   UNL     1      -1.738   5.147 -31.126  1.00  0.00    -0.066 N 
HETATM   15  H   UNL     1      -2.207   5.644 -30.344  1.00  0.00     0.280 HD
HETATM   16  C   UNL     1      -0.408   4.689 -30.558  1.00  0.00     0.249 C 
HETATM   17  C   UNL     1       0.395   5.886 -30.041  1.00  0.00     0.103 C 
HETATM   18  C   UNL     1       0.570   6.941 -31.136  1.00  0.00     0.017 C 
HETATM   19  C   UNL     1      -0.764   7.347 -31.762  1.00  0.00     0.029 C 
HETATM   20  C   UNL     1      -1.567   6.149 -32.245  1.00  0.00     0.235 C 
BRANCH  17  21
HETATM   21  C   UNL     1      -0.315   6.476 -28.836  1.00  0.00     0.221 C 
HETATM   22  N   UNL     1      -0.185   5.799 -27.669  1.00  0.00    -0.370 N 
HETATM   23  H   UNL     1       0.283   4.906 -27.572  1.00  0.00     0.159 HD
HETATM   24  H   UNL     1      -0.633   6.167 -26.835  1.00  0.00     0.159 HD
HETATM   25  O   UNL     1      -0.903   7.554 -28.908  1.00  0.00    -0.273 OA
ENDBRANCH  17  21
ENDBRANCH  13  14
ENDBRANCH  10  13
BRANCH   1  26
HETATM   26  C   UNL     1      -6.873   1.233 -32.853  1.00  0.00     0.274 C 
BRANCH  26  27
HETATM   27  C   UNL     1      -6.163   0.015 -33.367  1.00  0.00    -0.026 A 
HETATM   28  C   UNL     1      -5.054  -0.453 -32.632  1.00  0.00     0.016 A 
HETATM   29  C   UNL     1      -4.408  -1.655 -32.948  1.00  0.00    -0.056 A 
HETATM   30  C   UNL     1      -4.893  -2.422 -34.017  1.00  0.00    -0.056 A 
HETATM   31  C   UNL     1      -3.276  -2.129 -32.077  1.00  0.00     0.049 C 
HETATM   32  C   UNL     1      -4.287  -3.757 -34.366  1.00  0.00     0.049 C 
HETATM   33  C   UNL     1      -5.961  -1.932 -34.786  1.00  0.00     0.014 A 
HETATM   34  C   UNL     1      -6.615  -0.729 -34.470  1.00  0.00    -0.053 A 
HETATM   35  C   UNL     1      -7.772  -0.304 -35.333  1.00  0.00     0.049 C 
ENDBRANCH  26  27
ENDBRANCH   1  26
TORSDOF 5
ENDMDL
MODEL 7
REMARK VINA RESULT:      -9.6      1.560      1.938
REMARK  5 active torsions:
REMARK  status: ('A' for Active; 'I' for Inactive)
REMARK    1  A    between atoms: C_6  and  C_7 
REMARK    2  A    between atoms: C_7  and  N_8 
REMARK    3  A    between atoms: C_17  and  C_18 
REMARK    4  A    between atoms: C_18  and  N_19 
REMARK    5  A    between atoms: C_22  and  C_23 
REMARK       I    between atoms: C_23  and  N_24 
ROOT
HETATM    1  N   UNL     1      -8.870   0.455 -32.870  1.00  0.00    -0.061 N 
HETATM    2  H   UNL     1      -8.920  -0.559 -32.721  1.00  0.00     0.280 HD
HETATM    3  C   UNL     1      -9.157   1.096 -31.520  1.00  0.00     0.276 C 
HETATM    4  C   UNL     1      -8.850   2.571 -31.505  1.00  0.00     0.002 A 
HETATM    5  C   UNL     1      -9.623   3.433 -32.281  1.00  0.00     0.076 A 
HETATM    6  O   UNL     1     -10.665   2.940 -33.017  1.00  0.00    -0.349 OA
HETATM    7  C   UNL     1     -10.177   2.237 -34.175  1.00  0.00     0.203 C 
HETATM    8  C   UNL     1      -9.965   0.744 -33.890  1.00  0.00     0.262 C 
HETATM    9  C   UNL     1      -7.709   3.087 -30.860  1.00  0.00     0.020 A 
HETATM   10  C   UNL     1      -7.339   4.442 -31.002  1.00  0.00    -0.032 A 
HETATM   11  C   UNL     1      -8.175   5.285 -31.753  1.00  0.00     0.011 A 
HETATM   12  C   UNL     1      -9.326   4.788 -32.369  1.00  0.00     0.038 A 
ENDROOT
BRANCH  10  13
HETATM   13  C   UNL     1      -5.984   4.897 -30.500  1.00  0.00     0.273 C 
BRANCH  13  14
HETATM   14  N   UNL     1      -4.838   4.876 -31.473  1.00  0.00    -0.066 N 
HETATM   15  H   UNL     1      -5.194   4.484 -32.367  1.00  0.00     0.280 HD
HETATM   16  C   UNL     1      -4.324   6.257 -31.829  1.00  0.00     0.249 C 
HETATM   17  C   UNL     1      -3.247   6.166 -32.913  1.00  0.00     0.103 C 
HETATM   18  C   UNL     1      -2.119   5.224 -32.485  1.00  0.00     0.017 C 
HETATM   19  C   UNL     1      -2.645   3.855 -32.054  1.00  0.00     0.029 C 
HETATM   20  C   UNL     1      -3.735   3.960 -30.998  1.00  0.00     0.235 C 
BRANCH  17  21
HETATM   21  C   UNL     1      -3.884   5.687 -34.205  1.00  0.00     0.221 C 
HETATM   22  N   UNL     1      -3.050   5.510 -35.259  1.00  0.00    -0.370 N 
HETATM   23  H   UNL     1      -2.064   5.746 -35.257  1.00  0.00     0.159 HD
HETATM   24  H   UNL     1      -3.433   5.179 -36.139  1.00  0.00     0.159 HD
HETATM   25  O   UNL     1      -5.078   5.398 -34.258  1.00  0.00    -0.273 OA
ENDBRANCH  17  21
ENDBRANCH  13  14
ENDBRANCH  10  13
BRANCH   1  26
HETATM   26  C   UNL     1      -7.458   0.736 -33.319  1.00  0.00     0.274 C 
BRANCH  26  27
HETATM   27  C   UNL     1      -6.530  -0.435 -33.462  1.00  0.00    -0.026 A 
HETATM   28  C   UNL     1      -7.058  -1.621 -34.015  1.00  0.00     0.016 A 
HETATM   29  C   UNL     1      -6.249  -2.723 -34.317  1.00  0.00    -0.056 A 
HETATM   30  C   UNL     1      -4.869  -2.634 -34.077  1.00  0.00    -0.056 A 
HETATM   31  C   UNL     1      -6.867  -3.930 -34.971  1.00  0.00     0.049 C 
HETATM   32  C   UNL     1      -3.933  -3.757 -34.443  1.00  0.00     0.049 C 
HETATM   33  C   UNL     1      -4.349  -1.477 -33.476  1.00  0.00     0.014 A 
HETATM   34  C   UNL     1      -5.156  -0.367 -33.175  1.00  0.00    -0.053 A 
HETATM   35  C   UNL     1      -4.501   0.841 -32.563  1.00  0.00     0.049 C 
ENDBRANCH  26  27
ENDBRANCH   1  26
TORSDOF 5
ENDMDL
MODEL 8
REMARK VINA RESULT:      -9.3      2.975      7.751
REMARK  5 active torsions:
REMARK  status: ('A' for Active; 'I' for Inactive)
REMARK    1  A    between atoms: C_6  and  C_7 
REMARK    2  A    between atoms: C_7  and  N_8 
REMARK    3  A    between atoms: C_17  and  C_18 
REMARK    4  A    between atoms: C_18  and  N_19 
REMARK    5  A    between atoms: C_22  and  C_23 
REMARK       I    between atoms: C_23  and  N_24 
ROOT
HETATM    1  N   UNL     1      -4.092   0.950 -30.955  1.00  0.00    -0.061 N 
HETATM    2  H   UNL     1      -3.871   1.380 -30.050  1.00  0.00     0.280 HD
HETATM    3  C   UNL     1      -5.424   0.238 -30.773  1.00  0.00     0.276 C 
HETATM    4  C   UNL     1      -6.023  -0.209 -32.082  1.00  0.00     0.002 A 
HETATM    5  C   UNL     1      -5.383  -1.208 -32.814  1.00  0.00     0.076 A 
HETATM    6  O   UNL     1      -4.246  -1.791 -32.326  1.00  0.00    -0.349 OA
HETATM    7  C   UNL     1      -3.126  -0.896 -32.453  1.00  0.00     0.203 C 
HETATM    8  C   UNL     1      -2.946  -0.024 -31.204  1.00  0.00     0.262 C 
HETATM    9  C   UNL     1      -7.116   0.459 -32.667  1.00  0.00     0.020 A 
HETATM   10  C   UNL     1      -7.553   0.142 -33.971  1.00  0.00    -0.032 A 
HETATM   11  C   UNL     1      -6.911  -0.905 -34.653  1.00  0.00     0.011 A 
HETATM   12  C   UNL     1      -5.847  -1.594 -34.066  1.00  0.00     0.038 A 
ENDROOT
BRANCH  10  13
HETATM   13  C   UNL     1      -8.563   1.042 -34.653  1.00  0.00     0.273 C 
BRANCH  13  14
HETATM   14  N   UNL     1      -9.579   1.732 -33.785  1.00  0.00    -0.066 N 
HETATM   15  H   UNL     1      -9.522   1.306 -32.839  1.00  0.00     0.280 HD
HETATM   16  C   UNL     1      -9.288   3.204 -33.569  1.00  0.00     0.249 C 
HETATM   17  C   UNL     1     -10.287   3.809 -32.580  1.00  0.00     0.103 C 
HETATM   18  C   UNL     1     -11.727   3.568 -33.041  1.00  0.00     0.017 C 
HETATM   19  C   UNL     1     -11.998   2.092 -33.331  1.00  0.00     0.029 C 
HETATM   20  C   UNL     1     -10.982   1.494 -34.292  1.00  0.00     0.235 C 
BRANCH  17  21
HETATM   21  C   UNL     1     -10.055   3.203 -31.208  1.00  0.00     0.221 C 
HETATM   22  N   UNL     1     -10.898   3.600 -30.223  1.00  0.00    -0.370 N 
HETATM   23  H   UNL     1     -11.607   4.316 -30.328  1.00  0.00     0.159 HD
HETATM   24  H   UNL     1     -10.785   3.209 -29.292  1.00  0.00     0.159 HD
HETATM   25  O   UNL     1      -9.200   2.337 -31.030  1.00  0.00    -0.273 OA
ENDBRANCH  17  21
ENDBRANCH  13  14
ENDBRANCH  10  13
BRANCH   1  26
HETATM   26  C   UNL     1      -4.212   2.092 -31.934  1.00  0.00     0.274 C 
BRANCH  26  27
HETATM   27  C   UNL     1      -3.792   3.455 -31.464  1.00  0.00    -0.026 A 
HETATM   28  C   UNL     1      -2.456   3.843 -31.702  1.00  0.00     0.016 A 
HETATM   29  C   UNL     1      -2.001   5.138 -31.427  1.00  0.00    -0.056 A 
HETATM   30  C   UNL     1      -2.907   6.080 -30.917  1.00  0.00    -0.056 A 
HETATM   31  C   UNL     1      -0.582   5.505 -31.772  1.00  0.00     0.049 C 
HETATM   32  C   UNL     1      -2.499   7.508 -30.665  1.00  0.00     0.049 C 
HETATM   33  C   UNL     1      -4.222   5.681 -30.628  1.00  0.00     0.014 A 
HETATM   34  C   UNL     1      -4.685   4.384 -30.905  1.00  0.00    -0.053 A 
HETATM   35  C   UNL     1      -6.121   4.061 -30.591  1.00  0.00     0.049 C 
ENDBRANCH  26  27
ENDBRANCH   1  26
TORSDOF 5
ENDMDL
MODEL 9
REMARK VINA RESULT:      -9.2     15.982     19.067
REMARK  5 active torsions:
REMARK  status: ('A' for Active; 'I' for Inactive)
REMARK    1  A    between atoms: C_6  and  C_7 
REMARK    2  A    between atoms: C_7  and  N_8 
REMARK    3  A    between atoms: C_17  and  C_18 
REMARK    4  A    between atoms: C_18  and  N_19 
REMARK    5  A    between atoms: C_22  and  C_23 
REMARK       I    between atoms: C_23  and  N_24 
ROOT
HETATM    1  N   UNL     1      -5.444 -15.586 -42.956  1.00  0.00    -0.061 N 
HETATM    2  H   UNL     1      -6.229 -15.167 -43.468  1.00  0.00     0.280 HD
HETATM    3  C   UNL     1      -4.188 -14.900 -43.471  1.00  0.00     0.276 C 
HETATM    4  C   UNL     1      -2.977 -15.202 -42.625  1.00  0.00     0.002 A 
HETATM    5  C   UNL     1      -2.475 -16.503 -42.601  1.00  0.00     0.076 A 
HETATM    6  O   UNL     1      -3.061 -17.475 -43.364  1.00  0.00    -0.349 OA
HETATM    7  C   UNL     1      -4.314 -17.884 -42.786  1.00  0.00     0.203 C 
HETATM    8  C   UNL     1      -5.490 -17.063 -43.331  1.00  0.00     0.262 C 
HETATM    9  C   UNL     1      -2.435 -14.255 -41.736  1.00  0.00     0.020 A 
HETATM   10  C   UNL     1      -1.416 -14.607 -40.826  1.00  0.00    -0.032 A 
HETATM   11  C   UNL     1      -0.906 -15.915 -40.870  1.00  0.00     0.011 A 
HETATM   12  C   UNL     1      -1.416 -16.852 -41.772  1.00  0.00     0.038 A 
ENDROOT
BRANCH  10  13
HETATM   13  C   UNL     1      -1.034 -13.635 -39.727  1.00  0.00     0.273 C 
BRANCH  13  14
HETATM   14  N   UNL     1      -1.738 -13.768 -38.405  1.00  0.00    -0.066 N 
HETATM   15  H   UNL     1      -1.900 -12.810 -38.040  1.00  0.00     0.280 HD
HETATM   16  C   UNL     1      -3.119 -14.383 -38.516  1.00  0.00     0.249 C 
HETATM   17  C   UNL     1      -3.822 -14.373 -37.156  1.00  0.00     0.103 C 
HETATM   18  C   UNL     1      -2.966 -15.067 -36.093  1.00  0.00     0.017 C 
HETATM   19  C   UNL     1      -1.549 -14.497 -36.034  1.00  0.00     0.029 C 
HETATM   20  C   UNL     1      -0.872 -14.485 -37.396  1.00  0.00     0.235 C 
BRANCH  17  21
HETATM   21  C   UNL     1      -4.110 -12.937 -36.759  1.00  0.00     0.221 C 
HETATM   22  N   UNL     1      -4.676 -12.750 -35.541  1.00  0.00    -0.370 N 
HETATM   23  H   UNL     1      -4.979 -13.498 -34.928  1.00  0.00     0.159 HD
HETATM   24  H   UNL     1      -4.874 -11.804 -35.230  1.00  0.00     0.159 HD
HETATM   25  O   UNL     1      -3.769 -11.996 -37.474  1.00  0.00    -0.273 OA
ENDBRANCH  17  21
ENDBRANCH  13  14
ENDBRANCH  10  13
BRANCH   1  26
HETATM   26  C   UNL     1      -5.684 -15.266 -41.501  1.00  0.00     0.274 C 
BRANCH  26  27
HETATM   27  C   UNL     1      -6.894 -14.444 -41.163  1.00  0.00    -0.026 A 
HETATM   28  C   UNL     1      -8.151 -15.083 -41.212  1.00  0.00     0.016 A 
HETATM   29  C   UNL     1      -9.323 -14.448 -40.785  1.00  0.00    -0.056 A 
HETATM   30  C   UNL     1      -9.238 -13.142 -40.277  1.00  0.00    -0.056 A 
HETATM   31  C   UNL     1     -10.619 -15.213 -40.799  1.00  0.00     0.049 C 
HETATM   32  C   UNL     1     -10.450 -12.428 -39.738  1.00  0.00     0.049 C 
HETATM   33  C   UNL     1      -7.998 -12.484 -40.279  1.00  0.00     0.014 A 
HETATM   34  C   UNL     1      -6.818 -13.119 -40.702  1.00  0.00    -0.053 A 
HETATM   35  C   UNL     1      -5.532 -12.342 -40.635  1.00  0.00     0.049 C 
ENDBRANCH  26  27
ENDBRANCH   1  26
TORSDOF 5
ENDMDL
MODEL 10
REMARK VINA RESULT:      -9.1      3.411      5.379
REMARK  5 active torsions:
REMARK  status: ('A' for Active; 'I' for Inactive)
REMARK    1  A    between atoms: C_6  and  C_7 
REMARK    2  A    between atoms: C_7  and  N_8 
REMARK    3  A    between atoms: C_17  and  C_18 
REMARK    4  A    between atoms: C_18  and  N_19 
REMARK    5  A    between atoms: C_22  and  C_23 
REMARK       I    between atoms: C_23  and  N_24 
ROOT
HETATM    1  N   UNL     1      -5.411   4.224 -33.025  1.00  0.00    -0.061 N 
HETATM    2  H   UNL     1      -6.379   4.025 -32.751  1.00  0.00     0.280 HD
HETATM    3  C   UNL     1      -5.037   5.531 -32.342  1.00  0.00     0.276 C 
HETATM    4  C   UNL     1      -3.560   5.819 -32.417  1.00  0.00     0.002 A 
HETATM    5  C   UNL     1      -2.985   6.094 -33.657  1.00  0.00     0.076 A 
HETATM    6  O   UNL     1      -3.766   6.131 -34.778  1.00  0.00    -0.349 OA
HETATM    7  C   UNL     1      -4.138   4.799 -35.178  1.00  0.00     0.203 C 
HETATM    8  C   UNL     1      -5.464   4.360 -34.542  1.00  0.00     0.262 C 
HETATM    9  C   UNL     1      -2.713   5.663 -31.302  1.00  0.00     0.020 A 
HETATM   10  C   UNL     1      -1.311   5.766 -31.429  1.00  0.00    -0.032 A 
HETATM   11  C   UNL     1      -0.779   6.092 -32.687  1.00  0.00     0.011 A 
HETATM   12  C   UNL     1      -1.614   6.281 -33.791  1.00  0.00     0.038 A 
ENDROOT
BRANCH  10  13
HETATM   13  C   UNL     1      -0.430   5.351 -30.269  1.00  0.00     0.273 C 
BRANCH  13  14
HETATM   14  N   UNL     1      -0.378   6.263 -29.074  1.00  0.00    -0.066 N 
HETATM   15  H   UNL     1      -1.297   6.205 -28.596  1.00  0.00     0.280 HD
HETATM   16  C   UNL     1       0.635   5.833 -28.030  1.00  0.00     0.249 C 
HETATM   17  C   UNL     1       0.545   6.731 -26.794  1.00  0.00     0.103 C 
HETATM   18  C   UNL     1       0.704   8.205 -27.177  1.00  0.00     0.017 C 
HETATM   19  C   UNL     1      -0.266   8.619 -28.283  1.00  0.00     0.029 C 
HETATM   20  C   UNL     1      -0.189   7.702 -29.495  1.00  0.00     0.235 C 
BRANCH  17  21
HETATM   21  C   UNL     1      -0.787   6.497 -26.106  1.00  0.00     0.221 C 
HETATM   22  N   UNL     1      -1.088   5.211 -25.798  1.00  0.00    -0.370 N 
HETATM   23  H   UNL     1      -0.525   4.411 -26.060  1.00  0.00     0.159 HD
HETATM   24  H   UNL     1      -1.964   5.011 -25.325  1.00  0.00     0.159 HD
HETATM   25  O   UNL     1      -1.509   7.436 -25.777  1.00  0.00    -0.273 OA
ENDBRANCH  17  21
ENDBRANCH  13  14
ENDBRANCH  10  13
BRANCH   1  26
HETATM   26  C   UNL     1      -4.589   3.075 -32.494  1.00  0.00     0.274 C 
BRANCH  26  27
HETATM   27  C   UNL     1      -5.054   1.684 -32.814  1.00  0.00    -0.026 A 
HETATM   28  C   UNL     1      -6.135   1.548 -33.711  1.00  0.00     0.016 A 
HETATM   29  C   UNL     1      -6.556   0.298 -34.181  1.00  0.00    -0.056 A 
HETATM   30  C   UNL     1      -5.869  -0.849 -33.758  1.00  0.00    -0.056 A 
HETATM   31  C   UNL     1      -7.670   0.232 -35.191  1.00  0.00     0.049 C 
HETATM   32  C   UNL     1      -6.227  -2.217 -34.278  1.00  0.00     0.049 C 
HETATM   33  C   UNL     1      -4.829  -0.723 -32.823  1.00  0.00     0.014 A 
HETATM   34  C   UNL     1      -4.400   0.530 -32.352  1.00  0.00    -0.053 A 
HETATM   35  C   UNL     1      -3.255   0.566 -31.376  1.00  0.00     0.049 C 
ENDBRANCH  26  27
ENDBRANCH   1  26
TORSDOF 5
ENDMDL
