MODEL 1
REMARK VINA RESULT:      -8.7      0.000      0.000
REMARK  4 active torsions:
REMARK  status: ('A' for Active; 'I' for Inactive)
REMARK    1  A    between atoms: C_5  and  C_6 
REMARK    2  A    between atoms: C_9  and  C_10 
REMARK    3  A    between atoms: C_10  and  N_11 
REMARK       I    between atoms: N_11  and  C_12 
REMARK       I    between atoms: C_12  and  N_13 
REMARK    4  A    between atoms: N_13  and  C_14 
ROOT
HETATM    1  C   UNL     1      -5.860   4.513 -33.655  1.00  0.00     0.213 C 
ENDROOT
BRANCH   1   2
HETATM    2  C   UNL     1      -5.787   3.065 -33.349  1.00  0.00     0.190 A 
HETATM    3  O   UNL     1      -5.281   2.720 -32.132  1.00  0.00    -0.194 OA
HETATM    4  N   UNL     1      -5.236   1.329 -32.101  1.00  0.00    -0.106 NA
HETATM    5  C   UNL     1      -5.721   0.962 -33.299  1.00  0.00     0.189 A 
HETATM    6  N   UNL     1      -6.087   2.026 -34.101  1.00  0.00    -0.202 NA
BRANCH   5   7
HETATM    7  C   UNL     1      -5.832  -0.425 -33.740  1.00  0.00     0.014 A 
HETATM    8  C   UNL     1      -4.706  -1.259 -33.797  1.00  0.00     0.016 A 
HETATM    9  C   UNL     1      -4.816  -2.583 -34.234  1.00  0.00     0.007 A 
HETATM   10  C   UNL     1      -6.056  -3.098 -34.626  1.00  0.00    -0.062 A 
HETATM   11  C   UNL     1      -6.189  -4.522 -35.078  1.00  0.00     0.048 C 
HETATM   12  C   UNL     1      -7.185  -2.274 -34.563  1.00  0.00     0.007 A 
HETATM   13  C   UNL     1      -7.073  -0.950 -34.127  1.00  0.00     0.016 A 
ENDBRANCH   5   7
ENDBRANCH   1   2
BRANCH   1  14
HETATM   14  N   UNL     1      -4.547   5.118 -33.561  1.00  0.00    -0.335 N 
HETATM   15  C   UNL     1      -3.817   5.394 -34.672  1.00  0.00     0.321 C 
HETATM   16  N   UNL     1      -2.666   6.100 -34.517  1.00  0.00    -0.309 N 
HETATM   17  O   UNL     1      -4.196   5.104 -35.805  1.00  0.00    -0.247 OA
HETATM   18  H   UNL     1      -2.341   6.460 -35.407  1.00  0.00     0.170 HD
HETATM   19  H   UNL     1      -4.362   5.683 -32.746  1.00  0.00     0.164 HD
BRANCH  16  20
HETATM   20  C   UNL     1      -1.868   6.394 -33.398  1.00  0.00     0.036 A 
HETATM   21  C   UNL     1      -1.802   7.650 -32.789  1.00  0.00     0.029 A 
HETATM   22  C   UNL     1      -0.985   7.851 -31.671  1.00  0.00     0.002 A 
HETATM   23  C   UNL     1      -0.240   6.798 -31.147  1.00  0.00     0.000 A 
HETATM   24  C   UNL     1      -0.324   5.535 -31.728  1.00  0.00     0.002 A 
HETATM   25  C   UNL     1      -1.143   5.333 -32.840  1.00  0.00     0.029 A 
ENDBRANCH  16  20
ENDBRANCH   1  14
TORSDOF 4
ENDMDL
MODEL 2
REMARK VINA RESULT:      -8.5      1.825      2.442
REMARK  4 active torsions:
REMARK  status: ('A' for Active; 'I' for Inactive)
REMARK    1  A    between atoms: C_5  and  C_6 
REMARK    2  A    between atoms: C_9  and  C_10 
REMARK    3  A    between atoms: C_10  and  N_11 
REMARK       I    between atoms: N_11  and  C_12 
REMARK       I    between atoms: C_12  and  N_13 
REMARK    4  A    between atoms: N_13  and  C_14 
ROOT
HETATM    1  C   UNL     1      -4.971   2.981 -30.570  1.00  0.00     0.213 C 
ENDROOT
BRANCH   1   2
HETATM    2  C   UNL     1      -4.678   1.749 -31.339  1.00  0.00     0.190 A 
HETATM    3  O   UNL     1      -3.370   1.502 -31.626  1.00  0.00    -0.194 OA
HETATM    4  N   UNL     1      -3.345   0.353 -32.411  1.00  0.00    -0.106 NA
HETATM    5  C   UNL     1      -4.639   0.010 -32.523  1.00  0.00     0.189 A 
HETATM    6  N   UNL     1      -5.500   0.858 -31.852  1.00  0.00    -0.202 NA
BRANCH   5   7
HETATM    7  C   UNL     1      -5.112  -1.133 -33.299  1.00  0.00     0.014 A 
HETATM    8  C   UNL     1      -6.425  -1.180 -33.790  1.00  0.00     0.016 A 
HETATM    9  C   UNL     1      -6.877  -2.284 -34.521  1.00  0.00     0.007 A 
HETATM   10  C   UNL     1      -6.025  -3.364 -34.772  1.00  0.00    -0.062 A 
HETATM   11  C   UNL     1      -6.493  -4.544 -35.570  1.00  0.00     0.048 C 
HETATM   12  C   UNL     1      -4.711  -3.318 -34.291  1.00  0.00     0.007 A 
HETATM   13  C   UNL     1      -4.261  -2.215 -33.559  1.00  0.00     0.016 A 
ENDBRANCH   5   7
ENDBRANCH   1   2
BRANCH   1  14
HETATM   14  N   UNL     1      -3.971   3.995 -30.835  1.00  0.00    -0.335 N 
HETATM   15  C   UNL     1      -4.118   4.881 -31.854  1.00  0.00     0.321 C 
HETATM   16  N   UNL     1      -3.219   5.897 -31.947  1.00  0.00    -0.309 N 
HETATM   17  O   UNL     1      -5.066   4.845 -32.634  1.00  0.00    -0.247 OA
HETATM   18  H   UNL     1      -3.557   6.622 -32.569  1.00  0.00     0.170 HD
HETATM   19  H   UNL     1      -3.404   4.292 -30.055  1.00  0.00     0.164 HD
BRANCH  16  20
HETATM   20  C   UNL     1      -1.952   6.108 -31.377  1.00  0.00     0.036 A 
HETATM   21  C   UNL     1      -0.804   5.392 -31.727  1.00  0.00     0.029 A 
HETATM   22  C   UNL     1       0.420   5.677 -31.113  1.00  0.00     0.002 A 
HETATM   23  C   UNL     1       0.509   6.685 -30.156  1.00  0.00     0.000 A 
HETATM   24  C   UNL     1      -0.622   7.425 -29.825  1.00  0.00     0.002 A 
HETATM   25  C   UNL     1      -1.843   7.146 -30.441  1.00  0.00     0.029 A 
ENDBRANCH  16  20
ENDBRANCH   1  14
TORSDOF 4
ENDMDL
MODEL 3
REMARK VINA RESULT:      -8.3      1.838      2.725
REMARK  4 active torsions:
REMARK  status: ('A' for Active; 'I' for Inactive)
REMARK    1  A    between atoms: C_5  and  C_6 
REMARK    2  A    between atoms: C_9  and  C_10 
REMARK    3  A    between atoms: C_10  and  N_11 
REMARK       I    between atoms: N_11  and  C_12 
REMARK       I    between atoms: C_12  and  N_13 
REMARK    4  A    between atoms: N_13  and  C_14 
ROOT
HETATM    1  C   UNL     1      -6.607   3.417 -32.306  1.00  0.00     0.213 C 
ENDROOT
BRANCH   1   2
HETATM    2  C   UNL     1      -6.547   2.196 -33.143  1.00  0.00     0.190 A 
HETATM    3  O   UNL     1      -7.228   2.228 -34.322  1.00  0.00    -0.194 OA
HETATM    4  N   UNL     1      -7.096   0.964 -34.891  1.00  0.00    -0.106 NA
HETATM    5  C   UNL     1      -6.345   0.288 -34.005  1.00  0.00     0.189 A 
HETATM    6  N   UNL     1      -5.974   1.035 -32.904  1.00  0.00    -0.202 NA
BRANCH   5   7
HETATM    7  C   UNL     1      -5.970  -1.115 -34.162  1.00  0.00     0.014 A 
HETATM    8  C   UNL     1      -6.882  -2.056 -34.659  1.00  0.00     0.016 A 
HETATM    9  C   UNL     1      -6.521  -3.401 -34.794  1.00  0.00     0.007 A 
HETATM   10  C   UNL     1      -5.241  -3.831 -34.431  1.00  0.00    -0.062 A 
HETATM   11  C   UNL     1      -4.838  -5.267 -34.589  1.00  0.00     0.048 C 
HETATM   12  C   UNL     1      -4.324  -2.894 -33.942  1.00  0.00     0.007 A 
HETATM   13  C   UNL     1      -4.686  -1.550 -33.806  1.00  0.00     0.016 A 
ENDBRANCH   5   7
ENDBRANCH   1   2
BRANCH   1  14
HETATM   14  N   UNL     1      -5.293   4.017 -32.186  1.00  0.00    -0.335 N 
HETATM   15  C   UNL     1      -4.534   3.835 -31.074  1.00  0.00     0.321 C 
HETATM   16  N   UNL     1      -3.256   4.297 -31.096  1.00  0.00    -0.309 N 
HETATM   17  O   UNL     1      -4.929   3.205 -30.096  1.00  0.00    -0.247 OA
HETATM   18  H   UNL     1      -2.715   3.897 -30.338  1.00  0.00     0.170 HD
HETATM   19  H   UNL     1      -4.800   4.211 -33.044  1.00  0.00     0.164 HD
BRANCH  16  20
HETATM   20  C   UNL     1      -2.580   5.203 -31.930  1.00  0.00     0.036 A 
HETATM   21  C   UNL     1      -1.889   4.838 -33.089  1.00  0.00     0.029 A 
HETATM   22  C   UNL     1      -1.251   5.812 -33.866  1.00  0.00     0.002 A 
HETATM   23  C   UNL     1      -1.310   7.154 -33.499  1.00  0.00     0.000 A 
HETATM   24  C   UNL     1      -2.023   7.530 -32.365  1.00  0.00     0.002 A 
HETATM   25  C   UNL     1      -2.665   6.560 -31.592  1.00  0.00     0.029 A 
ENDBRANCH  16  20
ENDBRANCH   1  14
TORSDOF 4
ENDMDL
MODEL 4
REMARK VINA RESULT:      -8.2      1.738      2.756
REMARK  4 active torsions:
REMARK  status: ('A' for Active; 'I' for Inactive)
REMARK    1  A    between atoms: C_5  and  C_6 
REMARK    2  A    between atoms: C_9  and  C_10 
REMARK    3  A    between atoms: C_10  and  N_11 
REMARK       I    between atoms: N_11  and  C_12 
REMARK       I    between atoms: C_12  and  N_13 
REMARK    4  A    between atoms: N_13  and  C_14 
ROOT
HETATM    1  C   UNL     1      -4.164   6.044 -33.118  1.00  0.00     0.213 C 
ENDROOT
BRANCH   1   2
HETATM    2  C   UNL     1      -4.714   4.697 -32.838  1.00  0.00     0.190 A 
HETATM    3  O   UNL     1      -4.902   4.372 -31.529  1.00  0.00    -0.194 OA
HETATM    4  N   UNL     1      -5.344   3.052 -31.507  1.00  0.00    -0.106 NA
HETATM    5  C   UNL     1      -5.385   2.703 -32.804  1.00  0.00     0.189 A 
HETATM    6  N   UNL     1      -5.007   3.715 -33.665  1.00  0.00    -0.202 NA
BRANCH   5   7
HETATM    7  C   UNL     1      -5.764   1.374 -33.276  1.00  0.00     0.014 A 
HETATM    8  C   UNL     1      -6.586   1.214 -34.401  1.00  0.00     0.016 A 
HETATM    9  C   UNL     1      -6.958  -0.061 -34.840  1.00  0.00     0.007 A 
HETATM   10  C   UNL     1      -6.516  -1.201 -34.160  1.00  0.00    -0.062 A 
HETATM   11  C   UNL     1      -6.893  -2.573 -34.633  1.00  0.00     0.048 C 
HETATM   12  C   UNL     1      -5.689  -1.046 -33.042  1.00  0.00     0.007 A 
HETATM   13  C   UNL     1      -5.320   0.229 -32.603  1.00  0.00     0.016 A 
ENDBRANCH   5   7
ENDBRANCH   1   2
BRANCH   1  14
HETATM   14  N   UNL     1      -2.881   6.214 -32.465  1.00  0.00    -0.335 N 
HETATM   15  C   UNL     1      -1.866   6.884 -33.069  1.00  0.00     0.321 C 
HETATM   16  N   UNL     1      -0.748   7.136 -32.338  1.00  0.00    -0.309 N 
HETATM   17  O   UNL     1      -1.953   7.335 -34.209  1.00  0.00    -0.247 OA
HETATM   18  H   UNL     1      -0.175   7.841 -32.788  1.00  0.00     0.170 HD
HETATM   19  H   UNL     1      -2.876   6.198 -31.456  1.00  0.00     0.164 HD
BRANCH  16  20
HETATM   20  C   UNL     1      -0.253   6.608 -31.133  1.00  0.00     0.036 A 
HETATM   21  C   UNL     1       0.311   5.336 -31.007  1.00  0.00     0.029 A 
HETATM   22  C   UNL     1       0.788   4.895 -29.768  1.00  0.00     0.002 A 
HETATM   23  C   UNL     1       0.715   5.724 -28.651  1.00  0.00     0.000 A 
HETATM   24  C   UNL     1       0.184   7.005 -28.775  1.00  0.00     0.002 A 
HETATM   25  C   UNL     1      -0.286   7.448 -30.013  1.00  0.00     0.029 A 
ENDBRANCH  16  20
ENDBRANCH   1  14
TORSDOF 4
ENDMDL
MODEL 5
REMARK VINA RESULT:      -8.1      4.358      7.280
REMARK  4 active torsions:
REMARK  status: ('A' for Active; 'I' for Inactive)
REMARK    1  A    between atoms: C_5  and  C_6 
REMARK    2  A    between atoms: C_9  and  C_10 
REMARK    3  A    between atoms: C_10  and  N_11 
REMARK       I    between atoms: N_11  and  C_12 
REMARK       I    between atoms: C_12  and  N_13 
REMARK    4  A    between atoms: N_13  and  C_14 
ROOT
HETATM    1  C   UNL     1      -8.015   4.029 -33.785  1.00  0.00     0.213 C 
ENDROOT
BRANCH   1   2
HETATM    2  C   UNL     1      -7.266   2.774 -33.538  1.00  0.00     0.190 A 
HETATM    3  O   UNL     1      -6.195   2.855 -32.700  1.00  0.00    -0.194 OA
HETATM    4  N   UNL     1      -5.609   1.593 -32.683  1.00  0.00    -0.106 NA
HETATM    5  C   UNL     1      -6.381   0.866 -33.509  1.00  0.00     0.189 A 
HETATM    6  N   UNL     1      -7.435   1.575 -34.053  1.00  0.00    -0.202 NA
BRANCH   5   7
HETATM    7  C   UNL     1      -6.127  -0.535 -33.835  1.00  0.00     0.014 A 
HETATM    8  C   UNL     1      -4.835  -1.073 -33.758  1.00  0.00     0.016 A 
HETATM    9  C   UNL     1      -4.596  -2.412 -34.086  1.00  0.00     0.007 A 
HETATM   10  C   UNL     1      -5.646  -3.237 -34.499  1.00  0.00    -0.062 A 
HETATM   11  C   UNL     1      -5.405  -4.679 -34.834  1.00  0.00     0.048 C 
HETATM   12  C   UNL     1      -6.939  -2.708 -34.569  1.00  0.00     0.007 A 
HETATM   13  C   UNL     1      -7.176  -1.369 -34.243  1.00  0.00     0.016 A 
ENDBRANCH   5   7
ENDBRANCH   1   2
BRANCH   1  14
HETATM   14  N   UNL     1      -9.418   3.746 -34.016  1.00  0.00    -0.335 N 
HETATM   15  C   UNL     1     -10.155   4.496 -34.875  1.00  0.00     0.321 C 
HETATM   16  N   UNL     1     -11.418   4.080 -35.157  1.00  0.00    -0.309 N 
HETATM   17  O   UNL     1      -9.702   5.477 -35.459  1.00  0.00    -0.247 OA
HETATM   18  H   UNL     1     -11.779   4.554 -35.977  1.00  0.00     0.170 HD
HETATM   19  H   UNL     1      -9.722   2.796 -33.868  1.00  0.00     0.164 HD
BRANCH  16  20
HETATM   20  C   UNL     1     -12.285   3.165 -34.536  1.00  0.00     0.036 A 
HETATM   21  C   UNL     1     -13.084   3.467 -33.430  1.00  0.00     0.029 A 
HETATM   22  C   UNL     1     -13.926   2.494 -32.881  1.00  0.00     0.002 A 
HETATM   23  C   UNL     1     -13.987   1.220 -33.440  1.00  0.00     0.000 A 
HETATM   24  C   UNL     1     -13.219   0.920 -34.562  1.00  0.00     0.002 A 
HETATM   25  C   UNL     1     -12.383   1.892 -35.114  1.00  0.00     0.029 A 
ENDBRANCH  16  20
ENDBRANCH   1  14
TORSDOF 4
ENDMDL
MODEL 6
REMARK VINA RESULT:      -8.1      1.220      8.212
REMARK  4 active torsions:
REMARK  status: ('A' for Active; 'I' for Inactive)
REMARK    1  A    between atoms: C_5  and  C_6 
REMARK    2  A    between atoms: C_9  and  C_10 
REMARK    3  A    between atoms: C_10  and  N_11 
REMARK       I    between atoms: N_11  and  C_12 
REMARK       I    between atoms: C_12  and  N_13 
REMARK    4  A    between atoms: N_13  and  C_14 
ROOT
HETATM    1  C   UNL     1      -7.046   3.565 -33.887  1.00  0.00     0.213 C 
ENDROOT
BRANCH   1   2
HETATM    2  C   UNL     1      -5.753   4.288 -33.881  1.00  0.00     0.190 A 
HETATM    3  O   UNL     1      -5.245   4.645 -35.094  1.00  0.00    -0.194 OA
HETATM    4  N   UNL     1      -4.006   5.231 -34.848  1.00  0.00    -0.106 NA
HETATM    5  C   UNL     1      -3.882   5.177 -33.511  1.00  0.00     0.189 A 
HETATM    6  N   UNL     1      -4.965   4.602 -32.874  1.00  0.00    -0.202 NA
BRANCH   5   7
HETATM    7  C   UNL     1      -2.708   5.651 -32.785  1.00  0.00     0.014 A 
HETATM    8  C   UNL     1      -2.265   6.976 -32.912  1.00  0.00     0.016 A 
HETATM    9  C   UNL     1      -1.130   7.420 -32.224  1.00  0.00     0.007 A 
HETATM   10  C   UNL     1      -0.415   6.547 -31.399  1.00  0.00    -0.062 A 
HETATM   11  C   UNL     1       0.791   7.018 -30.642  1.00  0.00     0.048 C 
HETATM   12  C   UNL     1      -0.858   5.227 -31.262  1.00  0.00     0.007 A 
HETATM   13  C   UNL     1      -1.991   4.783 -31.951  1.00  0.00     0.016 A 
ENDBRANCH   5   7
ENDBRANCH   1   2
BRANCH   1  14
HETATM   14  N   UNL     1      -6.842   2.156 -33.617  1.00  0.00    -0.335 N 
HETATM   15  C   UNL     1      -7.067   1.635 -32.384  1.00  0.00     0.321 C 
HETATM   16  N   UNL     1      -7.003   0.284 -32.244  1.00  0.00    -0.309 N 
HETATM   17  O   UNL     1      -7.403   2.323 -31.423  1.00  0.00    -0.247 OA
HETATM   18  H   UNL     1      -7.425  -0.008 -31.370  1.00  0.00     0.170 HD
HETATM   19  H   UNL     1      -6.929   1.524 -34.399  1.00  0.00     0.164 HD
BRANCH  16  20
HETATM   20  C   UNL     1      -6.466  -0.737 -33.047  1.00  0.00     0.036 A 
HETATM   21  C   UNL     1      -7.203  -1.471 -33.980  1.00  0.00     0.029 A 
HETATM   22  C   UNL     1      -6.582  -2.465 -34.745  1.00  0.00     0.002 A 
HETATM   23  C   UNL     1      -5.222  -2.723 -34.592  1.00  0.00     0.000 A 
HETATM   24  C   UNL     1      -4.474  -1.974 -33.688  1.00  0.00     0.002 A 
HETATM   25  C   UNL     1      -5.091  -0.978 -32.929  1.00  0.00     0.029 A 
ENDBRANCH  16  20
ENDBRANCH   1  14
TORSDOF 4
ENDMDL
MODEL 7
REMARK VINA RESULT:      -8.0      3.232      9.378
REMARK  4 active torsions:
REMARK  status: ('A' for Active; 'I' for Inactive)
REMARK    1  A    between atoms: C_5  and  C_6 
REMARK    2  A    between atoms: C_9  and  C_10 
REMARK    3  A    between atoms: C_10  and  N_11 
REMARK       I    between atoms: N_11  and  C_12 
REMARK       I    between atoms: C_12  and  N_13 
REMARK    4  A    between atoms: N_13  and  C_14 
ROOT
HETATM    1  C   UNL     1      -3.091   5.096 -32.298  1.00  0.00     0.213 C 
ENDROOT
BRANCH   1   2
HETATM    2  C   UNL     1      -1.929   5.324 -31.407  1.00  0.00     0.190 A 
HETATM    3  O   UNL     1      -0.923   4.407 -31.466  1.00  0.00    -0.194 OA
HETATM    4  N   UNL     1       0.009   4.778 -30.500  1.00  0.00    -0.106 NA
HETATM    5  C   UNL     1      -0.518   5.884 -29.950  1.00  0.00     0.189 A 
HETATM    6  N   UNL     1      -1.727   6.260 -30.504  1.00  0.00    -0.202 NA
BRANCH   5   7
HETATM    7  C   UNL     1       0.100   6.618 -28.849  1.00  0.00     0.014 A 
HETATM    8  C   UNL     1       0.863   7.771 -29.087  1.00  0.00     0.016 A 
HETATM    9  C   UNL     1       1.466   8.462 -28.030  1.00  0.00     0.007 A 
HETATM   10  C   UNL     1       1.318   8.011 -26.715  1.00  0.00    -0.062 A 
HETATM   11  C   UNL     1       1.944   8.755 -25.572  1.00  0.00     0.048 C 
HETATM   12  C   UNL     1       0.551   6.867 -26.471  1.00  0.00     0.007 A 
HETATM   13  C   UNL     1      -0.049   6.176 -27.528  1.00  0.00     0.016 A 
ENDBRANCH   5   7
ENDBRANCH   1   2
BRANCH   1  14
HETATM   14  N   UNL     1      -3.598   3.748 -32.137  1.00  0.00    -0.335 N 
HETATM   15  C   UNL     1      -4.547   3.459 -31.210  1.00  0.00     0.321 C 
HETATM   16  N   UNL     1      -5.084   2.210 -31.220  1.00  0.00    -0.309 N 
HETATM   17  O   UNL     1      -4.989   4.297 -30.427  1.00  0.00    -0.247 OA
HETATM   18  H   UNL     1      -5.936   2.179 -30.671  1.00  0.00     0.170 HD
HETATM   19  H   UNL     1      -3.553   3.144 -32.944  1.00  0.00     0.164 HD
BRANCH  16  20
HETATM   20  C   UNL     1      -4.682   1.000 -31.811  1.00  0.00     0.036 A 
HETATM   21  C   UNL     1      -5.228   0.482 -32.988  1.00  0.00     0.029 A 
HETATM   22  C   UNL     1      -4.759  -0.728 -33.511  1.00  0.00     0.002 A 
HETATM   23  C   UNL     1      -3.735  -1.421 -32.871  1.00  0.00     0.000 A 
HETATM   24  C   UNL     1      -3.162  -0.895 -31.716  1.00  0.00     0.002 A 
HETATM   25  C   UNL     1      -3.626   0.315 -31.196  1.00  0.00     0.029 A 
ENDBRANCH  16  20
ENDBRANCH   1  14
TORSDOF 4
ENDMDL
MODEL 8
REMARK VINA RESULT:      -8.0      2.363      8.210
REMARK  4 active torsions:
REMARK  status: ('A' for Active; 'I' for Inactive)
REMARK    1  A    between atoms: C_5  and  C_6 
REMARK    2  A    between atoms: C_9  and  C_10 
REMARK    3  A    between atoms: C_10  and  N_11 
REMARK       I    between atoms: N_11  and  C_12 
REMARK       I    between atoms: C_12  and  N_13 
REMARK    4  A    between atoms: N_13  and  C_14 
ROOT
HETATM    1  C   UNL     1      -7.436   0.518 -31.728  1.00  0.00     0.213 C 
ENDROOT
BRANCH   1   2
HETATM    2  C   UNL     1      -6.375   1.532 -31.526  1.00  0.00     0.190 A 
HETATM    3  O   UNL     1      -6.216   2.008 -30.259  1.00  0.00    -0.194 OA
HETATM    4  N   UNL     1      -5.234   2.992 -30.325  1.00  0.00    -0.106 NA
HETATM    5  C   UNL     1      -4.888   3.017 -31.623  1.00  0.00     0.189 A 
HETATM    6  N   UNL     1      -5.577   2.106 -32.401  1.00  0.00    -0.202 NA
BRANCH   5   7
HETATM    7  C   UNL     1      -3.899   3.934 -32.183  1.00  0.00     0.014 A 
HETATM    8  C   UNL     1      -2.593   3.986 -31.675  1.00  0.00     0.016 A 
HETATM    9  C   UNL     1      -1.653   4.877 -32.206  1.00  0.00     0.007 A 
HETATM   10  C   UNL     1      -2.004   5.735 -33.252  1.00  0.00    -0.062 A 
HETATM   11  C   UNL     1      -1.000   6.681 -33.841  1.00  0.00     0.048 C 
HETATM   12  C   UNL     1      -3.304   5.681 -33.768  1.00  0.00     0.007 A 
HETATM   13  C   UNL     1      -4.242   4.792 -33.236  1.00  0.00     0.016 A 
ENDBRANCH   5   7
ENDBRANCH   1   2
BRANCH   1  14
HETATM   14  N   UNL     1      -7.011  -0.476 -32.694  1.00  0.00    -0.335 N 
HETATM   15  C   UNL     1      -7.468  -0.458 -33.972  1.00  0.00     0.321 C 
HETATM   16  N   UNL     1      -6.910  -1.324 -34.859  1.00  0.00    -0.309 N 
HETATM   17  O   UNL     1      -8.297   0.358 -34.370  1.00  0.00    -0.247 OA
HETATM   18  H   UNL     1      -7.136  -1.061 -35.811  1.00  0.00     0.170 HD
HETATM   19  H   UNL     1      -6.111  -0.906 -32.540  1.00  0.00     0.164 HD
BRANCH  16  20
HETATM   20  C   UNL     1      -6.126  -2.480 -34.703  1.00  0.00     0.036 A 
HETATM   21  C   UNL     1      -4.785  -2.472 -34.309  1.00  0.00     0.029 A 
HETATM   22  C   UNL     1      -4.083  -3.674 -34.170  1.00  0.00     0.002 A 
HETATM   23  C   UNL     1      -4.717  -4.890 -34.411  1.00  0.00     0.000 A 
HETATM   24  C   UNL     1      -6.062  -4.909 -34.772  1.00  0.00     0.002 A 
HETATM   25  C   UNL     1      -6.765  -3.710 -34.905  1.00  0.00     0.029 A 
ENDBRANCH  16  20
ENDBRANCH   1  14
TORSDOF 4
ENDMDL
MODEL 9
REMARK VINA RESULT:      -8.0      5.175      7.900
REMARK  4 active torsions:
REMARK  status: ('A' for Active; 'I' for Inactive)
REMARK    1  A    between atoms: C_5  and  C_6 
REMARK    2  A    between atoms: C_9  and  C_10 
REMARK    3  A    between atoms: C_10  and  N_11 
REMARK       I    between atoms: N_11  and  C_12 
REMARK       I    between atoms: C_12  and  N_13 
REMARK    4  A    between atoms: N_13  and  C_14 
ROOT
HETATM    1  C   UNL     1      -8.413   2.761 -33.344  1.00  0.00     0.213 C 
ENDROOT
BRANCH   1   2
HETATM    2  C   UNL     1      -7.866   1.501 -33.900  1.00  0.00     0.190 A 
HETATM    3  O   UNL     1      -8.487   0.998 -35.003  1.00  0.00    -0.194 OA
HETATM    4  N   UNL     1      -7.861  -0.211 -35.294  1.00  0.00    -0.106 NA
HETATM    5  C   UNL     1      -6.918  -0.324 -34.343  1.00  0.00     0.189 A 
HETATM    6  N   UNL     1      -6.887   0.738 -33.461  1.00  0.00    -0.202 NA
BRANCH   5   7
HETATM    7  C   UNL     1      -6.020  -1.470 -34.222  1.00  0.00     0.014 A 
HETATM    8  C   UNL     1      -6.329  -2.698 -34.825  1.00  0.00     0.016 A 
HETATM    9  C   UNL     1      -5.472  -3.795 -34.694  1.00  0.00     0.007 A 
HETATM   10  C   UNL     1      -4.291  -3.686 -33.954  1.00  0.00    -0.062 A 
HETATM   11  C   UNL     1      -3.355  -4.851 -33.822  1.00  0.00     0.048 C 
HETATM   12  C   UNL     1      -3.973  -2.461 -33.358  1.00  0.00     0.007 A 
HETATM   13  C   UNL     1      -4.832  -1.365 -33.488  1.00  0.00     0.016 A 
ENDBRANCH   5   7
ENDBRANCH   1   2
BRANCH   1  14
HETATM   14  N   UNL     1      -9.841   2.842 -33.578  1.00  0.00    -0.335 N 
HETATM   15  C   UNL     1     -10.391   3.907 -34.216  1.00  0.00     0.321 C 
HETATM   16  N   UNL     1     -11.710   3.843 -34.536  1.00  0.00    -0.309 N 
HETATM   17  O   UNL     1      -9.730   4.877 -34.581  1.00  0.00    -0.247 OA
HETATM   18  H   UNL     1     -11.952   4.557 -35.214  1.00  0.00     0.170 HD
HETATM   19  H   UNL     1     -10.344   1.970 -33.636  1.00  0.00     0.164 HD
BRANCH  16  20
HETATM   20  C   UNL     1     -12.761   3.015 -34.104  1.00  0.00     0.036 A 
HETATM   21  C   UNL     1     -13.195   1.877 -34.789  1.00  0.00     0.029 A 
HETATM   22  C   UNL     1     -14.245   1.105 -34.279  1.00  0.00     0.002 A 
HETATM   23  C   UNL     1     -14.858   1.456 -33.079  1.00  0.00     0.000 A 
HETATM   24  C   UNL     1     -14.410   2.570 -32.374  1.00  0.00     0.002 A 
HETATM   25  C   UNL     1     -13.359   3.338 -32.879  1.00  0.00     0.029 A 
ENDBRANCH  16  20
ENDBRANCH   1  14
TORSDOF 4
ENDMDL
MODEL 10
REMARK VINA RESULT:      -7.8      1.850      8.793
REMARK  4 active torsions:
REMARK  status: ('A' for Active; 'I' for Inactive)
REMARK    1  A    between atoms: C_5  and  C_6 
REMARK    2  A    between atoms: C_9  and  C_10 
REMARK    3  A    between atoms: C_10  and  N_11 
REMARK       I    between atoms: N_11  and  C_12 
REMARK       I    between atoms: C_12  and  N_13 
REMARK    4  A    between atoms: N_13  and  C_14 
ROOT
HETATM    1  C   UNL     1      -5.309   4.215 -33.178  1.00  0.00     0.213 C 
ENDROOT
BRANCH   1   2
HETATM    2  C   UNL     1      -3.974   4.483 -32.593  1.00  0.00     0.190 A 
HETATM    3  O   UNL     1      -3.013   3.542 -32.804  1.00  0.00    -0.194 OA
HETATM    4  N   UNL     1      -1.885   3.963 -32.106  1.00  0.00    -0.106 NA
HETATM    5  C   UNL     1      -2.267   5.121 -31.542  1.00  0.00     0.189 A 
HETATM    6  N   UNL     1      -3.568   5.481 -31.836  1.00  0.00    -0.202 NA
BRANCH   5   7
HETATM    7  C   UNL     1      -1.411   5.922 -30.671  1.00  0.00     0.014 A 
HETATM    8  C   UNL     1      -1.756   7.238 -30.330  1.00  0.00     0.016 A 
HETATM    9  C   UNL     1      -0.925   8.005 -29.507  1.00  0.00     0.007 A 
HETATM   10  C   UNL     1       0.270   7.472 -29.013  1.00  0.00    -0.062 A 
HETATM   11  C   UNL     1       1.160   8.280 -28.115  1.00  0.00     0.048 C 
HETATM   12  C   UNL     1       0.615   6.157 -29.344  1.00  0.00     0.007 A 
HETATM   13  C   UNL     1      -0.216   5.391 -30.168  1.00  0.00     0.016 A 
ENDBRANCH   5   7
ENDBRANCH   1   2
BRANCH   1  14
HETATM   14  N   UNL     1      -5.628   2.804 -33.090  1.00  0.00    -0.335 N 
HETATM   15  C   UNL     1      -6.289   2.296 -32.018  1.00  0.00     0.321 C 
HETATM   16  N   UNL     1      -6.688   0.998 -32.075  1.00  0.00    -0.309 N 
HETATM   17  O   UNL     1      -6.606   2.980 -31.047  1.00  0.00    -0.247 OA
HETATM   18  H   UNL     1      -7.373   0.800 -31.355  1.00  0.00     0.170 HD
HETATM   19  H   UNL     1      -5.724   2.303 -33.960  1.00  0.00     0.164 HD
BRANCH  16  20
HETATM   20  C   UNL     1      -6.327  -0.078 -32.903  1.00  0.00     0.036 A 
HETATM   21  C   UNL     1      -5.134  -0.796 -32.781  1.00  0.00     0.029 A 
HETATM   22  C   UNL     1      -4.861  -1.862 -33.646  1.00  0.00     0.002 A 
HETATM   23  C   UNL     1      -5.780  -2.225 -34.626  1.00  0.00     0.000 A 
HETATM   24  C   UNL     1      -6.985  -1.537 -34.733  1.00  0.00     0.002 A 
HETATM   25  C   UNL     1      -7.262  -0.477 -33.867  1.00  0.00     0.029 A 
ENDBRANCH  16  20
ENDBRANCH   1  14
TORSDOF 4
ENDMDL
