MODEL 1
REMARK VINA RESULT:      -9.6      0.000      0.000
REMARK  7 active torsions:
REMARK  status: ('A' for Active; 'I' for Inactive)
REMARK    1  A    between atoms: C_7  and  C_8 
REMARK    2  A    between atoms: C_8  and  C_9 
REMARK    3  A    between atoms: C_9  and  C_10 
REMARK    4  A    between atoms: C_10  and  O_11 
REMARK    5  A    between atoms: C_13  and  C_14 
REMARK    6  A    between atoms: C_21  and  C_22 
REMARK       I    between atoms: C_22  and  N_23 
REMARK    7  A    between atoms: N_23  and  C_24 
ROOT
HETATM    1  C   UNL     1      -6.151   1.794 -29.621  1.00  0.00     0.070 C 
HETATM    2  C   UNL     1      -6.682   1.382 -30.973  1.00  0.00     0.037 C 
HETATM    3  N   UNL     1      -8.046   1.079 -31.015  1.00  0.00    -0.192 N 
HETATM    4  C   UNL     1      -8.725   0.991 -32.177  1.00  0.00     0.726 A 
HETATM    5  N   UNL     1      -8.025   0.893 -33.345  1.00  0.00    -0.083 N 
HETATM    6  N   UNL     1      -8.838   0.934 -34.420  1.00  0.00    -0.140 NA
HETATM    7  C   UNL     1     -10.034   1.025 -33.819  1.00  0.00     0.166 A 
HETATM    8  N   UNL     1     -10.004   1.048 -32.443  1.00  0.00    -0.046 NA
HETATM    9  C   UNL     1      -6.565   0.848 -33.418  1.00  0.00     0.202 C 
HETATM   10  C   UNL     1      -5.935   1.313 -32.107  1.00  0.00     0.062 C 
HETATM   11  H   UNL     1      -8.582   1.298 -30.178  1.00  0.00     0.184 HD
ENDROOT
BRANCH  10  12
HETATM   12  C   UNL     1      -4.562   1.913 -32.163  1.00  0.00     0.256 C 
HETATM   13  N   UNL     1      -4.527   3.262 -32.450  1.00  0.00    -0.323 N 
HETATM   14  H   UNL     1      -5.385   3.719 -32.725  1.00  0.00     0.169 HD
HETATM   15  O   UNL     1      -3.591   1.214 -31.893  1.00  0.00    -0.267 OA
BRANCH  13  16
HETATM   16  C   UNL     1      -3.404   4.118 -32.387  1.00  0.00     0.035 A 
HETATM   17  C   UNL     1      -2.450   4.239 -33.400  1.00  0.00     0.031 A 
HETATM   18  C   UNL     1      -1.350   5.090 -33.244  1.00  0.00     0.026 A 
HETATM   19  C   UNL     1      -1.195   5.818 -32.069  1.00  0.00     0.034 A 
HETATM   20 CL   UNL     1       0.165   6.852 -31.871  1.00  0.00    -0.084 Cl
HETATM   21  C   UNL     1      -2.138   5.711 -31.051  1.00  0.00     0.026 A 
HETATM   22  C   UNL     1      -3.242   4.868 -31.213  1.00  0.00     0.031 A 
ENDBRANCH  13  16
ENDBRANCH  10  12
BRANCH   9  23
HETATM   23  C   UNL     1      -6.140  -0.563 -33.836  1.00  0.00    -0.028 A 
HETATM   24  C   UNL     1      -7.117  -1.489 -34.252  1.00  0.00     0.012 A 
HETATM   25  C   UNL     1      -6.752  -2.781 -34.635  1.00  0.00     0.043 A 
HETATM   26  C   UNL     1      -5.416  -3.159 -34.601  1.00  0.00     0.116 A 
HETATM   27  F   UNL     1      -5.070  -4.398 -34.971  1.00  0.00    -0.206 F 
HETATM   28  C   UNL     1      -4.434  -2.270 -34.181  1.00  0.00     0.043 A 
HETATM   29  C   UNL     1      -4.794  -0.978 -33.793  1.00  0.00     0.012 A 
ENDBRANCH   9  23
BRANCH   7  30
HETATM   30  C   UNL     1     -11.298   1.153 -34.589  1.00  0.00     0.085 C 
BRANCH  30  31
HETATM   31  C   UNL     1     -12.536   1.249 -33.697  1.00  0.00     0.034 C 
BRANCH  31  32
HETATM   32  C   UNL     1     -13.615   0.230 -34.052  1.00  0.00     0.164 C 
BRANCH  32  33
HETATM   33  O   UNL     1     -13.301  -1.026 -33.460  1.00  0.00    -0.401 OA
HETATM   34  H   UNL     1     -14.109  -1.567 -33.470  1.00  0.00     0.209 HD
ENDBRANCH  32  33
ENDBRANCH  31  32
ENDBRANCH  30  31
ENDBRANCH   7  30
TORSDOF 7
ENDMDL
MODEL 2
REMARK VINA RESULT:      -9.1      1.962      2.304
REMARK  7 active torsions:
REMARK  status: ('A' for Active; 'I' for Inactive)
REMARK    1  A    between atoms: C_7  and  C_8 
REMARK    2  A    between atoms: C_8  and  C_9 
REMARK    3  A    between atoms: C_9  and  C_10 
REMARK    4  A    between atoms: C_10  and  O_11 
REMARK    5  A    between atoms: C_13  and  C_14 
REMARK    6  A    between atoms: C_21  and  C_22 
REMARK       I    between atoms: C_22  and  N_23 
REMARK    7  A    between atoms: N_23  and  C_24 
ROOT
HETATM    1  C   UNL     1      -8.398   4.207 -30.112  1.00  0.00     0.070 C 
HETATM    2  C   UNL     1      -8.713   3.422 -31.362  1.00  0.00     0.037 C 
HETATM    3  N   UNL     1      -9.969   2.809 -31.384  1.00  0.00    -0.192 N 
HETATM    4  C   UNL     1     -10.515   2.335 -32.522  1.00  0.00     0.726 A 
HETATM    5  N   UNL     1      -9.718   2.171 -33.619  1.00  0.00    -0.083 N 
HETATM    6  N   UNL     1     -10.430   1.806 -34.704  1.00  0.00    -0.140 NA
HETATM    7  C   UNL     1     -11.661   1.736 -34.178  1.00  0.00     0.166 A 
HETATM    8  N   UNL     1     -11.750   2.040 -32.838  1.00  0.00    -0.046 NA
HETATM    9  C   UNL     1      -8.283   2.452 -33.631  1.00  0.00     0.202 C 
HETATM   10  C   UNL     1      -7.879   3.303 -32.429  1.00  0.00     0.062 C 
HETATM   11  H   UNL     1     -10.607   3.060 -30.632  1.00  0.00     0.184 HD
ENDROOT
BRANCH  10  12
HETATM   12  C   UNL     1      -6.673   4.182 -32.566  1.00  0.00     0.256 C 
HETATM   13  N   UNL     1      -5.589   3.807 -31.800  1.00  0.00    -0.323 N 
HETATM   14  H   UNL     1      -5.712   3.070 -31.119  1.00  0.00     0.169 HD
HETATM   15  O   UNL     1      -6.693   5.107 -33.371  1.00  0.00    -0.267 OA
BRANCH  13  16
HETATM   16  C   UNL     1      -4.278   4.331 -31.863  1.00  0.00     0.035 A 
HETATM   17  C   UNL     1      -3.281   3.853 -32.716  1.00  0.00     0.031 A 
HETATM   18  C   UNL     1      -1.997   4.411 -32.693  1.00  0.00     0.026 A 
HETATM   19  C   UNL     1      -1.704   5.446 -31.810  1.00  0.00     0.034 A 
HETATM   20 CL   UNL     1      -0.122   6.120 -31.772  1.00  0.00    -0.084 Cl
HETATM   21  C   UNL     1      -2.687   5.935 -30.955  1.00  0.00     0.026 A 
HETATM   22  C   UNL     1      -3.971   5.383 -30.986  1.00  0.00     0.031 A 
ENDBRANCH  13  16
ENDBRANCH  10  12
BRANCH   9  23
HETATM   23  C   UNL     1      -7.525   1.124 -33.724  1.00  0.00    -0.028 A 
HETATM   24  C   UNL     1      -7.358   0.506 -34.979  1.00  0.00     0.012 A 
HETATM   25  C   UNL     1      -6.673  -0.705 -35.088  1.00  0.00     0.043 A 
HETATM   26  C   UNL     1      -6.157  -1.310 -33.949  1.00  0.00     0.116 A 
HETATM   27  F   UNL     1      -5.499  -2.471 -34.057  1.00  0.00    -0.206 F 
HETATM   28  C   UNL     1      -6.320  -0.730 -32.697  1.00  0.00     0.043 A 
HETATM   29  C   UNL     1      -7.008   0.480 -32.583  1.00  0.00     0.012 A 
ENDBRANCH   9  23
BRANCH   7  30
HETATM   30  C   UNL     1     -12.855   1.410 -34.999  1.00  0.00     0.085 C 
BRANCH  30  31
HETATM   31  C   UNL     1     -13.780   0.389 -34.335  1.00  0.00     0.034 C 
BRANCH  31  32
HETATM   32  C   UNL     1     -15.212   0.890 -34.171  1.00  0.00     0.164 C 
BRANCH  32  33
HETATM   33  O   UNL     1     -16.067   0.199 -35.075  1.00  0.00    -0.401 OA
HETATM   34  H   UNL     1     -16.927   0.653 -35.073  1.00  0.00     0.209 HD
ENDBRANCH  32  33
ENDBRANCH  31  32
ENDBRANCH  30  31
ENDBRANCH   7  30
TORSDOF 7
ENDMDL
MODEL 3
REMARK VINA RESULT:      -8.9      4.164      7.776
REMARK  7 active torsions:
REMARK  status: ('A' for Active; 'I' for Inactive)
REMARK    1  A    between atoms: C_7  and  C_8 
REMARK    2  A    between atoms: C_8  and  C_9 
REMARK    3  A    between atoms: C_9  and  C_10 
REMARK    4  A    between atoms: C_10  and  O_11 
REMARK    5  A    between atoms: C_13  and  C_14 
REMARK    6  A    between atoms: C_21  and  C_22 
REMARK       I    between atoms: C_22  and  N_23 
REMARK    7  A    between atoms: N_23  and  C_24 
ROOT
HETATM    1  C   UNL     1      -9.196   3.612 -32.664  1.00  0.00     0.070 C 
HETATM    2  C   UNL     1      -7.898   4.159 -32.121  1.00  0.00     0.037 C 
HETATM    3  N   UNL     1      -7.933   5.496 -31.716  1.00  0.00    -0.192 N 
HETATM    4  C   UNL     1      -6.968   6.037 -30.946  1.00  0.00     0.726 A 
HETATM    5  N   UNL     1      -5.784   5.371 -30.804  1.00  0.00    -0.083 N 
HETATM    6  N   UNL     1      -4.972   5.976 -29.915  1.00  0.00    -0.140 NA
HETATM    7  C   UNL     1      -5.725   7.034 -29.577  1.00  0.00     0.166 A 
HETATM    8  N   UNL     1      -6.950   7.112 -30.200  1.00  0.00    -0.046 NA
HETATM    9  C   UNL     1      -5.480   4.103 -31.468  1.00  0.00     0.202 C 
HETATM   10  C   UNL     1      -6.751   3.440 -31.995  1.00  0.00     0.062 C 
HETATM   11  H   UNL     1      -8.852   5.934 -31.687  1.00  0.00     0.184 HD
ENDROOT
BRANCH  10  12
HETATM   12  C   UNL     1      -6.758   1.948 -32.132  1.00  0.00     0.256 C 
HETATM   13  N   UNL     1      -6.361   1.473 -33.365  1.00  0.00    -0.323 N 
HETATM   14  H   UNL     1      -6.221   2.136 -34.114  1.00  0.00     0.169 HD
HETATM   15  O   UNL     1      -7.038   1.258 -31.157  1.00  0.00    -0.267 OA
BRANCH  13  16
HETATM   16  C   UNL     1      -6.097   0.130 -33.717  1.00  0.00     0.035 A 
HETATM   17  C   UNL     1      -4.876  -0.513 -33.504  1.00  0.00     0.031 A 
HETATM   18  C   UNL     1      -4.690  -1.840 -33.912  1.00  0.00     0.026 A 
HETATM   19  C   UNL     1      -5.724  -2.525 -34.542  1.00  0.00     0.034 A 
HETATM   20 CL   UNL     1      -5.489  -4.149 -35.056  1.00  0.00    -0.084 Cl
HETATM   21  C   UNL     1      -6.947  -1.899 -34.759  1.00  0.00     0.026 A 
HETATM   22  C   UNL     1      -7.135  -0.578 -34.342  1.00  0.00     0.031 A 
ENDBRANCH  13  16
ENDBRANCH  10  12
BRANCH   9  23
HETATM   23  C   UNL     1      -4.427   4.358 -32.550  1.00  0.00    -0.028 A 
HETATM   24  C   UNL     1      -3.084   4.006 -32.310  1.00  0.00     0.012 A 
HETATM   25  C   UNL     1      -2.106   4.231 -33.280  1.00  0.00     0.043 A 
HETATM   26  C   UNL     1      -2.459   4.813 -34.491  1.00  0.00     0.116 A 
HETATM   27  F   UNL     1      -1.519   5.026 -35.421  1.00  0.00    -0.206 F 
HETATM   28  C   UNL     1      -3.773   5.183 -34.749  1.00  0.00     0.043 A 
HETATM   29  C   UNL     1      -4.754   4.963 -33.779  1.00  0.00     0.012 A 
ENDBRANCH   9  23
BRANCH   7  30
HETATM   30  C   UNL     1      -5.289   8.020 -28.555  1.00  0.00     0.085 C 
BRANCH  30  31
HETATM   31  C   UNL     1      -5.423   7.499 -27.123  1.00  0.00     0.034 C 
BRANCH  31  32
HETATM   32  C   UNL     1      -4.290   6.562 -26.715  1.00  0.00     0.164 C 
BRANCH  32  33
HETATM   33  O   UNL     1      -4.775   5.225 -26.648  1.00  0.00    -0.401 OA
HETATM   34  H   UNL     1      -4.736   4.944 -25.717  1.00  0.00     0.209 HD
ENDBRANCH  32  33
ENDBRANCH  31  32
ENDBRANCH  30  31
ENDBRANCH   7  30
TORSDOF 7
ENDMDL
MODEL 4
REMARK VINA RESULT:      -8.7      4.423      7.105
REMARK  7 active torsions:
REMARK  status: ('A' for Active; 'I' for Inactive)
REMARK    1  A    between atoms: C_7  and  C_8 
REMARK    2  A    between atoms: C_8  and  C_9 
REMARK    3  A    between atoms: C_9  and  C_10 
REMARK    4  A    between atoms: C_10  and  O_11 
REMARK    5  A    between atoms: C_13  and  C_14 
REMARK    6  A    between atoms: C_21  and  C_22 
REMARK       I    between atoms: C_22  and  N_23 
REMARK    7  A    between atoms: N_23  and  C_24 
ROOT
HETATM    1  C   UNL     1      -9.193   2.559 -34.178  1.00  0.00     0.070 C 
HETATM    2  C   UNL     1      -8.196   3.454 -33.483  1.00  0.00     0.037 C 
HETATM    3  N   UNL     1      -8.559   4.800 -33.394  1.00  0.00    -0.192 N 
HETATM    4  C   UNL     1      -7.937   5.656 -32.557  1.00  0.00     0.726 A 
HETATM    5  N   UNL     1      -6.741   5.292 -32.008  1.00  0.00    -0.083 N 
HETATM    6  N   UNL     1      -6.308   6.196 -31.107  1.00  0.00    -0.140 NA
HETATM    7  C   UNL     1      -7.287   7.109 -31.186  1.00  0.00     0.166 A 
HETATM    8  N   UNL     1      -8.297   6.818 -32.076  1.00  0.00    -0.046 NA
HETATM    9  C   UNL     1      -6.066   4.027 -32.296  1.00  0.00     0.202 C 
HETATM   10  C   UNL     1      -7.021   3.029 -32.946  1.00  0.00     0.062 C 
HETATM   11  H   UNL     1      -9.511   5.030 -33.671  1.00  0.00     0.184 HD
ENDROOT
BRANCH  10  12
HETATM   12  C   UNL     1      -6.744   1.568 -32.757  1.00  0.00     0.256 C 
HETATM   13  N   UNL     1      -6.103   0.955 -33.812  1.00  0.00    -0.323 N 
HETATM   14  H   UNL     1      -5.981   1.475 -34.670  1.00  0.00     0.169 HD
HETATM   15  O   UNL     1      -7.030   1.037 -31.689  1.00  0.00    -0.267 OA
BRANCH  13  16
HETATM   16  C   UNL     1      -5.559  -0.350 -33.839  1.00  0.00     0.035 A 
HETATM   17  C   UNL     1      -4.388  -0.726 -33.178  1.00  0.00     0.031 A 
HETATM   18  C   UNL     1      -3.901  -2.035 -33.281  1.00  0.00     0.026 A 
HETATM   19  C   UNL     1      -4.583  -2.971 -34.053  1.00  0.00     0.034 A 
HETATM   20 CL   UNL     1      -3.977  -4.575 -34.191  1.00  0.00    -0.084 Cl
HETATM   21  C   UNL     1      -5.753  -2.612 -34.715  1.00  0.00     0.026 A 
HETATM   22  C   UNL     1      -6.242  -1.307 -34.603  1.00  0.00     0.031 A 
ENDBRANCH  13  16
ENDBRANCH  10  12
BRANCH   9  23
HETATM   23  C   UNL     1      -4.819   4.319 -33.137  1.00  0.00    -0.028 A 
HETATM   24  C   UNL     1      -3.545   4.015 -32.618  1.00  0.00     0.012 A 
HETATM   25  C   UNL     1      -2.394   4.275 -33.365  1.00  0.00     0.043 A 
HETATM   26  C   UNL     1      -2.506   4.842 -34.628  1.00  0.00     0.116 A 
HETATM   27  F   UNL     1      -1.400   5.088 -35.342  1.00  0.00    -0.206 F 
HETATM   28  C   UNL     1      -3.749   5.164 -35.158  1.00  0.00     0.043 A 
HETATM   29  C   UNL     1      -4.903   4.910 -34.412  1.00  0.00     0.012 A 
ENDBRANCH   9  23
BRANCH   7  30
HETATM   30  C   UNL     1      -7.310   8.321 -30.328  1.00  0.00     0.085 C 
BRANCH  30  31
HETATM   31  C   UNL     1      -8.526   8.378 -29.403  1.00  0.00     0.034 C 
BRANCH  31  32
HETATM   32  C   UNL     1      -8.707   7.114 -28.567  1.00  0.00     0.164 C 
BRANCH  32  33
HETATM   33  O   UNL     1      -9.725   6.303 -29.141  1.00  0.00    -0.401 OA
HETATM   34  H   UNL     1     -10.147   6.817 -29.851  1.00  0.00     0.209 HD
ENDBRANCH  32  33
ENDBRANCH  31  32
ENDBRANCH  30  31
ENDBRANCH   7  30
TORSDOF 7
ENDMDL
MODEL 5
REMARK VINA RESULT:      -8.6      4.578      7.027
REMARK  7 active torsions:
REMARK  status: ('A' for Active; 'I' for Inactive)
REMARK    1  A    between atoms: C_7  and  C_8 
REMARK    2  A    between atoms: C_8  and  C_9 
REMARK    3  A    between atoms: C_9  and  C_10 
REMARK    4  A    between atoms: C_10  and  O_11 
REMARK    5  A    between atoms: C_13  and  C_14 
REMARK    6  A    between atoms: C_21  and  C_22 
REMARK       I    between atoms: C_22  and  N_23 
REMARK    7  A    between atoms: N_23  and  C_24 
ROOT
HETATM    1  C   UNL     1      -7.877   2.806 -31.073  1.00  0.00     0.070 C 
HETATM    2  C   UNL     1      -8.801   3.187 -32.204  1.00  0.00     0.037 C 
HETATM    3  N   UNL     1      -9.120   4.545 -32.286  1.00  0.00    -0.192 N 
HETATM    4  C   UNL     1      -9.675   5.085 -33.391  1.00  0.00     0.726 A 
HETATM    5  N   UNL     1     -10.217   4.256 -34.330  1.00  0.00    -0.083 N 
HETATM    6  N   UNL     1     -10.622   4.934 -35.423  1.00  0.00    -0.140 NA
HETATM    7  C   UNL     1     -10.321   6.189 -35.057  1.00  0.00     0.166 A 
HETATM    8  N   UNL     1      -9.751   6.321 -33.811  1.00  0.00    -0.046 NA
HETATM    9  C   UNL     1     -10.261   2.799 -34.202  1.00  0.00     0.202 C 
HETATM   10  C   UNL     1      -9.302   2.313 -33.118  1.00  0.00     0.062 C 
HETATM   11  H   UNL     1      -8.596   5.169 -31.677  1.00  0.00     0.184 HD
ENDROOT
BRANCH  10  12
HETATM   12  C   UNL     1      -8.749   0.926 -33.241  1.00  0.00     0.256 C 
HETATM   13  N   UNL     1      -7.562   0.831 -33.935  1.00  0.00    -0.323 N 
HETATM   14  H   UNL     1      -7.217   1.650 -34.415  1.00  0.00     0.169 HD
HETATM   15  O   UNL     1      -9.325  -0.000 -32.679  1.00  0.00    -0.267 OA
BRANCH  13  16
HETATM   16  C   UNL     1      -6.729  -0.305 -34.049  1.00  0.00     0.035 A 
HETATM   17  C   UNL     1      -7.086  -1.478 -34.719  1.00  0.00     0.031 A 
HETATM   18  C   UNL     1      -6.211  -2.571 -34.758  1.00  0.00     0.026 A 
HETATM   19  C   UNL     1      -4.977  -2.496 -34.120  1.00  0.00     0.034 A 
HETATM   20 CL   UNL     1      -3.909  -3.843 -34.155  1.00  0.00    -0.084 Cl
HETATM   21  C   UNL     1      -4.605  -1.334 -33.450  1.00  0.00     0.026 A 
HETATM   22  C   UNL     1      -5.476  -0.240 -33.421  1.00  0.00     0.031 A 
ENDBRANCH  13  16
ENDBRANCH  10  12
BRANCH   9  23
HETATM   23  C   UNL     1     -11.714   2.373 -33.971  1.00  0.00    -0.028 A 
HETATM   24  C   UNL     1     -12.282   1.373 -34.785  1.00  0.00     0.012 A 
HETATM   25  C   UNL     1     -13.605   0.970 -34.594  1.00  0.00     0.043 A 
HETATM   26  C   UNL     1     -14.370   1.563 -33.598  1.00  0.00     0.116 A 
HETATM   27  F   UNL     1     -15.638   1.173 -33.417  1.00  0.00    -0.206 F 
HETATM   28  C   UNL     1     -13.839   2.561 -32.791  1.00  0.00     0.043 A 
HETATM   29  C   UNL     1     -12.517   2.971 -32.980  1.00  0.00     0.012 A 
ENDBRANCH   9  23
BRANCH   7  30
HETATM   30  C   UNL     1     -10.532   7.348 -35.961  1.00  0.00     0.085 C 
BRANCH  30  31
HETATM   31  C   UNL     1     -11.873   8.047 -35.736  1.00  0.00     0.034 C 
BRANCH  31  32
HETATM   32  C   UNL     1     -12.976   7.547 -36.664  1.00  0.00     0.164 C 
BRANCH  32  33
HETATM   33  O   UNL     1     -13.441   6.279 -36.216  1.00  0.00    -0.401 OA
HETATM   34  H   UNL     1     -14.287   6.421 -35.756  1.00  0.00     0.209 HD
ENDBRANCH  32  33
ENDBRANCH  31  32
ENDBRANCH  30  31
ENDBRANCH   7  30
TORSDOF 7
ENDMDL
MODEL 6
REMARK VINA RESULT:      -8.5      4.402      8.812
REMARK  7 active torsions:
REMARK  status: ('A' for Active; 'I' for Inactive)
REMARK    1  A    between atoms: C_7  and  C_8 
REMARK    2  A    between atoms: C_8  and  C_9 
REMARK    3  A    between atoms: C_9  and  C_10 
REMARK    4  A    between atoms: C_10  and  O_11 
REMARK    5  A    between atoms: C_13  and  C_14 
REMARK    6  A    between atoms: C_21  and  C_22 
REMARK       I    between atoms: C_22  and  N_23 
REMARK    7  A    between atoms: N_23  and  C_24 
ROOT
HETATM    1  C   UNL     1      -5.354  -0.031 -31.869  1.00  0.00     0.070 C 
HETATM    2  C   UNL     1      -5.149   1.465 -31.837  1.00  0.00     0.037 C 
HETATM    3  N   UNL     1      -3.895   1.888 -31.386  1.00  0.00    -0.192 N 
HETATM    4  C   UNL     1      -3.452   3.148 -31.579  1.00  0.00     0.726 A 
HETATM    5  N   UNL     1      -4.346   4.113 -31.945  1.00  0.00    -0.083 N 
HETATM    6  N   UNL     1      -3.735   5.284 -32.213  1.00  0.00    -0.140 NA
HETATM    7  C   UNL     1      -2.460   4.960 -31.955  1.00  0.00     0.166 A 
HETATM    8  N   UNL     1      -2.250   3.661 -31.549  1.00  0.00    -0.046 NA
HETATM    9  C   UNL     1      -5.779   3.873 -32.115  1.00  0.00     0.202 C 
HETATM   10  C   UNL     1      -6.077   2.379 -32.225  1.00  0.00     0.062 C 
HETATM   11  H   UNL     1      -3.192   1.163 -31.260  1.00  0.00     0.184 HD
ENDROOT
BRANCH  10  12
HETATM   12  C   UNL     1      -7.298   1.962 -32.986  1.00  0.00     0.256 C 
HETATM   13  N   UNL     1      -8.444   1.840 -32.229  1.00  0.00    -0.323 N 
HETATM   14  H   UNL     1      -8.367   1.908 -31.224  1.00  0.00     0.169 HD
HETATM   15  O   UNL     1      -7.228   1.825 -34.203  1.00  0.00    -0.267 OA
BRANCH  13  16
HETATM   16  C   UNL     1      -9.762   1.644 -32.701  1.00  0.00     0.035 A 
HETATM   17  C   UNL     1     -10.300   0.398 -33.034  1.00  0.00     0.031 A 
HETATM   18  C   UNL     1     -11.608   0.296 -33.524  1.00  0.00     0.026 A 
HETATM   19  C   UNL     1     -12.380   1.441 -33.690  1.00  0.00     0.034 A 
HETATM   20 CL   UNL     1     -13.980   1.316 -34.306  1.00  0.00    -0.084 Cl
HETATM   21  C   UNL     1     -11.859   2.689 -33.360  1.00  0.00     0.026 A 
HETATM   22  C   UNL     1     -10.557   2.788 -32.861  1.00  0.00     0.031 A 
ENDBRANCH  13  16
ENDBRANCH  10  12
BRANCH   9  23
HETATM   23  C   UNL     1      -6.530   4.566 -30.975  1.00  0.00    -0.028 A 
HETATM   24  C   UNL     1      -6.033   4.478 -29.660  1.00  0.00     0.012 A 
HETATM   25  C   UNL     1      -6.703   5.100 -28.605  1.00  0.00     0.043 A 
HETATM   26  C   UNL     1      -7.873   5.807 -28.852  1.00  0.00     0.116 A 
HETATM   27  F   UNL     1      -8.512   6.403 -27.838  1.00  0.00    -0.206 F 
HETATM   28  C   UNL     1      -8.393   5.897 -30.137  1.00  0.00     0.043 A 
HETATM   29  C   UNL     1      -7.729   5.273 -31.195  1.00  0.00     0.012 A 
ENDBRANCH   9  23
BRANCH   7  30
HETATM   30  C   UNL     1      -1.344   5.921 -32.151  1.00  0.00     0.085 C 
BRANCH  30  31
HETATM   31  C   UNL     1      -1.320   6.534 -33.551  1.00  0.00     0.034 C 
BRANCH  31  32
HETATM   32  C   UNL     1      -1.346   5.493 -34.666  1.00  0.00     0.164 C 
BRANCH  32  33
HETATM   33  O   UNL     1      -2.621   5.499 -35.298  1.00  0.00    -0.401 OA
HETATM   34  H   UNL     1      -2.784   4.604 -35.642  1.00  0.00     0.209 HD
ENDBRANCH  32  33
ENDBRANCH  31  32
ENDBRANCH  30  31
ENDBRANCH   7  30
TORSDOF 7
ENDMDL
MODEL 7
REMARK VINA RESULT:      -8.5      4.417      7.571
REMARK  7 active torsions:
REMARK  status: ('A' for Active; 'I' for Inactive)
REMARK    1  A    between atoms: C_7  and  C_8 
REMARK    2  A    between atoms: C_8  and  C_9 
REMARK    3  A    between atoms: C_9  and  C_10 
REMARK    4  A    between atoms: C_10  and  O_11 
REMARK    5  A    between atoms: C_13  and  C_14 
REMARK    6  A    between atoms: C_21  and  C_22 
REMARK       I    between atoms: C_22  and  N_23 
REMARK    7  A    between atoms: N_23  and  C_24 
ROOT
HETATM    1  C   UNL     1      -9.160   2.681 -34.194  1.00  0.00     0.070 C 
HETATM    2  C   UNL     1      -8.145   3.525 -33.461  1.00  0.00     0.037 C 
HETATM    3  N   UNL     1      -8.478   4.875 -33.321  1.00  0.00    -0.192 N 
HETATM    4  C   UNL     1      -7.840   5.683 -32.449  1.00  0.00     0.726 A 
HETATM    5  N   UNL     1      -6.655   5.270 -31.910  1.00  0.00    -0.083 N 
HETATM    6  N   UNL     1      -6.205   6.128 -30.973  1.00  0.00    -0.140 NA
HETATM    7  C   UNL     1      -7.163   7.066 -31.020  1.00  0.00     0.166 A 
HETATM    8  N   UNL     1      -8.175   6.833 -31.924  1.00  0.00    -0.046 NA
HETATM    9  C   UNL     1      -6.008   4.001 -32.245  1.00  0.00     0.202 C 
HETATM   10  C   UNL     1      -6.984   3.052 -32.936  1.00  0.00     0.062 C 
HETATM   11  H   UNL     1      -9.423   5.138 -33.592  1.00  0.00     0.184 HD
ENDROOT
BRANCH  10  12
HETATM   12  C   UNL     1      -6.742   1.579 -32.804  1.00  0.00     0.256 C 
HETATM   13  N   UNL     1      -6.145   0.985 -33.896  1.00  0.00    -0.323 N 
HETATM   14  H   UNL     1      -6.032   1.530 -34.738  1.00  0.00     0.169 HD
HETATM   15  O   UNL     1      -7.014   1.020 -31.746  1.00  0.00    -0.267 OA
BRANCH  13  16
HETATM   16  C   UNL     1      -5.638  -0.332 -33.980  1.00  0.00     0.035 A 
HETATM   17  C   UNL     1      -6.270  -1.375 -34.660  1.00  0.00     0.031 A 
HETATM   18  C   UNL     1      -5.713  -2.660 -34.668  1.00  0.00     0.026 A 
HETATM   19  C   UNL     1      -4.525  -2.907 -33.989  1.00  0.00     0.034 A 
HETATM   20 CL   UNL     1      -3.850  -4.489 -33.987  1.00  0.00    -0.084 Cl
HETATM   21  C   UNL     1      -3.882  -1.878 -33.308  1.00  0.00     0.026 A 
HETATM   22  C   UNL     1      -4.434  -0.593 -33.309  1.00  0.00     0.031 A 
ENDBRANCH  13  16
ENDBRANCH  10  12
BRANCH   9  23
HETATM   23  C   UNL     1      -4.751   4.296 -33.069  1.00  0.00    -0.028 A 
HETATM   24  C   UNL     1      -4.873   4.929 -34.321  1.00  0.00     0.012 A 
HETATM   25  C   UNL     1      -3.741   5.205 -35.091  1.00  0.00     0.043 A 
HETATM   26  C   UNL     1      -2.484   4.847 -34.620  1.00  0.00     0.116 A 
HETATM   27  F   UNL     1      -1.401   5.115 -35.360  1.00  0.00    -0.206 F 
HETATM   28  C   UNL     1      -2.336   4.210 -33.395  1.00  0.00     0.043 A 
HETATM   29  C   UNL     1      -3.466   3.928 -32.623  1.00  0.00     0.012 A 
ENDBRANCH   9  23
BRANCH   7  30
HETATM   30  C   UNL     1      -7.161   8.244 -30.115  1.00  0.00     0.085 C 
BRANCH  30  31
HETATM   31  C   UNL     1      -5.840   9.012 -30.134  1.00  0.00     0.034 C 
BRANCH  31  32
HETATM   32  C   UNL     1      -5.994  10.466 -30.570  1.00  0.00     0.164 C 
BRANCH  32  33
HETATM   33  O   UNL     1      -4.934  10.816 -31.453  1.00  0.00    -0.401 OA
HETATM   34  H   UNL     1      -4.176  11.090 -30.910  1.00  0.00     0.209 HD
ENDBRANCH  32  33
ENDBRANCH  31  32
ENDBRANCH  30  31
ENDBRANCH   7  30
TORSDOF 7
ENDMDL
MODEL 8
REMARK VINA RESULT:      -8.4      3.522      5.650
REMARK  7 active torsions:
REMARK  status: ('A' for Active; 'I' for Inactive)
REMARK    1  A    between atoms: C_7  and  C_8 
REMARK    2  A    between atoms: C_8  and  C_9 
REMARK    3  A    between atoms: C_9  and  C_10 
REMARK    4  A    between atoms: C_10  and  O_11 
REMARK    5  A    between atoms: C_13  and  C_14 
REMARK    6  A    between atoms: C_21  and  C_22 
REMARK       I    between atoms: C_22  and  N_23 
REMARK    7  A    between atoms: N_23  and  C_24 
ROOT
HETATM    1  C   UNL     1      -3.670   5.281 -34.571  1.00  0.00     0.070 C 
HETATM    2  C   UNL     1      -4.564   4.453 -33.681  1.00  0.00     0.037 C 
HETATM    3  N   UNL     1      -5.652   3.850 -34.318  1.00  0.00    -0.192 N 
HETATM    4  C   UNL     1      -6.358   2.855 -33.744  1.00  0.00     0.726 A 
HETATM    5  N   UNL     1      -6.213   2.630 -32.404  1.00  0.00    -0.083 N 
HETATM    6  N   UNL     1      -6.889   1.534 -32.005  1.00  0.00    -0.140 NA
HETATM    7  C   UNL     1      -7.453   1.159 -33.162  1.00  0.00     0.166 A 
HETATM    8  N   UNL     1      -7.161   1.954 -34.248  1.00  0.00    -0.046 NA
HETATM    9  C   UNL     1      -5.352   3.430 -31.534  1.00  0.00     0.202 C 
HETATM   10  C   UNL     1      -4.362   4.257 -32.350  1.00  0.00     0.062 C 
HETATM   11  H   UNL     1      -5.665   3.901 -35.335  1.00  0.00     0.184 HD
ENDROOT
BRANCH  10  12
HETATM   12  C   UNL     1      -3.061   4.631 -31.706  1.00  0.00     0.256 C 
HETATM   13  N   UNL     1      -2.992   5.928 -31.242  1.00  0.00    -0.323 N 
HETATM   14  H   UNL     1      -3.743   6.563 -31.472  1.00  0.00     0.169 HD
HETATM   15  O   UNL     1      -2.192   3.776 -31.572  1.00  0.00    -0.267 OA
BRANCH  13  16
HETATM   16  C   UNL     1      -1.974   6.493 -30.440  1.00  0.00     0.035 A 
HETATM   17  C   UNL     1      -2.175   6.988 -29.149  1.00  0.00     0.031 A 
HETATM   18  C   UNL     1      -1.116   7.561 -28.434  1.00  0.00     0.026 A 
HETATM   19  C   UNL     1       0.147   7.647 -29.012  1.00  0.00     0.034 A 
HETATM   20 CL   UNL     1       1.443   8.365 -28.138  1.00  0.00    -0.084 Cl
HETATM   21  C   UNL     1       0.363   7.156 -30.296  1.00  0.00     0.026 A 
HETATM   22  C   UNL     1      -0.693   6.576 -31.004  1.00  0.00     0.031 A 
ENDBRANCH  13  16
ENDBRANCH  10  12
BRANCH   9  23
HETATM   23  C   UNL     1      -6.236   4.270 -30.607  1.00  0.00    -0.028 A 
HETATM   24  C   UNL     1      -5.823   4.509 -29.282  1.00  0.00     0.012 A 
HETATM   25  C   UNL     1      -6.614   5.270 -28.419  1.00  0.00     0.043 A 
HETATM   26  C   UNL     1      -7.821   5.790 -28.868  1.00  0.00     0.116 A 
HETATM   27  F   UNL     1      -8.576   6.520 -28.039  1.00  0.00    -0.206 F 
HETATM   28  C   UNL     1      -8.259   5.557 -30.166  1.00  0.00     0.043 A 
HETATM   29  C   UNL     1      -7.473   4.793 -31.032  1.00  0.00     0.012 A 
ENDBRANCH   9  23
BRANCH   7  30
HETATM   30  C   UNL     1      -8.286  -0.065 -33.276  1.00  0.00     0.085 C 
BRANCH  30  31
HETATM   31  C   UNL     1      -9.678   0.098 -32.664  1.00  0.00     0.034 C 
BRANCH  31  32
HETATM   32  C   UNL     1     -10.616   0.946 -33.518  1.00  0.00     0.164 C 
BRANCH  32  33
HETATM   33  O   UNL     1     -11.273   1.906 -32.699  1.00  0.00    -0.401 OA
HETATM   34  H   UNL     1     -10.959   2.787 -32.968  1.00  0.00     0.209 HD
ENDBRANCH  32  33
ENDBRANCH  31  32
ENDBRANCH  30  31
ENDBRANCH   7  30
TORSDOF 7
ENDMDL
MODEL 9
REMARK VINA RESULT:      -8.3      4.363      8.226
REMARK  7 active torsions:
REMARK  status: ('A' for Active; 'I' for Inactive)
REMARK    1  A    between atoms: C_7  and  C_8 
REMARK    2  A    between atoms: C_8  and  C_9 
REMARK    3  A    between atoms: C_9  and  C_10 
REMARK    4  A    between atoms: C_10  and  O_11 
REMARK    5  A    between atoms: C_13  and  C_14 
REMARK    6  A    between atoms: C_21  and  C_22 
REMARK       I    between atoms: C_22  and  N_23 
REMARK    7  A    between atoms: N_23  and  C_24 
ROOT
HETATM    1  C   UNL     1      -5.332   1.204 -29.692  1.00  0.00     0.070 C 
HETATM    2  C   UNL     1      -5.368   2.382 -30.635  1.00  0.00     0.037 C 
HETATM    3  N   UNL     1      -4.695   3.525 -30.193  1.00  0.00    -0.192 N 
HETATM    4  C   UNL     1      -4.380   4.538 -31.026  1.00  0.00     0.726 A 
HETATM    5  N   UNL     1      -4.983   4.599 -32.249  1.00  0.00    -0.083 N 
HETATM    6  N   UNL     1      -4.479   5.593 -33.007  1.00  0.00    -0.140 NA
HETATM    7  C   UNL     1      -3.585   6.120 -32.156  1.00  0.00     0.166 A 
HETATM    8  N   UNL     1      -3.507   5.506 -30.926  1.00  0.00    -0.046 NA
HETATM    9  C   UNL     1      -5.987   3.640 -32.710  1.00  0.00     0.202 C 
HETATM   10  C   UNL     1      -5.979   2.379 -31.850  1.00  0.00     0.062 C 
HETATM   11  H   UNL     1      -4.128   3.418 -29.355  1.00  0.00     0.184 HD
ENDROOT
BRANCH  10  12
HETATM   12  C   UNL     1      -6.440   1.099 -32.477  1.00  0.00     0.256 C 
HETATM   13  N   UNL     1      -5.475   0.416 -33.187  1.00  0.00    -0.323 N 
HETATM   14  H   UNL     1      -4.586   0.868 -33.348  1.00  0.00     0.169 HD
HETATM   15  O   UNL     1      -7.586   0.710 -32.273  1.00  0.00    -0.267 OA
BRANCH  13  16
HETATM   16  C   UNL     1      -5.572  -0.888 -33.722  1.00  0.00     0.035 A 
HETATM   17  C   UNL     1      -4.536  -1.825 -33.701  1.00  0.00     0.031 A 
HETATM   18  C   UNL     1      -4.707  -3.088 -34.281  1.00  0.00     0.026 A 
HETATM   19  C   UNL     1      -5.913  -3.416 -34.892  1.00  0.00     0.034 A 
HETATM   20 CL   UNL     1      -6.116  -4.961 -35.618  1.00  0.00    -0.084 Cl
HETATM   21  C   UNL     1      -6.956  -2.494 -34.919  1.00  0.00     0.026 A 
HETATM   22  C   UNL     1      -6.787  -1.237 -34.330  1.00  0.00     0.031 A 
ENDBRANCH  13  16
ENDBRANCH  10  12
BRANCH   9  23
HETATM   23  C   UNL     1      -7.348   4.341 -32.759  1.00  0.00    -0.028 A 
HETATM   24  C   UNL     1      -7.931   4.809 -31.566  1.00  0.00     0.012 A 
HETATM   25  C   UNL     1      -9.172   5.449 -31.585  1.00  0.00     0.043 A 
HETATM   26  C   UNL     1      -9.840   5.620 -32.791  1.00  0.00     0.116 A 
HETATM   27  F   UNL     1     -11.029   6.235 -32.807  1.00  0.00    -0.206 F 
HETATM   28  C   UNL     1      -9.294   5.155 -33.981  1.00  0.00     0.043 A 
HETATM   29  C   UNL     1      -8.055   4.511 -33.966  1.00  0.00     0.012 A 
ENDBRANCH   9  23
BRANCH   7  30
HETATM   30  C   UNL     1      -2.699   7.249 -32.539  1.00  0.00     0.085 C 
BRANCH  30  31
HETATM   31  C   UNL     1      -2.038   7.056 -33.904  1.00  0.00     0.034 C 
BRANCH  31  32
HETATM   32  C   UNL     1      -1.293   5.731 -34.031  1.00  0.00     0.164 C 
BRANCH  32  33
HETATM   33  O   UNL     1      -0.759   5.606 -35.345  1.00  0.00    -0.401 OA
HETATM   34  H   UNL     1      -1.502   5.654 -35.970  1.00  0.00     0.209 HD
ENDBRANCH  32  33
ENDBRANCH  31  32
ENDBRANCH  30  31
ENDBRANCH   7  30
TORSDOF 7
ENDMDL
MODEL 10
REMARK VINA RESULT:      -8.3      4.465      9.185
REMARK  7 active torsions:
REMARK  status: ('A' for Active; 'I' for Inactive)
REMARK    1  A    between atoms: C_7  and  C_8 
REMARK    2  A    between atoms: C_8  and  C_9 
REMARK    3  A    between atoms: C_9  and  C_10 
REMARK    4  A    between atoms: C_10  and  O_11 
REMARK    5  A    between atoms: C_13  and  C_14 
REMARK    6  A    between atoms: C_21  and  C_22 
REMARK       I    between atoms: C_22  and  N_23 
REMARK    7  A    between atoms: N_23  and  C_24 
ROOT
HETATM    1  C   UNL     1      -4.675   0.422 -31.817  1.00  0.00     0.070 C 
HETATM    2  C   UNL     1      -4.514   1.922 -31.778  1.00  0.00     0.037 C 
HETATM    3  N   UNL     1      -3.286   2.381 -31.293  1.00  0.00    -0.192 N 
HETATM    4  C   UNL     1      -2.875   3.653 -31.473  1.00  0.00     0.726 A 
HETATM    5  N   UNL     1      -3.785   4.593 -31.863  1.00  0.00    -0.083 N 
HETATM    6  N   UNL     1      -3.201   5.781 -32.114  1.00  0.00    -0.140 NA
HETATM    7  C   UNL     1      -1.924   5.494 -31.821  1.00  0.00     0.166 A 
HETATM    8  N   UNL     1      -1.689   4.201 -31.410  1.00  0.00    -0.046 NA
HETATM    9  C   UNL     1      -5.205   4.312 -32.073  1.00  0.00     0.202 C 
HETATM   10  C   UNL     1      -5.457   2.811 -32.191  1.00  0.00     0.062 C 
HETATM   11  H   UNL     1      -2.567   1.676 -31.148  1.00  0.00     0.184 HD
ENDROOT
BRANCH  10  12
HETATM   12  C   UNL     1      -6.645   2.359 -32.986  1.00  0.00     0.256 C 
HETATM   13  N   UNL     1      -7.819   2.251 -32.270  1.00  0.00    -0.323 N 
HETATM   14  H   UNL     1      -7.781   2.351 -31.266  1.00  0.00     0.169 HD
HETATM   15  O   UNL     1      -6.526   2.185 -34.194  1.00  0.00    -0.267 OA
BRANCH  13  16
HETATM   16  C   UNL     1      -9.115   2.029 -32.787  1.00  0.00     0.035 A 
HETATM   17  C   UNL     1      -9.980   3.044 -33.204  1.00  0.00     0.031 A 
HETATM   18  C   UNL     1     -11.262   2.738 -33.676  1.00  0.00     0.026 A 
HETATM   19  C   UNL     1     -11.686   1.414 -33.726  1.00  0.00     0.034 A 
HETATM   20 CL   UNL     1     -13.267   1.040 -34.292  1.00  0.00    -0.084 Cl
HETATM   21  C   UNL     1     -10.836   0.391 -33.317  1.00  0.00     0.026 A 
HETATM   22  C   UNL     1      -9.553   0.698 -32.855  1.00  0.00     0.031 A 
ENDBRANCH  13  16
ENDBRANCH  10  12
BRANCH   9  23
HETATM   23  C   UNL     1      -6.008   4.982 -30.953  1.00  0.00    -0.028 A 
HETATM   24  C   UNL     1      -5.777   4.610 -29.615  1.00  0.00     0.012 A 
HETATM   25  C   UNL     1      -6.498   5.206 -28.578  1.00  0.00     0.043 A 
HETATM   26  C   UNL     1      -7.456   6.169 -28.870  1.00  0.00     0.116 A 
HETATM   27  F   UNL     1      -8.145   6.739 -27.873  1.00  0.00    -0.206 F 
HETATM   28  C   UNL     1      -7.713   6.544 -30.182  1.00  0.00     0.043 A 
HETATM   29  C   UNL     1      -6.997   5.948 -31.223  1.00  0.00     0.012 A 
ENDBRANCH   9  23
BRANCH   7  30
HETATM   30  C   UNL     1      -0.832   6.486 -31.986  1.00  0.00     0.085 C 
BRANCH  30  31
HETATM   31  C   UNL     1       0.341   6.251 -31.034  1.00  0.00     0.034 C 
BRANCH  31  32
HETATM   32  C   UNL     1       0.024   6.614 -29.586  1.00  0.00     0.164 C 
BRANCH  32  33
HETATM   33  O   UNL     1      -0.065   5.428 -28.803  1.00  0.00    -0.401 OA
HETATM   34  H   UNL     1      -0.152   4.678 -29.415  1.00  0.00     0.209 HD
ENDBRANCH  32  33
ENDBRANCH  31  32
ENDBRANCH  30  31
ENDBRANCH   7  30
TORSDOF 7
ENDMDL
