MODEL 1
REMARK VINA RESULT:      -7.6      0.000      0.000
REMARK  6 active torsions:
REMARK  status: ('A' for Active; 'I' for Inactive)
REMARK    1  A    between atoms: C_2  and  O_3 
REMARK    2  A    between atoms: O_3  and  C_4 
REMARK    3  A    between atoms: C_11  and  C_12 
REMARK    4  A    between atoms: C_12  and  N_13 
REMARK    5  A    between atoms: N_13  and  C_14 
REMARK    6  A    between atoms: C_17  and  O_18 
ROOT
HETATM    1  C   UNL     1      -5.302  -2.324 -34.181  1.00  0.00     0.069 A 
HETATM    2  C   UNL     1      -4.807  -1.476 -33.186  1.00  0.00     0.050 A 
HETATM    3  C   UNL     1      -5.643  -0.516 -32.605  1.00  0.00    -0.006 A 
HETATM    4  C   UNL     1      -6.974  -0.410 -33.021  1.00  0.00     0.045 A 
HETATM    5  N   UNL     1      -7.802   0.552 -32.430  1.00  0.00    -0.322 N 
HETATM    6  C   UNL     1      -7.388   1.410 -31.445  1.00  0.00     0.253 A 
HETATM    7  O   UNL     1      -8.159   2.226 -30.949  1.00  0.00    -0.268 OA
HETATM    8  C   UNL     1      -5.966   1.308 -31.007  1.00  0.00     0.024 A 
HETATM    9  C   UNL     1      -5.154   0.393 -31.570  1.00  0.00     0.027 A 
HETATM   10  C   UNL     1      -7.476  -1.250 -34.011  1.00  0.00     0.033 A 
HETATM   11  C   UNL     1      -6.634  -2.203 -34.588  1.00  0.00     0.039 A 
HETATM   12  H   UNL     1      -8.769   0.636 -32.712  1.00  0.00     0.169 HD
ENDROOT
BRANCH   8  13
HETATM   13  C   UNL     1      -5.499   2.290 -29.974  1.00  0.00     0.136 C 
BRANCH  13  14
HETATM   14  N   UNL     1      -5.538   3.628 -30.556  1.00  0.00    -0.289 NA
HETATM   15  H   UNL     1      -6.503   3.902 -30.746  1.00  0.00     0.128 HD
BRANCH  14  16
HETATM   16  C   UNL     1      -4.724   3.919 -31.660  1.00  0.00     0.008 A 
HETATM   17  C   UNL     1      -5.296   4.583 -32.754  1.00  0.00     0.026 A 
HETATM   18  C   UNL     1      -4.522   4.977 -33.851  1.00  0.00     0.038 A 
HETATM   19  C   UNL     1      -3.147   4.750 -33.869  1.00  0.00     0.068 A 
HETATM   20  C   UNL     1      -2.557   4.128 -32.773  1.00  0.00     0.038 A 
HETATM   21  C   UNL     1      -3.339   3.731 -31.677  1.00  0.00     0.026 A 
BRANCH  19  22
HETATM   22  O   UNL     1      -2.504   5.189 -34.992  1.00  0.00    -0.356 OA
HETATM   23  C   UNL     1      -1.136   5.545 -34.848  1.00  0.00     0.210 C 
ENDBRANCH  19  22
ENDBRANCH  14  16
ENDBRANCH  13  14
ENDBRANCH   8  13
BRANCH   1  24
HETATM   24  O   UNL     1      -4.594  -3.298 -34.831  1.00  0.00    -0.351 OA
BRANCH  24  25
HETATM   25  C   UNL     1      -4.733  -4.635 -34.352  1.00  0.00     0.171 C 
HETATM   26  C   UNL     1      -3.549  -4.937 -33.451  1.00  0.00     0.034 C 
ENDBRANCH  24  25
ENDBRANCH   1  24
TORSDOF 6
ENDMDL
MODEL 2
REMARK VINA RESULT:      -7.5      4.145      7.350
REMARK  6 active torsions:
REMARK  status: ('A' for Active; 'I' for Inactive)
REMARK    1  A    between atoms: C_2  and  O_3 
REMARK    2  A    between atoms: O_3  and  C_4 
REMARK    3  A    between atoms: C_11  and  C_12 
REMARK    4  A    between atoms: C_12  and  N_13 
REMARK    5  A    between atoms: N_13  and  C_14 
REMARK    6  A    between atoms: C_17  and  O_18 
ROOT
HETATM    1  C   UNL     1     -12.899   1.755 -34.759  1.00  0.00     0.069 A 
HETATM    2  C   UNL     1     -11.884   1.142 -34.020  1.00  0.00     0.050 A 
HETATM    3  C   UNL     1     -10.637   1.765 -33.893  1.00  0.00    -0.006 A 
HETATM    4  C   UNL     1     -10.412   3.003 -34.506  1.00  0.00     0.045 A 
HETATM    5  N   UNL     1      -9.162   3.618 -34.371  1.00  0.00    -0.322 N 
HETATM    6  C   UNL     1      -8.124   3.080 -33.655  1.00  0.00     0.253 A 
HETATM    7  O   UNL     1      -7.052   3.669 -33.554  1.00  0.00    -0.268 OA
HETATM    8  C   UNL     1      -8.356   1.756 -33.010  1.00  0.00     0.024 A 
HETATM    9  C   UNL     1      -9.549   1.146 -33.137  1.00  0.00     0.027 A 
HETATM   10  C   UNL     1     -11.418   3.620 -35.245  1.00  0.00     0.033 A 
HETATM   11  C   UNL     1     -12.658   2.990 -35.369  1.00  0.00     0.039 A 
HETATM   12  H   UNL     1      -8.986   4.516 -34.799  1.00  0.00     0.169 HD
ENDROOT
BRANCH   8  13
HETATM   13  C   UNL     1      -7.198   1.141 -32.281  1.00  0.00     0.136 C 
BRANCH  13  14
HETATM   14  N   UNL     1      -6.106   0.944 -33.229  1.00  0.00    -0.289 NA
HETATM   15  H   UNL     1      -6.211   1.574 -34.026  1.00  0.00     0.128 HD
BRANCH  14  16
HETATM   16  C   UNL     1      -5.808  -0.352 -33.673  1.00  0.00     0.008 A 
HETATM   17  C   UNL     1      -4.588  -0.924 -33.292  1.00  0.00     0.026 A 
HETATM   18  C   UNL     1      -4.265  -2.243 -33.630  1.00  0.00     0.038 A 
HETATM   19  C   UNL     1      -5.171  -3.039 -34.328  1.00  0.00     0.068 A 
HETATM   20  C   UNL     1      -6.405  -2.500 -34.679  1.00  0.00     0.038 A 
HETATM   21  C   UNL     1      -6.721  -1.174 -34.341  1.00  0.00     0.026 A 
BRANCH  19  22
HETATM   22  O   UNL     1      -4.742  -4.310 -34.590  1.00  0.00    -0.356 OA
HETATM   23  C   UNL     1      -3.743  -4.838 -33.727  1.00  0.00     0.210 C 
ENDBRANCH  19  22
ENDBRANCH  14  16
ENDBRANCH  13  14
ENDBRANCH   8  13
BRANCH   1  24
HETATM   24  O   UNL     1     -14.156   1.255 -34.964  1.00  0.00    -0.351 OA
BRANCH  24  25
HETATM   25  C   UNL     1     -14.806   0.645 -33.849  1.00  0.00     0.171 C 
HETATM   26  C   UNL     1     -15.283   1.748 -32.922  1.00  0.00     0.034 C 
ENDBRANCH  24  25
ENDBRANCH   1  24
TORSDOF 6
ENDMDL
MODEL 3
REMARK VINA RESULT:      -7.5      2.488      7.704
REMARK  6 active torsions:
REMARK  status: ('A' for Active; 'I' for Inactive)
REMARK    1  A    between atoms: C_2  and  O_3 
REMARK    2  A    between atoms: O_3  and  C_4 
REMARK    3  A    between atoms: C_11  and  C_12 
REMARK    4  A    between atoms: C_12  and  N_13 
REMARK    5  A    between atoms: N_13  and  C_14 
REMARK    6  A    between atoms: C_17  and  O_18 
ROOT
HETATM    1  C   UNL     1      -0.849   5.532 -31.777  1.00  0.00     0.069 A 
HETATM    2  C   UNL     1      -1.776   4.500 -31.609  1.00  0.00     0.050 A 
HETATM    3  C   UNL     1      -2.995   4.535 -32.297  1.00  0.00    -0.006 A 
HETATM    4  C   UNL     1      -3.279   5.604 -33.153  1.00  0.00     0.045 A 
HETATM    5  N   UNL     1      -4.500   5.627 -33.838  1.00  0.00    -0.322 N 
HETATM    6  C   UNL     1      -5.452   4.648 -33.728  1.00  0.00     0.253 A 
HETATM    7  O   UNL     1      -6.501   4.708 -34.364  1.00  0.00    -0.268 OA
HETATM    8  C   UNL     1      -5.157   3.512 -32.807  1.00  0.00     0.024 A 
HETATM    9  C   UNL     1      -3.992   3.478 -32.134  1.00  0.00     0.027 A 
HETATM   10  C   UNL     1      -2.362   6.636 -33.327  1.00  0.00     0.033 A 
HETATM   11  C   UNL     1      -1.149   6.595 -32.635  1.00  0.00     0.039 A 
HETATM   12  H   UNL     1      -4.717   6.387 -34.468  1.00  0.00     0.169 HD
ENDROOT
BRANCH   8  13
HETATM   13  C   UNL     1      -6.228   2.475 -32.640  1.00  0.00     0.136 C 
BRANCH  13  14
HETATM   14  N   UNL     1      -6.381   1.759 -33.903  1.00  0.00    -0.289 NA
HETATM   15  H   UNL     1      -7.297   1.954 -34.310  1.00  0.00     0.128 HD
BRANCH  14  16
HETATM   16  C   UNL     1      -6.111   0.385 -33.950  1.00  0.00     0.008 A 
HETATM   17  C   UNL     1      -6.932  -0.431 -34.739  1.00  0.00     0.026 A 
HETATM   18  C   UNL     1      -6.668  -1.796 -34.895  1.00  0.00     0.038 A 
HETATM   19  C   UNL     1      -5.553  -2.376 -34.295  1.00  0.00     0.068 A 
HETATM   20  C   UNL     1      -4.703  -1.573 -33.540  1.00  0.00     0.038 A 
HETATM   21  C   UNL     1      -4.976  -0.205 -33.383  1.00  0.00     0.026 A 
BRANCH  19  22
HETATM   22  O   UNL     1      -5.401  -3.714 -34.529  1.00  0.00    -0.356 OA
HETATM   23  C   UNL     1      -6.537  -4.409 -35.028  1.00  0.00     0.210 C 
ENDBRANCH  19  22
ENDBRANCH  14  16
ENDBRANCH  13  14
ENDBRANCH   8  13
BRANCH   1  24
HETATM   24  O   UNL     1       0.372   5.621 -31.166  1.00  0.00    -0.351 OA
BRANCH  24  25
HETATM   25  C   UNL     1       0.384   5.696 -29.741  1.00  0.00     0.171 C 
HETATM   26  C   UNL     1       0.451   7.159 -29.347  1.00  0.00     0.034 C 
ENDBRANCH  24  25
ENDBRANCH   1  24
TORSDOF 6
ENDMDL
MODEL 4
REMARK VINA RESULT:      -7.5      4.488      7.308
REMARK  6 active torsions:
REMARK  status: ('A' for Active; 'I' for Inactive)
REMARK    1  A    between atoms: C_2  and  O_3 
REMARK    2  A    between atoms: O_3  and  C_4 
REMARK    3  A    between atoms: C_11  and  C_12 
REMARK    4  A    between atoms: C_12  and  N_13 
REMARK    5  A    between atoms: N_13  and  C_14 
REMARK    6  A    between atoms: C_17  and  O_18 
ROOT
HETATM    1  C   UNL     1      -5.718  -1.762 -34.394  1.00  0.00     0.069 A 
HETATM    2  C   UNL     1      -6.731  -0.969 -34.937  1.00  0.00     0.050 A 
HETATM    3  C   UNL     1      -7.358   0.003 -34.150  1.00  0.00    -0.006 A 
HETATM    4  C   UNL     1      -6.965   0.179 -32.819  1.00  0.00     0.045 A 
HETATM    5  N   UNL     1      -7.597   1.157 -32.041  1.00  0.00    -0.322 N 
HETATM    6  C   UNL     1      -8.591   1.975 -32.510  1.00  0.00     0.253 A 
HETATM    7  O   UNL     1      -9.102   2.829 -31.790  1.00  0.00    -0.268 OA
HETATM    8  C   UNL     1      -9.021   1.783 -33.925  1.00  0.00     0.024 A 
HETATM    9  C   UNL     1      -8.430   0.842 -34.685  1.00  0.00     0.027 A 
HETATM   10  C   UNL     1      -5.956  -0.606 -32.268  1.00  0.00     0.033 A 
HETATM   11  C   UNL     1      -5.338  -1.576 -33.061  1.00  0.00     0.039 A 
HETATM   12  H   UNL     1      -7.318   1.304 -31.081  1.00  0.00     0.169 HD
ENDROOT
BRANCH   8  13
HETATM   13  C   UNL     1     -10.153   2.636 -34.415  1.00  0.00     0.136 C 
BRANCH  13  14
HETATM   14  N   UNL     1     -11.225   1.762 -34.881  1.00  0.00    -0.289 NA
HETATM   15  H   UNL     1     -11.436   1.955 -35.862  1.00  0.00     0.128 HD
BRANCH  14  16
HETATM   16  C   UNL     1     -12.410   1.674 -34.138  1.00  0.00     0.008 A 
HETATM   17  C   UNL     1     -12.801   2.780 -33.372  1.00  0.00     0.026 A 
HETATM   18  C   UNL     1     -14.013   2.789 -32.672  1.00  0.00     0.038 A 
HETATM   19  C   UNL     1     -14.885   1.705 -32.750  1.00  0.00     0.068 A 
HETATM   20  C   UNL     1     -14.531   0.615 -33.539  1.00  0.00     0.038 A 
HETATM   21  C   UNL     1     -13.311   0.609 -34.234  1.00  0.00     0.026 A 
BRANCH  19  22
HETATM   22  O   UNL     1     -16.038   1.839 -32.029  1.00  0.00    -0.356 OA
HETATM   23  C   UNL     1     -16.652   3.122 -32.037  1.00  0.00     0.210 C 
ENDBRANCH  19  22
ENDBRANCH  14  16
ENDBRANCH  13  14
ENDBRANCH   8  13
BRANCH   1  24
HETATM   24  O   UNL     1      -5.029  -2.746 -35.050  1.00  0.00    -0.351 OA
BRANCH  24  25
HETATM   25  C   UNL     1      -5.241  -4.090 -34.620  1.00  0.00     0.171 C 
HETATM   26  C   UNL     1      -6.589  -4.545 -35.149  1.00  0.00     0.034 C 
ENDBRANCH  24  25
ENDBRANCH   1  24
TORSDOF 6
ENDMDL
MODEL 5
REMARK VINA RESULT:      -7.4      3.667      6.247
REMARK  6 active torsions:
REMARK  status: ('A' for Active; 'I' for Inactive)
REMARK    1  A    between atoms: C_2  and  O_3 
REMARK    2  A    between atoms: O_3  and  C_4 
REMARK    3  A    between atoms: C_11  and  C_12 
REMARK    4  A    between atoms: C_12  and  N_13 
REMARK    5  A    between atoms: N_13  and  C_14 
REMARK    6  A    between atoms: C_17  and  O_18 
ROOT
HETATM    1  C   UNL     1      -4.869  -2.282 -33.917  1.00  0.00     0.069 A 
HETATM    2  C   UNL     1      -5.993  -1.456 -33.990  1.00  0.00     0.050 A 
HETATM    3  C   UNL     1      -6.208  -0.478 -33.012  1.00  0.00    -0.006 A 
HETATM    4  C   UNL     1      -5.293  -0.329 -31.965  1.00  0.00     0.045 A 
HETATM    5  N   UNL     1      -5.516   0.655 -30.995  1.00  0.00    -0.322 N 
HETATM    6  C   UNL     1      -6.591   1.505 -31.007  1.00  0.00     0.253 A 
HETATM    7  O   UNL     1      -6.733   2.362 -30.140  1.00  0.00    -0.268 OA
HETATM    8  C   UNL     1      -7.576   1.342 -32.117  1.00  0.00     0.024 A 
HETATM    9  C   UNL     1      -7.380   0.395 -33.054  1.00  0.00     0.027 A 
HETATM   10  C   UNL     1      -4.170  -1.147 -31.883  1.00  0.00     0.033 A 
HETATM   11  C   UNL     1      -3.965  -2.123 -32.861  1.00  0.00     0.039 A 
HETATM   12  H   UNL     1      -4.860   0.783 -30.237  1.00  0.00     0.169 HD
ENDROOT
BRANCH   8  13
HETATM   13  C   UNL     1      -8.783   2.231 -32.092  1.00  0.00     0.136 C 
BRANCH  13  14
HETATM   14  N   UNL     1      -9.149   2.554 -33.468  1.00  0.00    -0.289 NA
HETATM   15  H   UNL     1      -8.960   3.538 -33.661  1.00  0.00     0.128 HD
BRANCH  14  16
HETATM   16  C   UNL     1     -10.422   2.202 -33.939  1.00  0.00     0.008 A 
HETATM   17  C   UNL     1     -11.021   1.039 -33.438  1.00  0.00     0.026 A 
HETATM   18  C   UNL     1     -12.322   0.676 -33.804  1.00  0.00     0.038 A 
HETATM   19  C   UNL     1     -13.074   1.486 -34.652  1.00  0.00     0.068 A 
HETATM   20  C   UNL     1     -12.508   2.666 -35.127  1.00  0.00     0.038 A 
HETATM   21  C   UNL     1     -11.201   3.023 -34.761  1.00  0.00     0.026 A 
BRANCH  19  22
HETATM   22  O   UNL     1     -14.331   1.026 -34.926  1.00  0.00    -0.356 OA
HETATM   23  C   UNL     1     -15.276   1.076 -33.865  1.00  0.00     0.210 C 
ENDBRANCH  19  22
ENDBRANCH  14  16
ENDBRANCH  13  14
ENDBRANCH   8  13
BRANCH   1  24
HETATM   24  O   UNL     1      -4.543  -3.275 -34.800  1.00  0.00    -0.351 OA
BRANCH  24  25
HETATM   25  C   UNL     1      -5.122  -4.560 -34.581  1.00  0.00     0.171 C 
HETATM   26  C   UNL     1      -6.386  -4.655 -35.415  1.00  0.00     0.034 C 
ENDBRANCH  24  25
ENDBRANCH   1  24
TORSDOF 6
ENDMDL
MODEL 6
REMARK VINA RESULT:      -7.3      2.204      2.547
REMARK  6 active torsions:
REMARK  status: ('A' for Active; 'I' for Inactive)
REMARK    1  A    between atoms: C_2  and  O_3 
REMARK    2  A    between atoms: O_3  and  C_4 
REMARK    3  A    between atoms: C_11  and  C_12 
REMARK    4  A    between atoms: C_12  and  N_13 
REMARK    5  A    between atoms: N_13  and  C_14 
REMARK    6  A    between atoms: C_17  and  O_18 
ROOT
HETATM    1  C   UNL     1      -5.356  -2.447 -34.483  1.00  0.00     0.069 A 
HETATM    2  C   UNL     1      -4.414  -1.625 -33.858  1.00  0.00     0.050 A 
HETATM    3  C   UNL     1      -4.822  -0.443 -33.230  1.00  0.00    -0.006 A 
HETATM    4  C   UNL     1      -6.176  -0.089 -33.228  1.00  0.00     0.045 A 
HETATM    5  N   UNL     1      -6.573   1.094 -32.594  1.00  0.00    -0.322 N 
HETATM    6  C   UNL     1      -5.707   1.942 -31.956  1.00  0.00     0.253 A 
HETATM    7  O   UNL     1      -6.110   2.961 -31.400  1.00  0.00    -0.268 OA
HETATM    8  C   UNL     1      -4.262   1.574 -31.965  1.00  0.00     0.024 A 
HETATM    9  C   UNL     1      -3.861   0.444 -32.577  1.00  0.00     0.027 A 
HETATM   10  C   UNL     1      -7.121  -0.901 -33.847  1.00  0.00     0.033 A 
HETATM   11  C   UNL     1      -6.704  -2.077 -34.475  1.00  0.00     0.039 A 
HETATM   12  H   UNL     1      -7.548   1.360 -32.575  1.00  0.00     0.169 HD
ENDROOT
BRANCH   8  13
HETATM   13  C   UNL     1      -3.309   2.537 -31.321  1.00  0.00     0.136 C 
BRANCH  13  14
HETATM   14  N   UNL     1      -2.630   3.290 -32.371  1.00  0.00    -0.289 NA
HETATM   15  H   UNL     1      -1.709   2.889 -32.554  1.00  0.00     0.128 HD
BRANCH  14  16
HETATM   16  C   UNL     1      -2.540   4.685 -32.266  1.00  0.00     0.008 A 
HETATM   17  C   UNL     1      -1.268   5.271 -32.227  1.00  0.00     0.026 A 
HETATM   18  C   UNL     1      -1.108   6.661 -32.206  1.00  0.00     0.038 A 
HETATM   19  C   UNL     1      -2.216   7.504 -32.260  1.00  0.00     0.068 A 
HETATM   20  C   UNL     1      -3.485   6.939 -32.339  1.00  0.00     0.038 A 
HETATM   21  C   UNL     1      -3.640   5.544 -32.355  1.00  0.00     0.026 A 
BRANCH  19  22
HETATM   22  O   UNL     1      -1.926   8.840 -32.241  1.00  0.00    -0.356 OA
HETATM   23  C   UNL     1      -2.327   9.565 -31.086  1.00  0.00     0.210 C 
ENDBRANCH  19  22
ENDBRANCH  14  16
ENDBRANCH  13  14
ENDBRANCH   8  13
BRANCH   1  24
HETATM   24  O   UNL     1      -5.091  -3.622 -35.133  1.00  0.00    -0.351 OA
BRANCH  24  25
HETATM   25  C   UNL     1      -5.163  -4.822 -34.365  1.00  0.00     0.171 C 
HETATM   26  C   UNL     1      -3.834  -5.008 -33.658  1.00  0.00     0.034 C 
ENDBRANCH  24  25
ENDBRANCH   1  24
TORSDOF 6
ENDMDL
MODEL 7
REMARK VINA RESULT:      -7.2      1.892      2.146
REMARK  6 active torsions:
REMARK  status: ('A' for Active; 'I' for Inactive)
REMARK    1  A    between atoms: C_2  and  O_3 
REMARK    2  A    between atoms: O_3  and  C_4 
REMARK    3  A    between atoms: C_11  and  C_12 
REMARK    4  A    between atoms: C_12  and  N_13 
REMARK    5  A    between atoms: N_13  and  C_14 
REMARK    6  A    between atoms: C_17  and  O_18 
ROOT
HETATM    1  C   UNL     1      -4.933  -1.781 -33.698  1.00  0.00     0.069 A 
HETATM    2  C   UNL     1      -4.879  -0.524 -33.089  1.00  0.00     0.050 A 
HETATM    3  C   UNL     1      -5.891   0.413 -33.327  1.00  0.00    -0.006 A 
HETATM    4  C   UNL     1      -6.957   0.086 -34.173  1.00  0.00     0.045 A 
HETATM    5  N   UNL     1      -7.965   1.030 -34.401  1.00  0.00    -0.322 N 
HETATM    6  C   UNL     1      -7.981   2.277 -33.832  1.00  0.00     0.253 A 
HETATM    7  O   UNL     1      -8.899   3.063 -34.053  1.00  0.00    -0.268 OA
HETATM    8  C   UNL     1      -6.841   2.633 -32.938  1.00  0.00     0.024 A 
HETATM    9  C   UNL     1      -5.859   1.740 -32.714  1.00  0.00     0.027 A 
HETATM   10  C   UNL     1      -7.019  -1.163 -34.783  1.00  0.00     0.033 A 
HETATM   11  C   UNL     1      -6.003  -2.091 -34.543  1.00  0.00     0.039 A 
HETATM   12  H   UNL     1      -8.746   0.807 -35.001  1.00  0.00     0.169 HD
ENDROOT
BRANCH   8  13
HETATM   13  C   UNL     1      -6.830   4.020 -32.369  1.00  0.00     0.136 C 
BRANCH  13  14
HETATM   14  N   UNL     1      -6.624   4.968 -33.460  1.00  0.00    -0.289 NA
HETATM   15  H   UNL     1      -7.056   4.620 -34.316  1.00  0.00     0.128 HD
BRANCH  14  16
HETATM   16  C   UNL     1      -5.329   5.436 -33.725  1.00  0.00     0.008 A 
HETATM   17  C   UNL     1      -4.737   6.317 -32.810  1.00  0.00     0.026 A 
HETATM   18  C   UNL     1      -3.419   6.757 -32.972  1.00  0.00     0.038 A 
HETATM   19  C   UNL     1      -2.643   6.297 -34.034  1.00  0.00     0.068 A 
HETATM   20  C   UNL     1      -3.202   5.390 -34.930  1.00  0.00     0.038 A 
HETATM   21  C   UNL     1      -4.527   4.957 -34.765  1.00  0.00     0.026 A 
BRANCH  19  22
HETATM   22  O   UNL     1      -1.370   6.794 -34.076  1.00  0.00    -0.356 OA
HETATM   23  C   UNL     1      -0.685   6.905 -32.836  1.00  0.00     0.210 C 
ENDBRANCH  19  22
ENDBRANCH  14  16
ENDBRANCH  13  14
ENDBRANCH   8  13
BRANCH   1  24
HETATM   24  O   UNL     1      -4.012  -2.783 -33.554  1.00  0.00    -0.351 OA
BRANCH  24  25
HETATM   25  C   UNL     1      -4.221  -3.974 -34.310  1.00  0.00     0.171 C 
HETATM   26  C   UNL     1      -3.870  -5.158 -33.428  1.00  0.00     0.034 C 
ENDBRANCH  24  25
ENDBRANCH   1  24
TORSDOF 6
ENDMDL
MODEL 8
REMARK VINA RESULT:      -7.2      1.926      2.626
REMARK  6 active torsions:
REMARK  status: ('A' for Active; 'I' for Inactive)
REMARK    1  A    between atoms: C_2  and  O_3 
REMARK    2  A    between atoms: O_3  and  C_4 
REMARK    3  A    between atoms: C_11  and  C_12 
REMARK    4  A    between atoms: C_12  and  N_13 
REMARK    5  A    between atoms: N_13  and  C_14 
REMARK    6  A    between atoms: C_17  and  O_18 
ROOT
HETATM    1  C   UNL     1      -4.539  -2.192 -33.946  1.00  0.00     0.069 A 
HETATM    2  C   UNL     1      -5.292  -1.036 -34.164  1.00  0.00     0.050 A 
HETATM    3  C   UNL     1      -5.238   0.019 -33.244  1.00  0.00    -0.006 A 
HETATM    4  C   UNL     1      -4.427  -0.089 -32.110  1.00  0.00     0.045 A 
HETATM    5  N   UNL     1      -4.378   0.972 -31.199  1.00  0.00    -0.322 N 
HETATM    6  C   UNL     1      -5.082   2.138 -31.352  1.00  0.00     0.253 A 
HETATM    7  O   UNL     1      -4.992   3.046 -30.531  1.00  0.00    -0.268 OA
HETATM    8  C   UNL     1      -5.958   2.252 -32.554  1.00  0.00     0.024 A 
HETATM    9  C   UNL     1      -6.022   1.238 -33.437  1.00  0.00     0.027 A 
HETATM   10  C   UNL     1      -3.673  -1.237 -31.885  1.00  0.00     0.033 A 
HETATM   11  C   UNL     1      -3.735  -2.286 -32.806  1.00  0.00     0.039 A 
HETATM   12  H   UNL     1      -3.790   0.915 -30.379  1.00  0.00     0.169 HD
ENDROOT
BRANCH   8  13
HETATM   13  C   UNL     1      -6.775   3.503 -32.686  1.00  0.00     0.136 C 
BRANCH  13  14
HETATM   14  N   UNL     1      -6.430   4.152 -33.946  1.00  0.00    -0.289 NA
HETATM   15  H   UNL     1      -6.489   3.483 -34.716  1.00  0.00     0.128 HD
BRANCH  14  16
HETATM   16  C   UNL     1      -5.242   4.891 -34.034  1.00  0.00     0.008 A 
HETATM   17  C   UNL     1      -4.871   5.690 -32.945  1.00  0.00     0.026 A 
HETATM   18  C   UNL     1      -3.658   6.387 -32.934  1.00  0.00     0.038 A 
HETATM   19  C   UNL     1      -2.764   6.273 -33.997  1.00  0.00     0.068 A 
HETATM   20  C   UNL     1      -3.099   5.452 -35.069  1.00  0.00     0.038 A 
HETATM   21  C   UNL     1      -4.320   4.759 -35.077  1.00  0.00     0.026 A 
BRANCH  19  22
HETATM   22  O   UNL     1      -1.612   6.996 -33.863  1.00  0.00    -0.356 OA
HETATM   23  C   UNL     1      -1.526   7.860 -32.737  1.00  0.00     0.210 C 
ENDBRANCH  19  22
ENDBRANCH  14  16
ENDBRANCH  13  14
ENDBRANCH   8  13
BRANCH   1  24
HETATM   24  O   UNL     1      -4.503  -3.292 -34.760  1.00  0.00    -0.351 OA
BRANCH  24  25
HETATM   25  C   UNL     1      -5.311  -4.407 -34.386  1.00  0.00     0.171 C 
HETATM   26  C   UNL     1      -6.441  -4.527 -35.391  1.00  0.00     0.034 C 
ENDBRANCH  24  25
ENDBRANCH   1  24
TORSDOF 6
ENDMDL
MODEL 9
REMARK VINA RESULT:      -7.0      3.071      3.525
REMARK  6 active torsions:
REMARK  status: ('A' for Active; 'I' for Inactive)
REMARK    1  A    between atoms: C_2  and  O_3 
REMARK    2  A    between atoms: O_3  and  C_4 
REMARK    3  A    between atoms: C_11  and  C_12 
REMARK    4  A    between atoms: C_12  and  N_13 
REMARK    5  A    between atoms: N_13  and  C_14 
REMARK    6  A    between atoms: C_17  and  O_18 
ROOT
HETATM    1  C   UNL     1      -6.529  -1.285 -34.561  1.00  0.00     0.069 A 
HETATM    2  C   UNL     1      -5.504  -0.811 -33.739  1.00  0.00     0.050 A 
HETATM    3  C   UNL     1      -5.426   0.552 -33.432  1.00  0.00    -0.006 A 
HETATM    4  C   UNL     1      -6.378   1.437 -33.950  1.00  0.00     0.045 A 
HETATM    5  N   UNL     1      -6.291   2.798 -33.635  1.00  0.00    -0.322 N 
HETATM    6  C   UNL     1      -5.319   3.331 -32.829  1.00  0.00     0.253 A 
HETATM    7  O   UNL     1      -5.297   4.531 -32.570  1.00  0.00    -0.268 OA
HETATM    8  C   UNL     1      -4.295   2.393 -32.284  1.00  0.00     0.024 A 
HETATM    9  C   UNL     1      -4.359   1.082 -32.584  1.00  0.00     0.027 A 
HETATM   10  C   UNL     1      -7.402   0.975 -34.770  1.00  0.00     0.033 A 
HETATM   11  C   UNL     1      -7.471  -0.387 -35.074  1.00  0.00     0.039 A 
HETATM   12  H   UNL     1      -6.976   3.449 -33.992  1.00  0.00     0.169 HD
ENDROOT
BRANCH   8  13
HETATM   13  C   UNL     1      -3.197   2.989 -31.455  1.00  0.00     0.136 C 
BRANCH  13  14
HETATM   14  N   UNL     1      -2.545   4.037 -32.235  1.00  0.00    -0.289 NA
HETATM   15  H   UNL     1      -1.938   3.623 -32.945  1.00  0.00     0.128 HD
BRANCH  14  16
HETATM   16  C   UNL     1      -1.874   5.071 -31.567  1.00  0.00     0.008 A 
HETATM   17  C   UNL     1      -2.630   5.976 -30.809  1.00  0.00     0.026 A 
HETATM   18  C   UNL     1      -2.017   6.980 -30.052  1.00  0.00     0.038 A 
HETATM   19  C   UNL     1      -0.628   7.084 -30.002  1.00  0.00     0.068 A 
HETATM   20  C   UNL     1       0.139   6.169 -30.717  1.00  0.00     0.038 A 
HETATM   21  C   UNL     1      -0.482   5.167 -31.479  1.00  0.00     0.026 A 
BRANCH  19  22
HETATM   22  O   UNL     1      -0.153   8.101 -29.222  1.00  0.00    -0.356 OA
HETATM   23  C   UNL     1       0.874   7.770 -28.296  1.00  0.00     0.210 C 
ENDBRANCH  19  22
ENDBRANCH  14  16
ENDBRANCH  13  14
ENDBRANCH   8  13
BRANCH   1  24
HETATM   24  O   UNL     1      -6.719  -2.586 -34.940  1.00  0.00    -0.351 OA
BRANCH  24  25
HETATM   25  C   UNL     1      -5.667  -3.508 -34.657  1.00  0.00     0.171 C 
HETATM   26  C   UNL     1      -6.076  -4.867 -35.194  1.00  0.00     0.034 C 
ENDBRANCH  24  25
ENDBRANCH   1  24
TORSDOF 6
ENDMDL
MODEL 10
REMARK VINA RESULT:      -6.9      7.302     11.329
REMARK  6 active torsions:
REMARK  status: ('A' for Active; 'I' for Inactive)
REMARK    1  A    between atoms: C_2  and  O_3 
REMARK    2  A    between atoms: O_3  and  C_4 
REMARK    3  A    between atoms: C_11  and  C_12 
REMARK    4  A    between atoms: C_12  and  N_13 
REMARK    5  A    between atoms: N_13  and  C_14 
REMARK    6  A    between atoms: C_17  and  O_18 
ROOT
HETATM    1  C   UNL     1       1.951   9.367 -24.827  1.00  0.00     0.069 A 
HETATM    2  C   UNL     1       2.116   8.499 -25.909  1.00  0.00     0.050 A 
HETATM    3  C   UNL     1       1.023   8.176 -26.721  1.00  0.00    -0.006 A 
HETATM    4  C   UNL     1      -0.233   8.728 -26.447  1.00  0.00     0.045 A 
HETATM    5  N   UNL     1      -1.319   8.401 -27.268  1.00  0.00    -0.322 N 
HETATM    6  C   UNL     1      -1.229   7.564 -28.349  1.00  0.00     0.253 A 
HETATM    7  O   UNL     1      -2.210   7.322 -29.048  1.00  0.00    -0.268 OA
HETATM    8  C   UNL     1       0.106   6.965 -28.638  1.00  0.00     0.024 A 
HETATM    9  C   UNL     1       1.159   7.262 -27.854  1.00  0.00     0.027 A 
HETATM   10  C   UNL     1      -0.407   9.594 -25.372  1.00  0.00     0.033 A 
HETATM   11  C   UNL     1       0.689   9.908 -24.564  1.00  0.00     0.039 A 
HETATM   12  H   UNL     1      -2.231   8.798 -27.090  1.00  0.00     0.169 HD
ENDROOT
BRANCH   8  13
HETATM   13  C   UNL     1       0.186   6.000 -29.784  1.00  0.00     0.136 C 
BRANCH  13  14
HETATM   14  N   UNL     1       0.313   6.761 -31.023  1.00  0.00    -0.289 NA
HETATM   15  H   UNL     1       0.312   7.763 -30.824  1.00  0.00     0.128 HD
BRANCH  14  16
HETATM   16  C   UNL     1      -0.548   6.478 -32.092  1.00  0.00     0.008 A 
HETATM   17  C   UNL     1      -0.944   5.149 -32.296  1.00  0.00     0.026 A 
HETATM   18  C   UNL     1      -1.865   4.810 -33.293  1.00  0.00     0.038 A 
HETATM   19  C   UNL     1      -2.445   5.796 -34.090  1.00  0.00     0.068 A 
HETATM   20  C   UNL     1      -2.093   7.125 -33.874  1.00  0.00     0.038 A 
HETATM   21  C   UNL     1      -1.164   7.459 -32.876  1.00  0.00     0.026 A 
BRANCH  19  22
HETATM   22  O   UNL     1      -3.335   5.337 -35.020  1.00  0.00    -0.356 OA
HETATM   23  C   UNL     1      -4.631   4.991 -34.550  1.00  0.00     0.210 C 
ENDBRANCH  19  22
ENDBRANCH  14  16
ENDBRANCH  13  14
ENDBRANCH   8  13
BRANCH   1  24
HETATM   24  O   UNL     1       2.931   9.760 -23.957  1.00  0.00    -0.351 OA
BRANCH  24  25
HETATM   25  C   UNL     1       2.670   9.598 -22.564  1.00  0.00     0.171 C 
HETATM   26  C   UNL     1       3.248   8.264 -22.129  1.00  0.00     0.034 C 
ENDBRANCH  24  25
ENDBRANCH   1  24
TORSDOF 6
ENDMDL
