MODEL 1
REMARK VINA RESULT:      -8.7      0.000      0.000
REMARK  6 active torsions:
REMARK  status: ('A' for Active; 'I' for Inactive)
REMARK    1  A    between atoms: N_2  and  C_4 
REMARK    2  A    between atoms: C_4  and  C_5 
REMARK    3  A    between atoms: C_5  and  C_6 
REMARK    4  A    between atoms: C_6  and  N_7 
REMARK    5  A    between atoms: C_17  and  C_18 
REMARK    6  A    between atoms: C_26  and  O_27 
ROOT
HETATM    1  N   UNL     1      -4.005   2.553 -31.839  1.00  0.00    -0.327 N 
HETATM    2  C   UNL     1      -4.777   2.040 -32.809  1.00  0.00     0.113 C 
HETATM    3  N   UNL     1      -5.502   2.767 -33.642  1.00  0.00    -0.385 N 
HETATM    4  H   UNL     1      -6.098   2.344 -34.346  1.00  0.00     0.157 HD
HETATM    5  H   UNL     1      -5.609   3.768 -33.583  1.00  0.00     0.157 HD
HETATM    6  C   UNL     1      -4.801   0.547 -32.948  1.00  0.00     0.052 C 
HETATM    7  C   UNL     1      -4.082  -0.186 -32.078  1.00  0.00     0.182 C 
HETATM    8  O   UNL     1      -4.014  -1.570 -32.131  1.00  0.00    -0.291 OA
HETATM    9  C   UNL     1      -4.552  -2.240 -33.199  1.00  0.00     0.087 A 
HETATM   10  C   UNL     1      -5.332  -1.600 -34.163  1.00  0.00    -0.011 A 
HETATM   11  C   UNL     1      -5.636  -0.126 -34.022  1.00  0.00     0.095 C 
HETATM   12  C   UNL     1      -4.285  -3.609 -33.277  1.00  0.00     0.074 A 
HETATM   13  C   UNL     1      -4.793  -4.337 -34.346  1.00  0.00     0.068 A 
HETATM   14  C   UNL     1      -5.558  -3.719 -35.328  1.00  0.00     0.037 A 
HETATM   15  C   UNL     1      -5.829  -2.353 -35.239  1.00  0.00     0.014 A 
HETATM   16  N   UNL     1      -3.408   0.368 -31.029  1.00  0.00    -0.219 NA
HETATM   17  C   UNL     1      -3.408   1.641 -30.902  1.00  0.00     0.214 C 
ENDROOT
BRANCH   1  18
HETATM   18  C   UNL     1      -3.899   4.016 -31.592  1.00  0.00     0.133 C 
BRANCH  18  19
HETATM   19  C   UNL     1      -2.714   4.739 -32.259  1.00  0.00     0.048 C 
BRANCH  19  20
HETATM   20  C   UNL     1      -3.091   6.034 -32.982  1.00  0.00     0.235 C 
BRANCH  20  21
HETATM   21  N   UNL     1      -2.758   5.956 -34.463  1.00  0.00    -0.079 N 
HETATM   22  C   UNL     1      -3.803   5.256 -35.306  1.00  0.00     0.269 C 
HETATM   23  H   UNL     1      -2.670   6.909 -34.846  1.00  0.00     0.278 HD
HETATM   24  C   UNL     1      -1.402   5.315 -34.696  1.00  0.00     0.269 C 
ENDBRANCH  20  21
ENDBRANCH  19  20
ENDBRANCH  18  19
ENDBRANCH   1  18
BRANCH  11  25
HETATM   25  C   UNL     1      -7.132   0.116 -33.803  1.00  0.00    -0.045 A 
HETATM   26  C   UNL     1      -7.737  -0.123 -32.556  1.00  0.00     0.010 A 
HETATM   27  C   UNL     1      -9.099   0.118 -32.365  1.00  0.00     0.024 A 
HETATM   28  C   UNL     1      -9.876   0.584 -33.422  1.00  0.00     0.034 A 
HETATM   29 CL   UNL     1     -11.547   0.896 -33.182  1.00  0.00    -0.084 Cl
HETATM   30  C   UNL     1      -9.304   0.796 -34.674  1.00  0.00     0.024 A 
HETATM   31  C   UNL     1      -7.940   0.557 -34.868  1.00  0.00     0.010 A 
ENDBRANCH  11  25
BRANCH  13  32
HETATM   32  O   UNL     1      -4.565  -5.673 -34.476  1.00  0.00    -0.361 OA
HETATM   33  H   UNL     1      -4.656  -6.110 -33.613  1.00  0.00     0.217 HD
ENDBRANCH  13  32
TORSDOF 6
ENDMDL
MODEL 2
REMARK VINA RESULT:      -8.5      1.358      1.837
REMARK  6 active torsions:
REMARK  status: ('A' for Active; 'I' for Inactive)
REMARK    1  A    between atoms: N_2  and  C_4 
REMARK    2  A    between atoms: C_4  and  C_5 
REMARK    3  A    between atoms: C_5  and  C_6 
REMARK    4  A    between atoms: C_6  and  N_7 
REMARK    5  A    between atoms: C_17  and  C_18 
REMARK    6  A    between atoms: C_26  and  O_27 
ROOT
HETATM    1  N   UNL     1      -3.864   2.389 -31.813  1.00  0.00    -0.327 N 
HETATM    2  C   UNL     1      -4.651   1.908 -32.787  1.00  0.00     0.113 C 
HETATM    3  N   UNL     1      -5.358   2.663 -33.611  1.00  0.00    -0.385 N 
HETATM    4  H   UNL     1      -5.966   2.264 -34.318  1.00  0.00     0.157 HD
HETATM    5  H   UNL     1      -5.439   3.666 -33.540  1.00  0.00     0.157 HD
HETATM    6  C   UNL     1      -4.715   0.417 -32.944  1.00  0.00     0.052 C 
HETATM    7  C   UNL     1      -4.014  -0.344 -32.084  1.00  0.00     0.182 C 
HETATM    8  O   UNL     1      -3.983  -1.728 -32.152  1.00  0.00    -0.291 OA
HETATM    9  C   UNL     1      -4.541  -2.372 -33.227  1.00  0.00     0.087 A 
HETATM   10  C   UNL     1      -5.305  -1.700 -34.181  1.00  0.00    -0.011 A 
HETATM   11  C   UNL     1      -5.570  -0.221 -34.023  1.00  0.00     0.095 C 
HETATM   12  C   UNL     1      -4.310  -3.746 -33.321  1.00  0.00     0.074 A 
HETATM   13  C   UNL     1      -4.839  -4.449 -34.397  1.00  0.00     0.068 A 
HETATM   14  C   UNL     1      -5.589  -3.800 -35.370  1.00  0.00     0.037 A 
HETATM   15  C   UNL     1      -5.824  -2.428 -35.265  1.00  0.00     0.014 A 
HETATM   16  N   UNL     1      -3.324   0.180 -31.030  1.00  0.00    -0.219 NA
HETATM   17  C   UNL     1      -3.289   1.450 -30.888  1.00  0.00     0.214 C 
ENDROOT
BRANCH   1  18
HETATM   18  C   UNL     1      -3.719   3.845 -31.550  1.00  0.00     0.133 C 
BRANCH  18  19
HETATM   19  C   UNL     1      -2.350   4.468 -31.880  1.00  0.00     0.048 C 
BRANCH  19  20
HETATM   20  C   UNL     1      -2.104   5.833 -31.234  1.00  0.00     0.235 C 
BRANCH  20  21
HETATM   21  N   UNL     1      -1.321   5.698 -29.939  1.00  0.00    -0.079 N 
HETATM   22  C   UNL     1      -1.245   6.966 -29.116  1.00  0.00     0.269 C 
HETATM   23  H   UNL     1      -1.770   4.990 -29.338  1.00  0.00     0.278 HD
HETATM   24  C   UNL     1       0.079   5.167 -30.188  1.00  0.00     0.269 C 
ENDBRANCH  20  21
ENDBRANCH  19  20
ENDBRANCH  18  19
ENDBRANCH   1  18
BRANCH  11  25
HETATM   25  C   UNL     1      -7.058   0.058 -33.799  1.00  0.00    -0.045 A 
HETATM   26  C   UNL     1      -7.667  -0.179 -32.552  1.00  0.00     0.010 A 
HETATM   27  C   UNL     1      -9.022   0.096 -32.356  1.00  0.00     0.024 A 
HETATM   28  C   UNL     1      -9.788   0.594 -33.407  1.00  0.00     0.034 A 
HETATM   29 CL   UNL     1     -11.450   0.948 -33.159  1.00  0.00    -0.084 Cl
HETATM   30  C   UNL     1      -9.213   0.805 -34.657  1.00  0.00     0.024 A 
HETATM   31  C   UNL     1      -7.856   0.532 -34.857  1.00  0.00     0.010 A 
ENDBRANCH  11  25
BRANCH  13  32
HETATM   32  O   UNL     1      -4.647  -5.789 -34.542  1.00  0.00    -0.361 OA
HETATM   33  H   UNL     1      -4.579  -6.013 -35.485  1.00  0.00     0.217 HD
ENDBRANCH  13  32
TORSDOF 6
ENDMDL
MODEL 3
REMARK VINA RESULT:      -8.4      3.406      5.533
REMARK  6 active torsions:
REMARK  status: ('A' for Active; 'I' for Inactive)
REMARK    1  A    between atoms: N_2  and  C_4 
REMARK    2  A    between atoms: C_4  and  C_5 
REMARK    3  A    between atoms: C_5  and  C_6 
REMARK    4  A    between atoms: C_6  and  N_7 
REMARK    5  A    between atoms: C_17  and  C_18 
REMARK    6  A    between atoms: C_26  and  O_27 
ROOT
HETATM    1  N   UNL     1      -5.529   4.395 -32.517  1.00  0.00    -0.327 N 
HETATM    2  C   UNL     1      -6.177   3.234 -32.344  1.00  0.00     0.113 C 
HETATM    3  N   UNL     1      -5.729   2.238 -31.597  1.00  0.00    -0.385 N 
HETATM    4  H   UNL     1      -6.232   1.362 -31.512  1.00  0.00     0.157 HD
HETATM    5  H   UNL     1      -4.825   2.220 -31.150  1.00  0.00     0.157 HD
HETATM    6  C   UNL     1      -7.496   3.074 -33.041  1.00  0.00     0.052 C 
HETATM    7  C   UNL     1      -7.931   4.081 -33.820  1.00  0.00     0.182 C 
HETATM    8  O   UNL     1      -9.143   4.049 -34.490  1.00  0.00    -0.291 OA
HETATM    9  C   UNL     1     -10.037   3.040 -34.238  1.00  0.00     0.087 A 
HETATM   10  C   UNL     1      -9.705   1.930 -33.460  1.00  0.00    -0.011 A 
HETATM   11  C   UNL     1      -8.308   1.801 -32.898  1.00  0.00     0.095 C 
HETATM   12  C   UNL     1     -11.306   3.172 -34.806  1.00  0.00     0.074 A 
HETATM   13  C   UNL     1     -12.257   2.186 -34.573  1.00  0.00     0.068 A 
HETATM   14  C   UNL     1     -11.956   1.080 -33.787  1.00  0.00     0.037 A 
HETATM   15  C   UNL     1     -10.684   0.949 -33.230  1.00  0.00     0.014 A 
HETATM   16  N   UNL     1      -7.183   5.196 -34.068  1.00  0.00    -0.219 NA
HETATM   17  C   UNL     1      -6.050   5.318 -33.488  1.00  0.00     0.214 C 
ENDROOT
BRANCH   1  18
HETATM   18  C   UNL     1      -4.211   4.676 -31.887  1.00  0.00     0.133 C 
BRANCH  18  19
HETATM   19  C   UNL     1      -2.969   4.169 -32.644  1.00  0.00     0.048 C 
BRANCH  19  20
HETATM   20  C   UNL     1      -1.701   4.990 -32.398  1.00  0.00     0.235 C 
BRANCH  20  21
HETATM   21  N   UNL     1      -1.330   5.813 -33.621  1.00  0.00    -0.079 N 
HETATM   22  C   UNL     1      -1.890   7.219 -33.626  1.00  0.00     0.269 C 
HETATM   23  H   UNL     1      -0.306   5.910 -33.672  1.00  0.00     0.278 HD
HETATM   24  C   UNL     1      -1.720   5.105 -34.906  1.00  0.00     0.269 C 
ENDBRANCH  20  21
ENDBRANCH  19  20
ENDBRANCH  18  19
ENDBRANCH   1  18
BRANCH  11  25
HETATM   25  C   UNL     1      -7.575   0.597 -33.497  1.00  0.00    -0.045 A 
HETATM   26  C   UNL     1      -7.413   0.459 -34.888  1.00  0.00     0.010 A 
HETATM   27  C   UNL     1      -6.728  -0.635 -35.421  1.00  0.00     0.024 A 
HETATM   28  C   UNL     1      -6.213  -1.612 -34.573  1.00  0.00     0.034 A 
HETATM   29 CL   UNL     1      -5.357  -2.948 -35.228  1.00  0.00    -0.084 Cl
HETATM   30  C   UNL     1      -6.391  -1.511 -33.195  1.00  0.00     0.024 A 
HETATM   31  C   UNL     1      -7.075  -0.416 -32.658  1.00  0.00     0.010 A 
ENDBRANCH  11  25
BRANCH  13  32
HETATM   32  O   UNL     1     -13.510   2.260 -35.099  1.00  0.00    -0.361 OA
HETATM   33  H   UNL     1     -14.123   1.723 -34.570  1.00  0.00     0.217 HD
ENDBRANCH  13  32
TORSDOF 6
ENDMDL
MODEL 4
REMARK VINA RESULT:      -8.1      3.904      6.932
REMARK  6 active torsions:
REMARK  status: ('A' for Active; 'I' for Inactive)
REMARK    1  A    between atoms: N_2  and  C_4 
REMARK    2  A    between atoms: C_4  and  C_5 
REMARK    3  A    between atoms: C_5  and  C_6 
REMARK    4  A    between atoms: C_6  and  N_7 
REMARK    5  A    between atoms: C_17  and  C_18 
REMARK    6  A    between atoms: C_26  and  O_27 
ROOT
HETATM    1  N   UNL     1     -10.481   2.674 -32.707  1.00  0.00    -0.327 N 
HETATM    2  C   UNL     1      -9.224   2.556 -32.255  1.00  0.00     0.113 C 
HETATM    3  N   UNL     1      -8.718   3.280 -31.272  1.00  0.00    -0.385 N 
HETATM    4  H   UNL     1      -7.752   3.184 -30.975  1.00  0.00     0.157 HD
HETATM    5  H   UNL     1      -9.196   4.044 -30.820  1.00  0.00     0.157 HD
HETATM    6  C   UNL     1      -8.354   1.525 -32.912  1.00  0.00     0.052 C 
HETATM    7  C   UNL     1      -8.870   0.811 -33.929  1.00  0.00     0.182 C 
HETATM    8  O   UNL     1      -8.163  -0.182 -34.590  1.00  0.00    -0.291 OA
HETATM    9  C   UNL     1      -6.948  -0.594 -34.106  1.00  0.00     0.087 A 
HETATM   10  C   UNL     1      -6.299   0.070 -33.065  1.00  0.00    -0.011 A 
HETATM   11  C   UNL     1      -6.921   1.309 -32.464  1.00  0.00     0.095 C 
HETATM   12  C   UNL     1      -6.383  -1.719 -34.710  1.00  0.00     0.074 A 
HETATM   13  C   UNL     1      -5.159  -2.191 -34.251  1.00  0.00     0.068 A 
HETATM   14  C   UNL     1      -4.501  -1.557 -33.204  1.00  0.00     0.037 A 
HETATM   15  C   UNL     1      -5.066  -0.428 -32.610  1.00  0.00     0.014 A 
HETATM   16  N   UNL     1     -10.113   1.047 -34.440  1.00  0.00    -0.219 NA
HETATM   17  C   UNL     1     -10.843   1.942 -33.890  1.00  0.00     0.214 C 
ENDROOT
BRANCH   1  18
HETATM   18  C   UNL     1     -11.442   3.662 -32.146  1.00  0.00     0.133 C 
BRANCH  18  19
HETATM   19  C   UNL     1     -12.888   3.583 -32.669  1.00  0.00     0.048 C 
BRANCH  19  20
HETATM   20  C   UNL     1     -13.934   3.290 -31.592  1.00  0.00     0.235 C 
BRANCH  20  21
HETATM   21  N   UNL     1     -14.756   2.060 -31.941  1.00  0.00    -0.079 N 
HETATM   22  C   UNL     1     -14.307   1.339 -33.194  1.00  0.00     0.269 C 
HETATM   23  H   UNL     1     -14.691   1.374 -31.174  1.00  0.00     0.278 HD
HETATM   24  C   UNL     1     -16.234   2.390 -32.045  1.00  0.00     0.269 C 
ENDBRANCH  20  21
ENDBRANCH  19  20
ENDBRANCH  18  19
ENDBRANCH   1  18
BRANCH  11  25
HETATM   25  C   UNL     1      -6.059   2.548 -32.724  1.00  0.00    -0.045 A 
HETATM   26  C   UNL     1      -5.209   3.069 -31.730  1.00  0.00     0.010 A 
HETATM   27  C   UNL     1      -4.416   4.189 -31.986  1.00  0.00     0.024 A 
HETATM   28  C   UNL     1      -4.476   4.812 -33.229  1.00  0.00     0.034 A 
HETATM   29 CL   UNL     1      -3.487   6.180 -33.547  1.00  0.00    -0.084 Cl
HETATM   30  C   UNL     1      -5.334   4.333 -34.215  1.00  0.00     0.024 A 
HETATM   31  C   UNL     1      -6.129   3.211 -33.963  1.00  0.00     0.010 A 
ENDBRANCH  11  25
BRANCH  13  32
HETATM   32  O   UNL     1      -4.560  -3.282 -34.801  1.00  0.00    -0.361 OA
HETATM   33  H   UNL     1      -5.098  -3.620 -35.536  1.00  0.00     0.217 HD
ENDBRANCH  13  32
TORSDOF 6
ENDMDL
MODEL 5
REMARK VINA RESULT:      -7.9      3.624      5.360
REMARK  6 active torsions:
REMARK  status: ('A' for Active; 'I' for Inactive)
REMARK    1  A    between atoms: N_2  and  C_4 
REMARK    2  A    between atoms: C_4  and  C_5 
REMARK    3  A    between atoms: C_5  and  C_6 
REMARK    4  A    between atoms: C_6  and  N_7 
REMARK    5  A    between atoms: C_17  and  C_18 
REMARK    6  A    between atoms: C_26  and  O_27 
ROOT
HETATM    1  N   UNL     1      -9.545   2.765 -31.255  1.00  0.00    -0.327 N 
HETATM    2  C   UNL     1      -8.296   2.314 -31.064  1.00  0.00     0.113 C 
HETATM    3  N   UNL     1      -7.520   2.682 -30.059  1.00  0.00    -0.385 N 
HETATM    4  H   UNL     1      -6.569   2.343 -29.961  1.00  0.00     0.157 HD
HETATM    5  H   UNL     1      -7.757   3.394 -29.385  1.00  0.00     0.157 HD
HETATM    6  C   UNL     1      -7.766   1.322 -32.057  1.00  0.00     0.052 C 
HETATM    7  C   UNL     1      -8.553   0.974 -33.091  1.00  0.00     0.182 C 
HETATM    8  O   UNL     1      -8.172   0.050 -34.053  1.00  0.00    -0.291 OA
HETATM    9  C   UNL     1      -7.025  -0.681 -33.882  1.00  0.00     0.087 A 
HETATM   10  C   UNL     1      -6.116  -0.410 -32.858  1.00  0.00    -0.011 A 
HETATM   11  C   UNL     1      -6.368   0.747 -31.920  1.00  0.00     0.095 C 
HETATM   12  C   UNL     1      -6.803  -1.718 -34.790  1.00  0.00     0.074 A 
HETATM   13  C   UNL     1      -5.663  -2.501 -34.658  1.00  0.00     0.068 A 
HETATM   14  C   UNL     1      -4.752  -2.263 -33.636  1.00  0.00     0.037 A 
HETATM   15  C   UNL     1      -4.974  -1.220 -32.737  1.00  0.00     0.014 A 
HETATM   16  N   UNL     1      -9.770   1.548 -33.318  1.00  0.00    -0.219 NA
HETATM   17  C   UNL     1     -10.209   2.409 -32.480  1.00  0.00     0.214 C 
ENDROOT
BRANCH   1  18
HETATM   18  C   UNL     1     -10.184   3.754 -30.347  1.00  0.00     0.133 C 
BRANCH  18  19
HETATM   19  C   UNL     1     -10.451   5.151 -30.936  1.00  0.00     0.048 C 
BRANCH  19  20
HETATM   20  C   UNL     1      -9.190   5.915 -31.345  1.00  0.00     0.235 C 
BRANCH  20  21
HETATM   21  N   UNL     1      -9.158   6.166 -32.843  1.00  0.00    -0.079 N 
HETATM   22  C   UNL     1     -10.493   6.000 -33.537  1.00  0.00     0.269 C 
HETATM   23  H   UNL     1      -8.857   7.135 -33.024  1.00  0.00     0.278 HD
HETATM   24  C   UNL     1      -8.116   5.301 -33.530  1.00  0.00     0.269 C 
ENDBRANCH  20  21
ENDBRANCH  19  20
ENDBRANCH  18  19
ENDBRANCH   1  18
BRANCH  11  25
HETATM   25  C   UNL     1      -5.298   1.832 -32.071  1.00  0.00    -0.045 A 
HETATM   26  C   UNL     1      -4.204   1.907 -31.188  1.00  0.00     0.010 A 
HETATM   27  C   UNL     1      -3.226   2.890 -31.347  1.00  0.00     0.024 A 
HETATM   28  C   UNL     1      -3.337   3.820 -32.378  1.00  0.00     0.034 A 
HETATM   29 CL   UNL     1      -2.125   5.018 -32.583  1.00  0.00    -0.084 Cl
HETATM   30  C   UNL     1      -4.428   3.783 -33.243  1.00  0.00     0.024 A 
HETATM   31  C   UNL     1      -5.409   2.799 -33.087  1.00  0.00     0.010 A 
ENDBRANCH  11  25
BRANCH  13  32
HETATM   32  O   UNL     1      -5.394  -3.526 -35.512  1.00  0.00    -0.361 OA
HETATM   33  H   UNL     1      -5.266  -3.182 -36.412  1.00  0.00     0.217 HD
ENDBRANCH  13  32
TORSDOF 6
ENDMDL
MODEL 6
REMARK VINA RESULT:      -7.5      3.898      5.509
REMARK  6 active torsions:
REMARK  status: ('A' for Active; 'I' for Inactive)
REMARK    1  A    between atoms: N_2  and  C_4 
REMARK    2  A    between atoms: C_4  and  C_5 
REMARK    3  A    between atoms: C_5  and  C_6 
REMARK    4  A    between atoms: C_6  and  N_7 
REMARK    5  A    between atoms: C_17  and  C_18 
REMARK    6  A    between atoms: C_26  and  O_27 
ROOT
HETATM    1  N   UNL     1      -7.595   4.125 -29.466  1.00  0.00    -0.327 N 
HETATM    2  C   UNL     1      -6.417   3.657 -29.904  1.00  0.00     0.113 C 
HETATM    3  N   UNL     1      -5.243   4.061 -29.450  1.00  0.00    -0.385 N 
HETATM    4  H   UNL     1      -4.370   3.705 -29.825  1.00  0.00     0.157 HD
HETATM    5  H   UNL     1      -5.114   4.813 -28.790  1.00  0.00     0.157 HD
HETATM    6  C   UNL     1      -6.452   2.602 -30.970  1.00  0.00     0.052 C 
HETATM    7  C   UNL     1      -7.651   2.216 -31.446  1.00  0.00     0.182 C 
HETATM    8  O   UNL     1      -7.800   1.234 -32.413  1.00  0.00    -0.291 OA
HETATM    9  C   UNL     1      -6.717   0.487 -32.801  1.00  0.00     0.087 A 
HETATM   10  C   UNL     1      -5.418   0.792 -32.391  1.00  0.00    -0.011 A 
HETATM   11  C   UNL     1      -5.172   2.003 -31.522  1.00  0.00     0.095 C 
HETATM   12  C   UNL     1      -6.975  -0.602 -33.636  1.00  0.00     0.074 A 
HETATM   13  C   UNL     1      -5.918  -1.402 -34.050  1.00  0.00     0.068 A 
HETATM   14  C   UNL     1      -4.618  -1.130 -33.642  1.00  0.00     0.037 A 
HETATM   15  C   UNL     1      -4.365  -0.036 -32.815  1.00  0.00     0.014 A 
HETATM   16  N   UNL     1      -8.820   2.805 -31.062  1.00  0.00    -0.219 NA
HETATM   17  C   UNL     1      -8.784   3.719 -30.167  1.00  0.00     0.214 C 
ENDROOT
BRANCH   1  18
HETATM   18  C   UNL     1      -7.698   5.175 -28.418  1.00  0.00     0.133 C 
BRANCH  18  19
HETATM   19  C   UNL     1      -8.228   6.547 -28.874  1.00  0.00     0.048 C 
BRANCH  19  20
HETATM   20  C   UNL     1      -7.308   7.289 -29.846  1.00  0.00     0.235 C 
BRANCH  20  21
HETATM   21  N   UNL     1      -7.952   7.433 -31.215  1.00  0.00    -0.079 N 
HETATM   22  C   UNL     1      -9.453   7.232 -31.228  1.00  0.00     0.269 C 
HETATM   23  H   UNL     1      -7.786   8.384 -31.575  1.00  0.00     0.278 HD
HETATM   24  C   UNL     1      -7.307   6.512 -32.234  1.00  0.00     0.269 C 
ENDBRANCH  20  21
ENDBRANCH  19  20
ENDBRANCH  18  19
ENDBRANCH   1  18
BRANCH  11  25
HETATM   25  C   UNL     1      -4.332   3.053 -32.254  1.00  0.00    -0.045 A 
HETATM   26  C   UNL     1      -2.982   3.271 -31.920  1.00  0.00     0.010 A 
HETATM   27  C   UNL     1      -2.222   4.220 -32.607  1.00  0.00     0.024 A 
HETATM   28  C   UNL     1      -2.805   4.974 -33.621  1.00  0.00     0.034 A 
HETATM   29 CL   UNL     1      -1.864   6.129 -34.476  1.00  0.00    -0.084 Cl
HETATM   30  C   UNL     1      -4.147   4.797 -33.945  1.00  0.00     0.024 A 
HETATM   31  C   UNL     1      -4.911   3.847 -33.261  1.00  0.00     0.010 A 
ENDBRANCH  11  25
BRANCH  13  32
HETATM   32  O   UNL     1      -6.109  -2.477 -34.864  1.00  0.00    -0.361 OA
HETATM   33  H   UNL     1      -7.009  -2.824 -34.749  1.00  0.00     0.217 HD
ENDBRANCH  13  32
TORSDOF 6
ENDMDL
MODEL 7
REMARK VINA RESULT:      -7.5      3.893      7.789
REMARK  6 active torsions:
REMARK  status: ('A' for Active; 'I' for Inactive)
REMARK    1  A    between atoms: N_2  and  C_4 
REMARK    2  A    between atoms: C_4  and  C_5 
REMARK    3  A    between atoms: C_5  and  C_6 
REMARK    4  A    between atoms: C_6  and  N_7 
REMARK    5  A    between atoms: C_17  and  C_18 
REMARK    6  A    between atoms: C_26  and  O_27 
ROOT
HETATM    1  N   UNL     1      -6.719   0.068 -32.945  1.00  0.00    -0.327 N 
HETATM    2  C   UNL     1      -6.615   1.366 -33.269  1.00  0.00     0.113 C 
HETATM    3  N   UNL     1      -6.550   1.818 -34.510  1.00  0.00    -0.385 N 
HETATM    4  H   UNL     1      -6.442   2.805 -34.717  1.00  0.00     0.157 HD
HETATM    5  H   UNL     1      -6.491   1.233 -35.329  1.00  0.00     0.157 HD
HETATM    6  C   UNL     1      -6.582   2.353 -32.140  1.00  0.00     0.052 C 
HETATM    7  C   UNL     1      -6.622   1.882 -30.880  1.00  0.00     0.182 C 
HETATM    8  O   UNL     1      -6.621   2.706 -29.765  1.00  0.00    -0.291 OA
HETATM    9  C   UNL     1      -6.754   4.062 -29.917  1.00  0.00     0.087 A 
HETATM   10  C   UNL     1      -6.713   4.678 -31.168  1.00  0.00    -0.011 A 
HETATM   11  C   UNL     1      -6.477   3.843 -32.406  1.00  0.00     0.095 C 
HETATM   12  C   UNL     1      -6.932   4.807 -28.749  1.00  0.00     0.074 A 
HETATM   13  C   UNL     1      -7.086   6.185 -28.843  1.00  0.00     0.068 A 
HETATM   14  C   UNL     1      -7.067   6.820 -30.079  1.00  0.00     0.037 A 
HETATM   15  C   UNL     1      -6.880   6.071 -31.241  1.00  0.00     0.014 A 
HETATM   16  N   UNL     1      -6.603   0.549 -30.591  1.00  0.00    -0.219 NA
HETATM   17  C   UNL     1      -6.609  -0.290 -31.557  1.00  0.00     0.214 C 
ENDROOT
BRANCH   1  18
HETATM   18  C   UNL     1      -6.755  -1.010 -33.969  1.00  0.00     0.133 C 
BRANCH  18  19
HETATM   19  C   UNL     1      -5.392  -1.532 -34.461  1.00  0.00     0.048 C 
BRANCH  19  20
HETATM   20  C   UNL     1      -5.216  -3.048 -34.341  1.00  0.00     0.235 C 
BRANCH  20  21
HETATM   21  N   UNL     1      -3.863  -3.401 -33.747  1.00  0.00    -0.079 N 
HETATM   22  C   UNL     1      -3.676  -4.872 -33.440  1.00  0.00     0.269 C 
HETATM   23  H   UNL     1      -3.118  -3.149 -34.414  1.00  0.00     0.278 HD
HETATM   24  C   UNL     1      -3.568  -2.580 -32.505  1.00  0.00     0.269 C 
ENDBRANCH  20  21
ENDBRANCH  19  20
ENDBRANCH  18  19
ENDBRANCH   1  18
BRANCH  11  25
HETATM   25  C   UNL     1      -5.147   4.202 -33.074  1.00  0.00    -0.045 A 
HETATM   26  C   UNL     1      -5.107   4.899 -34.296  1.00  0.00     0.010 A 
HETATM   27  C   UNL     1      -3.888   5.235 -34.887  1.00  0.00     0.024 A 
HETATM   28  C   UNL     1      -2.694   4.863 -34.274  1.00  0.00     0.034 A 
HETATM   29 CL   UNL     1      -1.195   5.291 -34.993  1.00  0.00    -0.084 Cl
HETATM   30  C   UNL     1      -2.711   4.144 -33.081  1.00  0.00     0.024 A 
HETATM   31  C   UNL     1      -3.931   3.807 -32.486  1.00  0.00     0.010 A 
ENDBRANCH  11  25
BRANCH  13  32
HETATM   32  O   UNL     1      -7.263   6.963 -27.740  1.00  0.00    -0.361 OA
HETATM   33  H   UNL     1      -8.209   7.150 -27.615  1.00  0.00     0.217 HD
ENDBRANCH  13  32
TORSDOF 6
ENDMDL
MODEL 8
REMARK VINA RESULT:      -7.3      1.874      2.313
REMARK  6 active torsions:
REMARK  status: ('A' for Active; 'I' for Inactive)
REMARK    1  A    between atoms: N_2  and  C_4 
REMARK    2  A    between atoms: C_4  and  C_5 
REMARK    3  A    between atoms: C_5  and  C_6 
REMARK    4  A    between atoms: C_6  and  N_7 
REMARK    5  A    between atoms: C_17  and  C_18 
REMARK    6  A    between atoms: C_26  and  O_27 
ROOT
HETATM    1  N   UNL     1      -6.429   3.901 -30.911  1.00  0.00    -0.327 N 
HETATM    2  C   UNL     1      -6.881   3.311 -32.028  1.00  0.00     0.113 C 
HETATM    3  N   UNL     1      -7.671   3.900 -32.909  1.00  0.00    -0.385 N 
HETATM    4  H   UNL     1      -8.017   3.413 -33.729  1.00  0.00     0.157 HD
HETATM    5  H   UNL     1      -8.076   4.816 -32.792  1.00  0.00     0.157 HD
HETATM    6  C   UNL     1      -6.444   1.899 -32.282  1.00  0.00     0.052 C 
HETATM    7  C   UNL     1      -5.661   1.299 -31.366  1.00  0.00     0.182 C 
HETATM    8  O   UNL     1      -5.182   0.007 -31.512  1.00  0.00    -0.291 OA
HETATM    9  C   UNL     1      -5.352  -0.656 -32.700  1.00  0.00     0.087 A 
HETATM   10  C   UNL     1      -6.153  -0.150 -33.725  1.00  0.00    -0.011 A 
HETATM   11  C   UNL     1      -6.894   1.151 -33.523  1.00  0.00     0.095 C 
HETATM   12  C   UNL     1      -4.685  -1.875 -32.838  1.00  0.00     0.074 A 
HETATM   13  C   UNL     1      -4.810  -2.584 -34.026  1.00  0.00     0.068 A 
HETATM   14  C   UNL     1      -5.587  -2.093 -35.069  1.00  0.00     0.037 A 
HETATM   15  C   UNL     1      -6.259  -0.879 -34.921  1.00  0.00     0.014 A 
HETATM   16  N   UNL     1      -5.325   1.891 -30.184  1.00  0.00    -0.219 NA
HETATM   17  C   UNL     1      -5.717   3.088 -29.961  1.00  0.00     0.214 C 
ENDROOT
BRANCH   1  18
HETATM   18  C   UNL     1      -6.793   5.294 -30.540  1.00  0.00     0.133 C 
BRANCH  18  19
HETATM   19  C   UNL     1      -5.866   6.407 -31.064  1.00  0.00     0.048 C 
BRANCH  19  20
HETATM   20  C   UNL     1      -4.382   6.184 -30.766  1.00  0.00     0.235 C 
BRANCH  20  21
HETATM   21  N   UNL     1      -3.637   5.708 -32.002  1.00  0.00    -0.079 N 
HETATM   22  C   UNL     1      -2.292   6.369 -32.219  1.00  0.00     0.269 C 
HETATM   23  H   UNL     1      -3.451   4.697 -31.924  1.00  0.00     0.278 HD
HETATM   24  C   UNL     1      -4.484   5.853 -33.253  1.00  0.00     0.269 C 
ENDBRANCH  20  21
ENDBRANCH  19  20
ENDBRANCH  18  19
ENDBRANCH   1  18
BRANCH  11  25
HETATM   25  C   UNL     1      -8.410   0.936 -33.530  1.00  0.00    -0.045 A 
HETATM   26  C   UNL     1      -9.024   0.032 -32.644  1.00  0.00     0.010 A 
HETATM   27  C   UNL     1     -10.409  -0.142 -32.649  1.00  0.00     0.024 A 
HETATM   28  C   UNL     1     -11.195   0.571 -33.551  1.00  0.00     0.034 A 
HETATM   29 CL   UNL     1     -12.900   0.368 -33.545  1.00  0.00    -0.084 Cl
HETATM   30  C   UNL     1     -10.604   1.446 -34.459  1.00  0.00     0.024 A 
HETATM   31  C   UNL     1      -9.217   1.624 -34.455  1.00  0.00     0.010 A 
ENDBRANCH  11  25
BRANCH  13  32
HETATM   32  O   UNL     1      -4.183  -3.777 -34.219  1.00  0.00    -0.361 OA
HETATM   33  H   UNL     1      -4.840  -4.489 -34.288  1.00  0.00     0.217 HD
ENDBRANCH  13  32
TORSDOF 6
ENDMDL
MODEL 9
REMARK VINA RESULT:      -7.2      4.172      6.388
REMARK  6 active torsions:
REMARK  status: ('A' for Active; 'I' for Inactive)
REMARK    1  A    between atoms: N_2  and  C_4 
REMARK    2  A    between atoms: C_4  and  C_5 
REMARK    3  A    between atoms: C_5  and  C_6 
REMARK    4  A    between atoms: C_6  and  N_7 
REMARK    5  A    between atoms: C_17  and  C_18 
REMARK    6  A    between atoms: C_26  and  O_27 
ROOT
HETATM    1  N   UNL     1     -10.165   2.848 -32.061  1.00  0.00    -0.327 N 
HETATM    2  C   UNL     1      -8.857   2.655 -31.838  1.00  0.00     0.113 C 
HETATM    3  N   UNL     1      -8.144   3.342 -30.963  1.00  0.00    -0.385 N 
HETATM    4  H   UNL     1      -7.148   3.189 -30.840  1.00  0.00     0.157 HD
HETATM    5  H   UNL     1      -8.490   4.130 -30.436  1.00  0.00     0.157 HD
HETATM    6  C   UNL     1      -8.177   1.580 -32.634  1.00  0.00     0.052 C 
HETATM    7  C   UNL     1      -8.904   0.903 -33.542  1.00  0.00     0.182 C 
HETATM    8  O   UNL     1      -8.383  -0.124 -34.314  1.00  0.00    -0.291 OA
HETATM    9  C   UNL     1      -7.128  -0.609 -34.049  1.00  0.00     0.087 A 
HETATM   10  C   UNL     1      -6.268   0.010 -33.142  1.00  0.00    -0.011 A 
HETATM   11  C   UNL     1      -6.702   1.279 -32.445  1.00  0.00     0.095 C 
HETATM   12  C   UNL     1      -6.744  -1.760 -34.740  1.00  0.00     0.074 A 
HETATM   13  C   UNL     1      -5.488  -2.304 -34.502  1.00  0.00     0.068 A 
HETATM   14  C   UNL     1      -4.620  -1.717 -33.590  1.00  0.00     0.037 A 
HETATM   15  C   UNL     1      -5.006  -0.562 -32.910  1.00  0.00     0.014 A 
HETATM   16  N   UNL     1     -10.202   1.214 -33.826  1.00  0.00    -0.219 NA
HETATM   17  C   UNL     1     -10.771   2.146 -33.160  1.00  0.00     0.214 C 
ENDROOT
BRANCH   1  18
HETATM   18  C   UNL     1     -10.952   3.886 -31.344  1.00  0.00     0.133 C 
BRANCH  18  19
HETATM   19  C   UNL     1     -11.054   5.262 -32.027  1.00  0.00     0.048 C 
BRANCH  19  20
HETATM   20  C   UNL     1     -12.325   6.044 -31.687  1.00  0.00     0.235 C 
BRANCH  20  21
HETATM   21  N   UNL     1     -12.567   6.077 -30.188  1.00  0.00    -0.079 N 
HETATM   22  C   UNL     1     -13.961   5.662 -29.767  1.00  0.00     0.269 C 
HETATM   23  H   UNL     1     -11.919   5.427 -29.719  1.00  0.00     0.278 HD
HETATM   24  C   UNL     1     -12.244   7.440 -29.602  1.00  0.00     0.269 C 
ENDBRANCH  20  21
ENDBRANCH  19  20
ENDBRANCH  18  19
ENDBRANCH   1  18
BRANCH  11  25
HETATM   25  C   UNL     1      -5.829   2.468 -32.858  1.00  0.00    -0.045 A 
HETATM   26  C   UNL     1      -6.097   3.198 -34.031  1.00  0.00     0.010 A 
HETATM   27  C   UNL     1      -5.304   4.291 -34.387  1.00  0.00     0.024 A 
HETATM   28  C   UNL     1      -4.225   4.655 -33.586  1.00  0.00     0.034 A 
HETATM   29 CL   UNL     1      -3.260   6.010 -34.016  1.00  0.00    -0.084 Cl
HETATM   30  C   UNL     1      -3.923   3.926 -32.438  1.00  0.00     0.024 A 
HETATM   31  C   UNL     1      -4.716   2.833 -32.078  1.00  0.00     0.010 A 
ENDBRANCH  11  25
BRANCH  13  32
HETATM   32  O   UNL     1      -5.059  -3.425 -35.144  1.00  0.00    -0.361 OA
HETATM   33  H   UNL     1      -5.192  -3.330 -36.102  1.00  0.00     0.217 HD
ENDBRANCH  13  32
TORSDOF 6
ENDMDL
MODEL 10
REMARK VINA RESULT:      -7.1      4.016      7.874
REMARK  6 active torsions:
REMARK  status: ('A' for Active; 'I' for Inactive)
REMARK    1  A    between atoms: N_2  and  C_4 
REMARK    2  A    between atoms: C_4  and  C_5 
REMARK    3  A    between atoms: C_5  and  C_6 
REMARK    4  A    between atoms: C_6  and  N_7 
REMARK    5  A    between atoms: C_17  and  C_18 
REMARK    6  A    between atoms: C_26  and  O_27 
ROOT
HETATM    1  N   UNL     1      -6.966   1.317 -32.440  1.00  0.00    -0.327 N 
HETATM    2  C   UNL     1      -6.392   2.135 -31.546  1.00  0.00     0.113 C 
HETATM    3  N   UNL     1      -6.477   1.978 -30.236  1.00  0.00    -0.385 N 
HETATM    4  H   UNL     1      -6.053   2.633 -29.587  1.00  0.00     0.157 HD
HETATM    5  H   UNL     1      -7.044   1.280 -29.779  1.00  0.00     0.157 HD
HETATM    6  C   UNL     1      -5.598   3.289 -32.083  1.00  0.00     0.052 C 
HETATM    7  C   UNL     1      -5.539   3.456 -33.417  1.00  0.00     0.182 C 
HETATM    8  O   UNL     1      -4.817   4.474 -34.020  1.00  0.00    -0.291 OA
HETATM    9  C   UNL     1      -3.981   5.257 -33.267  1.00  0.00     0.087 A 
HETATM   10  C   UNL     1      -3.957   5.193 -31.873  1.00  0.00    -0.011 A 
HETATM   11  C   UNL     1      -4.902   4.263 -31.150  1.00  0.00     0.095 C 
HETATM   12  C   UNL     1      -3.148   6.135 -33.965  1.00  0.00     0.074 A 
HETATM   13  C   UNL     1      -2.270   6.944 -33.255  1.00  0.00     0.068 A 
HETATM   14  C   UNL     1      -2.215   6.886 -31.867  1.00  0.00     0.037 A 
HETATM   15  C   UNL     1      -3.055   6.014 -31.175  1.00  0.00     0.014 A 
HETATM   16  N   UNL     1      -6.240   2.674 -34.289  1.00  0.00    -0.219 NA
HETATM   17  C   UNL     1      -6.933   1.704 -33.825  1.00  0.00     0.214 C 
ENDROOT
BRANCH   1  18
HETATM   18  C   UNL     1      -7.784   0.142 -32.038  1.00  0.00     0.133 C 
BRANCH  18  19
HETATM   19  C   UNL     1      -9.280   0.404 -31.783  1.00  0.00     0.048 C 
BRANCH  19  20
HETATM   20  C   UNL     1     -10.186   0.107 -32.979  1.00  0.00     0.235 C 
BRANCH  20  21
HETATM   21  N   UNL     1     -11.239   1.189 -33.156  1.00  0.00    -0.079 N 
HETATM   22  C   UNL     1     -12.559   0.696 -33.710  1.00  0.00     0.269 C 
HETATM   23  H   UNL     1     -11.451   1.616 -32.242  1.00  0.00     0.278 HD
HETATM   24  C   UNL     1     -10.724   2.333 -34.011  1.00  0.00     0.269 C 
ENDBRANCH  20  21
ENDBRANCH  19  20
ENDBRANCH  18  19
ENDBRANCH   1  18
BRANCH  11  25
HETATM   25  C   UNL     1      -5.909   5.042 -30.299  1.00  0.00    -0.045 A 
HETATM   26  C   UNL     1      -6.993   5.719 -30.887  1.00  0.00     0.010 A 
HETATM   27  C   UNL     1      -7.914   6.412 -30.098  1.00  0.00     0.024 A 
HETATM   28  C   UNL     1      -7.753   6.451 -28.716  1.00  0.00     0.034 A 
HETATM   29 CL   UNL     1      -8.895   7.289 -27.746  1.00  0.00    -0.084 Cl
HETATM   30  C   UNL     1      -6.669   5.814 -28.117  1.00  0.00     0.024 A 
HETATM   31  C   UNL     1      -5.746   5.118 -28.903  1.00  0.00     0.010 A 
ENDBRANCH  11  25
BRANCH  13  32
HETATM   32  O   UNL     1      -1.435   7.817 -33.881  1.00  0.00    -0.361 OA
HETATM   33  H   UNL     1      -1.255   7.513 -34.786  1.00  0.00     0.217 HD
ENDBRANCH  13  32
TORSDOF 6
ENDMDL
