MODEL 1
REMARK VINA RESULT:      -7.9      0.000      0.000
REMARK  8 active torsions:
REMARK  status: ('A' for Active; 'I' for Inactive)
REMARK    1  A    between atoms: C_2  and  O_3 
REMARK    2  A    between atoms: O_3  and  C_4 
REMARK    3  A    between atoms: C_6  and  O_7 
REMARK    4  A    between atoms: O_7  and  C_8 
REMARK    5  A    between atoms: C_11  and  C_12 
REMARK       I    between atoms: C_12  and  N_13 
REMARK    6  A    between atoms: N_13  and  C_14 
REMARK    7  A    between atoms: C_14  and  N_15 
REMARK    8  A    between atoms: N_15  and  C_16 
ROOT
HETATM    1  C   UNL     1      -9.153   0.549 -32.157  1.00  0.00     0.237 C 
HETATM    2  N   UNL     1      -9.305   1.200 -30.946  1.00  0.00    -0.201 NA
HETATM    3  O   UNL     1     -10.114   0.172 -32.819  1.00  0.00    -0.274 OA
HETATM    4  H   UNL     1     -10.211   0.930 -30.573  1.00  0.00     0.139 HD
ENDROOT
BRANCH   2   5
HETATM    5  C   UNL     1      -9.206   2.556 -30.724  1.00  0.00     0.157 C 
HETATM    6  S   UNL     1     -10.431   3.682 -30.886  1.00  0.00    -0.047 SA
BRANCH   5   7
HETATM    7  N   UNL     1      -8.001   2.996 -30.234  1.00  0.00    -0.337 N 
HETATM    8  H   UNL     1      -7.905   2.849 -29.233  1.00  0.00     0.168 HD
BRANCH   7   9
HETATM    9  C   UNL     1      -6.941   3.697 -30.857  1.00  0.00     0.036 A 
HETATM   10  C   UNL     1      -6.914   3.671 -32.262  1.00  0.00     0.061 A 
HETATM   11  C   UNL     1      -5.864   4.305 -32.887  1.00  0.00     0.065 A 
HETATM   12  C   UNL     1      -4.853   4.944 -32.177  1.00  0.00     0.063 A 
HETATM   13  N   UNL     1      -5.578   4.430 -34.242  1.00  0.00    -0.306 N 
HETATM   14  N   UNL     1      -3.943   5.459 -33.091  1.00  0.00    -0.307 N 
HETATM   15  C   UNL     1      -4.840   4.982 -30.806  1.00  0.00     0.034 A 
HETATM   16  C   UNL     1      -4.378   5.144 -34.386  1.00  0.00     0.325 A 
HETATM   17  H   UNL     1      -3.094   5.963 -32.895  1.00  0.00     0.170 HD
HETATM   18  O   UNL     1      -3.823   5.428 -35.431  1.00  0.00    -0.247 OA
HETATM   19  C   UNL     1      -5.900   4.341 -30.145  1.00  0.00     0.032 A 
HETATM   20  H   UNL     1      -6.107   4.070 -35.019  1.00  0.00     0.170 HD
ENDBRANCH   7   9
ENDBRANCH   5   7
ENDBRANCH   2   5
BRANCH   1  21
HETATM   21  C   UNL     1      -7.800   0.000 -32.414  1.00  0.00     0.032 A 
HETATM   22  C   UNL     1      -7.619  -0.651 -33.641  1.00  0.00     0.053 A 
HETATM   23  C   UNL     1      -6.399  -1.251 -33.929  1.00  0.00     0.072 A 
HETATM   24  C   UNL     1      -5.366  -1.201 -32.995  1.00  0.00     0.073 A 
HETATM   25  C   UNL     1      -5.528  -0.518 -31.785  1.00  0.00     0.072 A 
HETATM   26  C   UNL     1      -6.757   0.073 -31.485  1.00  0.00     0.053 A 
BRANCH  23  27
HETATM   27  O   UNL     1      -6.170  -1.980 -35.061  1.00  0.00    -0.351 OA
BRANCH  27  28
HETATM   28  C   UNL     1      -5.593  -3.270 -34.837  1.00  0.00     0.171 C 
HETATM   29  C   UNL     1      -6.614  -4.354 -35.139  1.00  0.00     0.034 C 
ENDBRANCH  27  28
ENDBRANCH  23  27
BRANCH  25  30
HETATM   30  O   UNL     1      -4.414  -0.510 -30.992  1.00  0.00    -0.351 OA
BRANCH  30  31
HETATM   31  C   UNL     1      -3.235   0.102 -31.514  1.00  0.00     0.171 C 
HETATM   32  C   UNL     1      -3.424   1.608 -31.439  1.00  0.00     0.034 C 
ENDBRANCH  30  31
ENDBRANCH  25  30
ENDBRANCH   1  21
TORSDOF 8
ENDMDL
MODEL 2
REMARK VINA RESULT:      -7.7      1.319      3.314
REMARK  8 active torsions:
REMARK  status: ('A' for Active; 'I' for Inactive)
REMARK    1  A    between atoms: C_2  and  O_3 
REMARK    2  A    between atoms: O_3  and  C_4 
REMARK    3  A    between atoms: C_6  and  O_7 
REMARK    4  A    between atoms: O_7  and  C_8 
REMARK    5  A    between atoms: C_11  and  C_12 
REMARK       I    between atoms: C_12  and  N_13 
REMARK    6  A    between atoms: N_13  and  C_14 
REMARK    7  A    between atoms: C_14  and  N_15 
REMARK    8  A    between atoms: N_15  and  C_16 
ROOT
HETATM    1  C   UNL     1      -9.353   0.413 -32.262  1.00  0.00     0.237 C 
HETATM    2  N   UNL     1      -9.378   1.318 -31.215  1.00  0.00    -0.201 NA
HETATM    3  O   UNL     1     -10.372  -0.121 -32.686  1.00  0.00    -0.274 OA
HETATM    4  H   UNL     1     -10.213   1.122 -30.671  1.00  0.00     0.139 HD
ENDROOT
BRANCH   2   5
HETATM    5  C   UNL     1      -9.317   2.690 -31.313  1.00  0.00     0.157 C 
HETATM    6  S   UNL     1     -10.564   3.711 -31.758  1.00  0.00    -0.047 SA
BRANCH   5   7
HETATM    7  N   UNL     1      -8.136   3.267 -30.916  1.00  0.00    -0.337 N 
HETATM    8  H   UNL     1      -8.209   3.736 -30.018  1.00  0.00     0.168 HD
BRANCH   7   9
HETATM    9  C   UNL     1      -6.895   3.404 -31.582  1.00  0.00     0.036 A 
HETATM   10  C   UNL     1      -5.773   3.642 -30.770  1.00  0.00     0.061 A 
HETATM   11  C   UNL     1      -4.563   3.828 -31.401  1.00  0.00     0.065 A 
HETATM   12  C   UNL     1      -4.434   3.794 -32.785  1.00  0.00     0.063 A 
HETATM   13  N   UNL     1      -3.307   4.086 -30.862  1.00  0.00    -0.306 N 
HETATM   14  N   UNL     1      -3.103   4.036 -33.101  1.00  0.00    -0.307 N 
HETATM   15  C   UNL     1      -5.507   3.574 -33.610  1.00  0.00     0.034 A 
HETATM   16  C   UNL     1      -2.385   4.224 -31.911  1.00  0.00     0.325 A 
HETATM   17  H   UNL     1      -2.689   4.091 -34.017  1.00  0.00     0.170 HD
HETATM   18  O   UNL     1      -1.197   4.466 -31.807  1.00  0.00    -0.247 OA
HETATM   19  C   UNL     1      -6.752   3.384 -32.991  1.00  0.00     0.032 A 
HETATM   20  H   UNL     1      -3.062   4.182 -29.890  1.00  0.00     0.170 HD
ENDBRANCH   7   9
ENDBRANCH   5   7
ENDBRANCH   2   5
BRANCH   1  21
HETATM   21  C   UNL     1      -8.019  -0.154 -32.576  1.00  0.00     0.032 A 
HETATM   22  C   UNL     1      -7.022   0.038 -31.611  1.00  0.00     0.053 A 
HETATM   23  C   UNL     1      -5.728  -0.404 -31.860  1.00  0.00     0.072 A 
HETATM   24  C   UNL     1      -5.433  -1.032 -33.068  1.00  0.00     0.073 A 
HETATM   25  C   UNL     1      -6.432  -1.261 -34.020  1.00  0.00     0.072 A 
HETATM   26  C   UNL     1      -7.730  -0.805 -33.779  1.00  0.00     0.053 A 
BRANCH  23  27
HETATM   27  O   UNL     1      -4.682  -0.179 -31.011  1.00  0.00    -0.351 OA
BRANCH  27  28
HETATM   28  C   UNL     1      -3.494   0.312 -31.641  1.00  0.00     0.171 C 
HETATM   29  C   UNL     1      -2.388  -0.724 -31.542  1.00  0.00     0.034 C 
ENDBRANCH  27  28
ENDBRANCH  23  27
BRANCH  25  30
HETATM   30  O   UNL     1      -6.006  -1.933 -35.131  1.00  0.00    -0.351 OA
BRANCH  30  31
HETATM   31  C   UNL     1      -5.454  -3.236 -34.946  1.00  0.00     0.171 C 
HETATM   32  C   UNL     1      -6.588  -4.239 -35.065  1.00  0.00     0.034 C 
ENDBRANCH  30  31
ENDBRANCH  25  30
ENDBRANCH   1  21
TORSDOF 8
ENDMDL
MODEL 3
REMARK VINA RESULT:      -7.7      3.492      6.112
REMARK  8 active torsions:
REMARK  status: ('A' for Active; 'I' for Inactive)
REMARK    1  A    between atoms: C_2  and  O_3 
REMARK    2  A    between atoms: O_3  and  C_4 
REMARK    3  A    between atoms: C_6  and  O_7 
REMARK    4  A    between atoms: O_7  and  C_8 
REMARK    5  A    between atoms: C_11  and  C_12 
REMARK       I    between atoms: C_12  and  N_13 
REMARK    6  A    between atoms: N_13  and  C_14 
REMARK    7  A    between atoms: C_14  and  N_15 
REMARK    8  A    between atoms: N_15  and  C_16 
ROOT
HETATM    1  C   UNL     1      -9.238   0.303 -32.282  1.00  0.00     0.237 C 
HETATM    2  N   UNL     1      -9.424   1.397 -31.456  1.00  0.00    -0.201 NA
HETATM    3  O   UNL     1     -10.130  -0.509 -32.498  1.00  0.00    -0.274 OA
HETATM    4  H   UNL     1     -10.178   1.164 -30.817  1.00  0.00     0.139 HD
ENDROOT
BRANCH   2   5
HETATM    5  C   UNL     1      -9.666   2.694 -31.851  1.00  0.00     0.157 C 
HETATM    6  S   UNL     1      -9.030   4.078 -31.162  1.00  0.00    -0.047 SA
BRANCH   5   7
HETATM    7  N   UNL     1     -10.434   2.843 -32.980  1.00  0.00    -0.337 N 
HETATM    8  H   UNL     1      -9.966   3.377 -33.707  1.00  0.00     0.168 HD
BRANCH   7   9
HETATM    9  C   UNL     1     -11.773   2.477 -33.251  1.00  0.00     0.036 A 
HETATM   10  C   UNL     1     -12.752   2.997 -32.387  1.00  0.00     0.061 A 
HETATM   11  C   UNL     1     -14.057   2.612 -32.603  1.00  0.00     0.065 A 
HETATM   12  C   UNL     1     -14.414   1.738 -33.624  1.00  0.00     0.063 A 
HETATM   13  N   UNL     1     -15.213   2.955 -31.911  1.00  0.00    -0.306 N 
HETATM   14  N   UNL     1     -15.787   1.538 -33.560  1.00  0.00    -0.307 N 
HETATM   15  C   UNL     1     -13.487   1.203 -34.481  1.00  0.00     0.034 A 
HETATM   16  C   UNL     1     -16.302   2.288 -32.493  1.00  0.00     0.325 A 
HETATM   17  H   UNL     1     -16.351   0.949 -34.152  1.00  0.00     0.170 HD
HETATM   18  O   UNL     1     -17.465   2.346 -32.137  1.00  0.00    -0.247 OA
HETATM   19  C   UNL     1     -12.149   1.579 -34.280  1.00  0.00     0.032 A 
HETATM   20  H   UNL     1     -15.295   3.563 -31.112  1.00  0.00     0.170 HD
ENDBRANCH   7   9
ENDBRANCH   5   7
ENDBRANCH   2   5
BRANCH   1  21
HETATM   21  C   UNL     1      -7.824  -0.036 -32.574  1.00  0.00     0.032 A 
HETATM   22  C   UNL     1      -7.597  -0.807 -33.721  1.00  0.00     0.053 A 
HETATM   23  C   UNL     1      -6.307  -1.224 -34.027  1.00  0.00     0.072 A 
HETATM   24  C   UNL     1      -5.250  -0.871 -33.188  1.00  0.00     0.073 A 
HETATM   25  C   UNL     1      -5.465  -0.069 -32.064  1.00  0.00     0.072 A 
HETATM   26  C   UNL     1      -6.762   0.339 -31.745  1.00  0.00     0.053 A 
BRANCH  23  27
HETATM   27  O   UNL     1      -6.012  -2.049 -35.074  1.00  0.00    -0.351 OA
BRANCH  27  28
HETATM   28  C   UNL     1      -5.575  -3.359 -34.700  1.00  0.00     0.171 C 
HETATM   29  C   UNL     1      -6.579  -4.396 -35.174  1.00  0.00     0.034 C 
ENDBRANCH  27  28
ENDBRANCH  23  27
BRANCH  25  30
HETATM   30  O   UNL     1      -4.329   0.237 -31.367  1.00  0.00    -0.351 OA
BRANCH  30  31
HETATM   31  C   UNL     1      -4.116   1.604 -31.017  1.00  0.00     0.171 C 
HETATM   32  C   UNL     1      -3.588   2.320 -32.249  1.00  0.00     0.034 C 
ENDBRANCH  30  31
ENDBRANCH  25  30
ENDBRANCH   1  21
TORSDOF 8
ENDMDL
MODEL 4
REMARK VINA RESULT:      -7.6      3.411      6.705
REMARK  8 active torsions:
REMARK  status: ('A' for Active; 'I' for Inactive)
REMARK    1  A    between atoms: C_2  and  O_3 
REMARK    2  A    between atoms: O_3  and  C_4 
REMARK    3  A    between atoms: C_6  and  O_7 
REMARK    4  A    between atoms: O_7  and  C_8 
REMARK    5  A    between atoms: C_11  and  C_12 
REMARK       I    between atoms: C_12  and  N_13 
REMARK    6  A    between atoms: N_13  and  C_14 
REMARK    7  A    between atoms: C_14  and  N_15 
REMARK    8  A    between atoms: N_15  and  C_16 
ROOT
HETATM    1  C   UNL     1      -9.164   0.351 -32.495  1.00  0.00     0.237 C 
HETATM    2  N   UNL     1      -9.185   1.606 -31.913  1.00  0.00    -0.201 NA
HETATM    3  O   UNL     1     -10.154  -0.371 -32.520  1.00  0.00    -0.274 OA
HETATM    4  H   UNL     1      -9.933   1.604 -31.226  1.00  0.00     0.139 HD
ENDROOT
BRANCH   2   5
HETATM    5  C   UNL     1      -9.291   2.814 -32.567  1.00  0.00     0.157 C 
HETATM    6  S   UNL     1      -8.406   4.196 -32.249  1.00  0.00    -0.047 SA
BRANCH   5   7
HETATM    7  N   UNL     1     -10.146   2.842 -33.641  1.00  0.00    -0.337 N 
HETATM    8  H   UNL     1      -9.735   3.279 -34.461  1.00  0.00     0.168 HD
BRANCH   7   9
HETATM    9  C   UNL     1     -11.505   2.466 -33.761  1.00  0.00     0.036 A 
HETATM   10  C   UNL     1     -12.376   2.943 -32.767  1.00  0.00     0.061 A 
HETATM   11  C   UNL     1     -13.694   2.548 -32.837  1.00  0.00     0.065 A 
HETATM   12  C   UNL     1     -14.164   1.703 -33.837  1.00  0.00     0.063 A 
HETATM   13  N   UNL     1     -14.761   2.852 -31.998  1.00  0.00    -0.306 N 
HETATM   14  N   UNL     1     -15.517   1.483 -33.614  1.00  0.00    -0.307 N 
HETATM   15  C   UNL     1     -13.343   1.210 -34.818  1.00  0.00     0.034 A 
HETATM   16  C   UNL     1     -15.906   2.190 -32.467  1.00  0.00     0.325 A 
HETATM   17  H   UNL     1     -16.142   0.906 -34.153  1.00  0.00     0.170 HD
HETATM   18  O   UNL     1     -17.017   2.220 -31.971  1.00  0.00    -0.247 OA
HETATM   19  C   UNL     1     -11.994   1.597 -34.767  1.00  0.00     0.032 A 
HETATM   20  H   UNL     1     -14.751   3.431 -31.175  1.00  0.00     0.170 HD
ENDBRANCH   7   9
ENDBRANCH   5   7
ENDBRANCH   2   5
BRANCH   1  21
HETATM   21  C   UNL     1      -7.814  -0.212 -32.735  1.00  0.00     0.032 A 
HETATM   22  C   UNL     1      -6.828   0.123 -31.799  1.00  0.00     0.053 A 
HETATM   23  C   UNL     1      -5.521  -0.309 -31.988  1.00  0.00     0.072 A 
HETATM   24  C   UNL     1      -5.202  -1.071 -33.111  1.00  0.00     0.073 A 
HETATM   25  C   UNL     1      -6.189  -1.442 -34.029  1.00  0.00     0.072 A 
HETATM   26  C   UNL     1      -7.500  -0.997 -33.850  1.00  0.00     0.053 A 
BRANCH  23  27
HETATM   27  O   UNL     1      -4.486   0.046 -31.171  1.00  0.00    -0.351 OA
BRANCH  27  28
HETATM   28  C   UNL     1      -3.494   0.873 -31.786  1.00  0.00     0.171 C 
HETATM   29  C   UNL     1      -3.802   2.337 -31.522  1.00  0.00     0.034 C 
ENDBRANCH  27  28
ENDBRANCH  23  27
BRANCH  25  30
HETATM   30  O   UNL     1      -5.738  -2.232 -35.050  1.00  0.00    -0.351 OA
BRANCH  30  31
HETATM   31  C   UNL     1      -5.389  -3.580 -34.739  1.00  0.00     0.171 C 
HETATM   32  C   UNL     1      -6.518  -4.473 -35.224  1.00  0.00     0.034 C 
ENDBRANCH  30  31
ENDBRANCH  25  30
ENDBRANCH   1  21
TORSDOF 8
ENDMDL
MODEL 5
REMARK VINA RESULT:      -7.4      3.643      5.312
REMARK  8 active torsions:
REMARK  status: ('A' for Active; 'I' for Inactive)
REMARK    1  A    between atoms: C_2  and  O_3 
REMARK    2  A    between atoms: O_3  and  C_4 
REMARK    3  A    between atoms: C_6  and  O_7 
REMARK    4  A    between atoms: O_7  and  C_8 
REMARK    5  A    between atoms: C_11  and  C_12 
REMARK       I    between atoms: C_12  and  N_13 
REMARK    6  A    between atoms: N_13  and  C_14 
REMARK    7  A    between atoms: C_14  and  N_15 
REMARK    8  A    between atoms: N_15  and  C_16 
ROOT
HETATM    1  C   UNL     1      -3.971   0.645 -31.819  1.00  0.00     0.237 C 
HETATM    2  N   UNL     1      -3.219   1.648 -32.405  1.00  0.00    -0.201 NA
HETATM    3  O   UNL     1      -3.719   0.211 -30.700  1.00  0.00    -0.274 OA
HETATM    4  H   UNL     1      -2.300   1.623 -31.974  1.00  0.00     0.139 HD
ENDROOT
BRANCH   2   5
HETATM    5  C   UNL     1      -3.550   2.982 -32.486  1.00  0.00     0.157 C 
HETATM    6  S   UNL     1      -4.964   3.690 -31.944  1.00  0.00    -0.047 SA
BRANCH   5   7
HETATM    7  N   UNL     1      -2.575   3.812 -32.981  1.00  0.00    -0.337 N 
HETATM    8  H   UNL     1      -2.376   3.644 -33.963  1.00  0.00     0.168 HD
BRANCH   7   9
HETATM    9  C   UNL     1      -1.750   4.766 -32.341  1.00  0.00     0.036 A 
HETATM   10  C   UNL     1      -1.420   4.509 -30.999  1.00  0.00     0.061 A 
HETATM   11  C   UNL     1      -0.658   5.450 -30.343  1.00  0.00     0.065 A 
HETATM   12  C   UNL     1      -0.229   6.620 -30.960  1.00  0.00     0.063 A 
HETATM   13  N   UNL     1      -0.197   5.466 -29.031  1.00  0.00    -0.306 N 
HETATM   14  N   UNL     1       0.492   7.359 -30.030  1.00  0.00    -0.307 N 
HETATM   15  C   UNL     1      -0.538   6.911 -32.263  1.00  0.00     0.034 A 
HETATM   16  C   UNL     1       0.519   6.654 -28.818  1.00  0.00     0.325 A 
HETATM   17  H   UNL     1       0.923   8.259 -30.161  1.00  0.00     0.170 HD
HETATM   18  O   UNL     1       1.053   7.005 -27.782  1.00  0.00    -0.247 OA
HETATM   19  C   UNL     1      -1.315   5.967 -32.954  1.00  0.00     0.032 A 
HETATM   20  H   UNL     1      -0.344   4.770 -28.318  1.00  0.00     0.170 HD
ENDBRANCH   7   9
ENDBRANCH   5   7
ENDBRANCH   2   5
BRANCH   1  21
HETATM   21  C   UNL     1      -4.833  -0.125 -32.748  1.00  0.00     0.032 A 
HETATM   22  C   UNL     1      -4.260  -1.268 -33.320  1.00  0.00     0.053 A 
HETATM   23  C   UNL     1      -4.979  -2.006 -34.253  1.00  0.00     0.072 A 
HETATM   24  C   UNL     1      -6.263  -1.601 -34.613  1.00  0.00     0.073 A 
HETATM   25  C   UNL     1      -6.855  -0.483 -34.016  1.00  0.00     0.072 A 
HETATM   26  C   UNL     1      -6.130   0.269 -33.090  1.00  0.00     0.053 A 
BRANCH  23  27
HETATM   27  O   UNL     1      -4.463  -3.080 -34.920  1.00  0.00    -0.351 OA
BRANCH  27  28
HETATM   28  C   UNL     1      -4.753  -4.350 -34.327  1.00  0.00     0.171 C 
HETATM   29  C   UNL     1      -3.544  -4.853 -33.559  1.00  0.00     0.034 C 
ENDBRANCH  27  28
ENDBRANCH  23  27
BRANCH  25  30
HETATM   30  O   UNL     1      -8.135  -0.238 -34.431  1.00  0.00    -0.351 OA
BRANCH  30  31
HETATM   31  C   UNL     1      -8.884   0.744 -33.716  1.00  0.00     0.171 C 
HETATM   32  C   UNL     1      -9.817   0.013 -32.766  1.00  0.00     0.034 C 
ENDBRANCH  30  31
ENDBRANCH  25  30
ENDBRANCH   1  21
TORSDOF 8
ENDMDL
MODEL 6
REMARK VINA RESULT:      -7.4      3.171      6.630
REMARK  8 active torsions:
REMARK  status: ('A' for Active; 'I' for Inactive)
REMARK    1  A    between atoms: C_2  and  O_3 
REMARK    2  A    between atoms: O_3  and  C_4 
REMARK    3  A    between atoms: C_6  and  O_7 
REMARK    4  A    between atoms: O_7  and  C_8 
REMARK    5  A    between atoms: C_11  and  C_12 
REMARK       I    between atoms: C_12  and  N_13 
REMARK    6  A    between atoms: N_13  and  C_14 
REMARK    7  A    between atoms: C_14  and  N_15 
REMARK    8  A    between atoms: N_15  and  C_16 
ROOT
HETATM    1  C   UNL     1      -3.808   1.920 -31.506  1.00  0.00     0.237 C 
HETATM    2  N   UNL     1      -4.409   0.753 -31.069  1.00  0.00    -0.201 NA
HETATM    3  O   UNL     1      -2.722   2.293 -31.078  1.00  0.00    -0.274 OA
HETATM    4  H   UNL     1      -4.038   0.554 -30.145  1.00  0.00     0.139 HD
ENDROOT
BRANCH   2   5
HETATM    5  C   UNL     1      -4.427  -0.458 -31.725  1.00  0.00     0.157 C 
HETATM    6  S   UNL     1      -3.125  -1.478 -31.966  1.00  0.00    -0.047 SA
BRANCH   5   7
HETATM    7  N   UNL     1      -5.661  -0.898 -32.137  1.00  0.00    -0.337 N 
HETATM    8  H   UNL     1      -5.828  -1.874 -31.908  1.00  0.00     0.168 HD
BRANCH   7   9
HETATM    9  C   UNL     1      -6.671  -0.264 -32.898  1.00  0.00     0.036 A 
HETATM   10  C   UNL     1      -7.907  -0.067 -32.258  1.00  0.00     0.061 A 
HETATM   11  C   UNL     1      -8.919   0.504 -32.997  1.00  0.00     0.065 A 
HETATM   12  C   UNL     1      -8.751   0.870 -34.328  1.00  0.00     0.063 A 
HETATM   13  N   UNL     1     -10.228   0.804 -32.634  1.00  0.00    -0.306 N 
HETATM   14  N   UNL     1      -9.955   1.391 -34.787  1.00  0.00    -0.307 N 
HETATM   15  C   UNL     1      -7.565   0.686 -34.989  1.00  0.00     0.034 A 
HETATM   16  C   UNL     1     -10.889   1.354 -33.743  1.00  0.00     0.325 A 
HETATM   17  H   UNL     1     -10.164   1.732 -35.711  1.00  0.00     0.170 HD
HETATM   18  O   UNL     1     -12.049   1.721 -33.789  1.00  0.00    -0.247 OA
HETATM   19  C   UNL     1      -6.517   0.104 -34.257  1.00  0.00     0.032 A 
HETATM   20  H   UNL     1     -10.669   0.652 -31.742  1.00  0.00     0.170 HD
ENDBRANCH   7   9
ENDBRANCH   5   7
ENDBRANCH   2   5
BRANCH   1  21
HETATM   21  C   UNL     1      -4.705   2.867 -32.213  1.00  0.00     0.032 A 
HETATM   22  C   UNL     1      -4.107   3.677 -33.185  1.00  0.00     0.053 A 
HETATM   23  C   UNL     1      -4.865   4.637 -33.845  1.00  0.00     0.072 A 
HETATM   24  C   UNL     1      -6.215   4.786 -33.530  1.00  0.00     0.073 A 
HETATM   25  C   UNL     1      -6.827   3.954 -32.588  1.00  0.00     0.072 A 
HETATM   26  C   UNL     1      -6.065   2.999 -31.913  1.00  0.00     0.053 A 
BRANCH  23  27
HETATM   27  O   UNL     1      -4.340   5.524 -34.741  1.00  0.00    -0.351 OA
BRANCH  27  28
HETATM   28  C   UNL     1      -2.919   5.450 -34.894  1.00  0.00     0.171 C 
HETATM   29  C   UNL     1      -2.260   6.628 -34.198  1.00  0.00     0.034 C 
ENDBRANCH  27  28
ENDBRANCH  23  27
BRANCH  25  30
HETATM   30  O   UNL     1      -8.165   4.183 -32.422  1.00  0.00    -0.351 OA
BRANCH  30  31
HETATM   31  C   UNL     1      -8.603   4.642 -31.144  1.00  0.00     0.171 C 
HETATM   32  C   UNL     1      -9.505   3.572 -30.553  1.00  0.00     0.034 C 
ENDBRANCH  30  31
ENDBRANCH  25  30
ENDBRANCH   1  21
TORSDOF 8
ENDMDL
MODEL 7
REMARK VINA RESULT:      -7.2      1.691      2.106
REMARK  8 active torsions:
REMARK  status: ('A' for Active; 'I' for Inactive)
REMARK    1  A    between atoms: C_2  and  O_3 
REMARK    2  A    between atoms: O_3  and  C_4 
REMARK    3  A    between atoms: C_6  and  O_7 
REMARK    4  A    between atoms: O_7  and  C_8 
REMARK    5  A    between atoms: C_11  and  C_12 
REMARK       I    between atoms: C_12  and  N_13 
REMARK    6  A    between atoms: N_13  and  C_14 
REMARK    7  A    between atoms: C_14  and  N_15 
REMARK    8  A    between atoms: N_15  and  C_16 
ROOT
HETATM    1  C   UNL     1      -8.704   1.200 -33.664  1.00  0.00     0.237 C 
HETATM    2  N   UNL     1      -8.704   2.444 -33.059  1.00  0.00    -0.201 NA
HETATM    3  O   UNL     1      -9.733   0.674 -34.072  1.00  0.00    -0.274 OA
HETATM    4  H   UNL     1      -9.634   2.591 -32.678  1.00  0.00     0.139 HD
ENDROOT
BRANCH   2   5
HETATM    5  C   UNL     1      -8.354   3.642 -33.643  1.00  0.00     0.157 C 
HETATM    6  S   UNL     1      -9.308   5.010 -33.755  1.00  0.00    -0.047 SA
BRANCH   5   7
HETATM    7  N   UNL     1      -7.059   3.733 -34.090  1.00  0.00    -0.337 N 
HETATM    8  H   UNL     1      -6.863   3.103 -34.863  1.00  0.00     0.168 HD
BRANCH   7   9
HETATM    9  C   UNL     1      -5.952   4.465 -33.599  1.00  0.00     0.036 A 
HETATM   10  C   UNL     1      -4.980   4.839 -34.543  1.00  0.00     0.061 A 
HETATM   11  C   UNL     1      -3.870   5.509 -34.078  1.00  0.00     0.065 A 
HETATM   12  C   UNL     1      -3.692   5.807 -32.731  1.00  0.00     0.063 A 
HETATM   13  N   UNL     1      -2.762   5.986 -34.771  1.00  0.00    -0.306 N 
HETATM   14  N   UNL     1      -2.475   6.461 -32.591  1.00  0.00    -0.307 N 
HETATM   15  C   UNL     1      -4.613   5.450 -31.780  1.00  0.00     0.034 A 
HETATM   16  C   UNL     1      -1.879   6.578 -33.855  1.00  0.00     0.325 A 
HETATM   17  H   UNL     1      -2.051   6.795 -31.741  1.00  0.00     0.170 HD
HETATM   18  O   UNL     1      -0.803   7.088 -34.109  1.00  0.00    -0.247 OA
HETATM   19  C   UNL     1      -5.753   4.764 -32.229  1.00  0.00     0.032 A 
HETATM   20  H   UNL     1      -2.579   5.921 -35.759  1.00  0.00     0.170 HD
ENDBRANCH   7   9
ENDBRANCH   5   7
ENDBRANCH   2   5
BRANCH   1  21
HETATM   21  C   UNL     1      -7.480   0.391 -33.446  1.00  0.00     0.032 A 
HETATM   22  C   UNL     1      -7.136  -0.499 -34.470  1.00  0.00     0.053 A 
HETATM   23  C   UNL     1      -6.041  -1.341 -34.313  1.00  0.00     0.072 A 
HETATM   24  C   UNL     1      -5.296  -1.293 -33.136  1.00  0.00     0.073 A 
HETATM   25  C   UNL     1      -5.611  -0.379 -32.126  1.00  0.00     0.072 A 
HETATM   26  C   UNL     1      -6.719   0.458 -32.274  1.00  0.00     0.053 A 
BRANCH  23  27
HETATM   27  O   UNL     1      -5.691  -2.296 -35.224  1.00  0.00    -0.351 OA
BRANCH  27  28
HETATM   28  C   UNL     1      -5.415  -3.585 -34.665  1.00  0.00     0.171 C 
HETATM   29  C   UNL     1      -6.406  -4.604 -35.198  1.00  0.00     0.034 C 
ENDBRANCH  27  28
ENDBRANCH  23  27
BRANCH  25  30
HETATM   30  O   UNL     1      -4.762  -0.412 -31.055  1.00  0.00    -0.351 OA
BRANCH  30  31
HETATM   31  C   UNL     1      -3.412  -0.003 -31.268  1.00  0.00     0.171 C 
HETATM   32  C   UNL     1      -3.410   1.504 -31.461  1.00  0.00     0.034 C 
ENDBRANCH  30  31
ENDBRANCH  25  30
ENDBRANCH   1  21
TORSDOF 8
ENDMDL
MODEL 8
REMARK VINA RESULT:      -7.2      3.026      6.748
REMARK  8 active torsions:
REMARK  status: ('A' for Active; 'I' for Inactive)
REMARK    1  A    between atoms: C_2  and  O_3 
REMARK    2  A    between atoms: O_3  and  C_4 
REMARK    3  A    between atoms: C_6  and  O_7 
REMARK    4  A    between atoms: O_7  and  C_8 
REMARK    5  A    between atoms: C_11  and  C_12 
REMARK       I    between atoms: C_12  and  N_13 
REMARK    6  A    between atoms: N_13  and  C_14 
REMARK    7  A    between atoms: C_14  and  N_15 
REMARK    8  A    between atoms: N_15  and  C_16 
ROOT
HETATM    1  C   UNL     1      -6.060   1.693 -30.210  1.00  0.00     0.237 C 
HETATM    2  N   UNL     1      -7.386   1.704 -30.605  1.00  0.00    -0.201 NA
HETATM    3  O   UNL     1      -5.614   0.838 -29.453  1.00  0.00    -0.274 OA
HETATM    4  H   UNL     1      -7.915   1.213 -29.890  1.00  0.00     0.139 HD
ENDROOT
BRANCH   2   5
HETATM    5  C   UNL     1      -7.890   1.257 -31.806  1.00  0.00     0.157 C 
HETATM    6  S   UNL     1      -9.500   0.993 -32.172  1.00  0.00    -0.047 SA
BRANCH   5   7
HETATM    7  N   UNL     1      -6.976   1.106 -32.820  1.00  0.00    -0.337 N 
HETATM    8  H   UNL     1      -6.858   1.950 -33.373  1.00  0.00     0.168 HD
BRANCH   7   9
HETATM    9  C   UNL     1      -6.268  -0.031 -33.275  1.00  0.00     0.036 A 
HETATM   10  C   UNL     1      -7.040  -1.073 -33.818  1.00  0.00     0.061 A 
HETATM   11  C   UNL     1      -6.375  -2.210 -34.221  1.00  0.00     0.065 A 
HETATM   12  C   UNL     1      -4.997  -2.347 -34.097  1.00  0.00     0.063 A 
HETATM   13  N   UNL     1      -6.873  -3.384 -34.776  1.00  0.00    -0.306 N 
HETATM   14  N   UNL     1      -4.645  -3.605 -34.571  1.00  0.00    -0.307 N 
HETATM   15  C   UNL     1      -4.212  -1.358 -33.564  1.00  0.00     0.034 A 
HETATM   16  C   UNL     1      -5.805  -4.267 -34.995  1.00  0.00     0.325 A 
HETATM   17  H   UNL     1      -3.725  -4.014 -34.603  1.00  0.00     0.170 HD
HETATM   18  O   UNL     1      -5.875  -5.391 -35.458  1.00  0.00    -0.247 OA
HETATM   19  C   UNL     1      -4.867  -0.189 -33.144  1.00  0.00     0.032 A 
HETATM   20  H   UNL     1      -7.832  -3.607 -34.985  1.00  0.00     0.170 HD
ENDBRANCH   7   9
ENDBRANCH   5   7
ENDBRANCH   2   5
BRANCH   1  21
HETATM   21  C   UNL     1      -5.322   2.959 -30.436  1.00  0.00     0.032 A 
HETATM   22  C   UNL     1      -4.155   2.866 -31.205  1.00  0.00     0.053 A 
HETATM   23  C   UNL     1      -3.370   3.995 -31.406  1.00  0.00     0.072 A 
HETATM   24  C   UNL     1      -3.750   5.210 -30.839  1.00  0.00     0.073 A 
HETATM   25  C   UNL     1      -4.934   5.318 -30.104  1.00  0.00     0.072 A 
HETATM   26  C   UNL     1      -5.718   4.182 -29.887  1.00  0.00     0.053 A 
BRANCH  23  27
HETATM   27  O   UNL     1      -2.176   3.971 -32.068  1.00  0.00    -0.351 OA
BRANCH  27  28
HETATM   28  C   UNL     1      -2.249   4.335 -33.450  1.00  0.00     0.171 C 
HETATM   29  C   UNL     1      -1.322   5.505 -33.728  1.00  0.00     0.034 C 
ENDBRANCH  27  28
ENDBRANCH  23  27
BRANCH  25  30
HETATM   30  O   UNL     1      -5.202   6.581 -29.654  1.00  0.00    -0.351 OA
BRANCH  30  31
HETATM   31  C   UNL     1      -4.147   7.291 -29.007  1.00  0.00     0.171 C 
HETATM   32  C   UNL     1      -4.222   6.979 -27.522  1.00  0.00     0.034 C 
ENDBRANCH  30  31
ENDBRANCH  25  30
ENDBRANCH   1  21
TORSDOF 8
ENDMDL
MODEL 9
REMARK VINA RESULT:      -7.2      3.218      6.329
REMARK  8 active torsions:
REMARK  status: ('A' for Active; 'I' for Inactive)
REMARK    1  A    between atoms: C_2  and  O_3 
REMARK    2  A    between atoms: O_3  and  C_4 
REMARK    3  A    between atoms: C_6  and  O_7 
REMARK    4  A    between atoms: O_7  and  C_8 
REMARK    5  A    between atoms: C_11  and  C_12 
REMARK       I    between atoms: C_12  and  N_13 
REMARK    6  A    between atoms: N_13  and  C_14 
REMARK    7  A    between atoms: C_14  and  N_15 
REMARK    8  A    between atoms: N_15  and  C_16 
ROOT
HETATM    1  C   UNL     1      -3.453   0.962 -31.426  1.00  0.00     0.237 C 
HETATM    2  N   UNL     1      -4.486   0.057 -31.263  1.00  0.00    -0.201 NA
HETATM    3  O   UNL     1      -2.394   0.859 -30.817  1.00  0.00    -0.274 OA
HETATM    4  H   UNL     1      -4.370  -0.366 -30.347  1.00  0.00     0.139 HD
ENDROOT
BRANCH   2   5
HETATM    5  C   UNL     1      -4.812  -0.981 -32.108  1.00  0.00     0.157 C 
HETATM    6  S   UNL     1      -3.749  -2.068 -32.802  1.00  0.00    -0.047 SA
BRANCH   5   7
HETATM    7  N   UNL     1      -6.153  -1.183 -32.319  1.00  0.00    -0.337 N 
HETATM    8  H   UNL     1      -6.481  -2.070 -31.947  1.00  0.00     0.168 HD
BRANCH   7   9
HETATM    9  C   UNL     1      -7.108  -0.429 -33.042  1.00  0.00     0.036 A 
HETATM   10  C   UNL     1      -8.157   0.134 -32.294  1.00  0.00     0.061 A 
HETATM   11  C   UNL     1      -9.124   0.830 -32.985  1.00  0.00     0.065 A 
HETATM   12  C   UNL     1      -9.090   0.975 -34.367  1.00  0.00     0.063 A 
HETATM   13  N   UNL     1     -10.263   1.475 -32.516  1.00  0.00    -0.306 N 
HETATM   14  N   UNL     1     -10.208   1.704 -34.752  1.00  0.00    -0.307 N 
HETATM   15  C   UNL     1      -8.089   0.433 -35.131  1.00  0.00     0.034 A 
HETATM   16  C   UNL     1     -10.954   2.021 -33.608  1.00  0.00     0.325 A 
HETATM   17  H   UNL     1     -10.480   1.966 -35.686  1.00  0.00     0.170 HD
HETATM   18  O   UNL     1     -11.999   2.644 -33.569  1.00  0.00    -0.247 OA
HETATM   19  C   UNL     1      -7.091  -0.283 -34.451  1.00  0.00     0.032 A 
HETATM   20  H   UNL     1     -10.583   1.546 -31.563  1.00  0.00     0.170 HD
ENDBRANCH   7   9
ENDBRANCH   5   7
ENDBRANCH   2   5
BRANCH   1  21
HETATM   21  C   UNL     1      -3.832   2.245 -32.067  1.00  0.00     0.032 A 
HETATM   22  C   UNL     1      -5.098   2.289 -32.663  1.00  0.00     0.053 A 
HETATM   23  C   UNL     1      -5.501   3.432 -33.342  1.00  0.00     0.072 A 
HETATM   24  C   UNL     1      -4.639   4.525 -33.427  1.00  0.00     0.073 A 
HETATM   25  C   UNL     1      -3.389   4.502 -32.801  1.00  0.00     0.072 A 
HETATM   26  C   UNL     1      -2.976   3.349 -32.130  1.00  0.00     0.053 A 
BRANCH  23  27
HETATM   27  O   UNL     1      -6.681   3.525 -34.023  1.00  0.00    -0.351 OA
BRANCH  27  28
HETATM   28  C   UNL     1      -7.442   4.705 -33.745  1.00  0.00     0.171 C 
HETATM   29  C   UNL     1      -8.297   4.491 -32.508  1.00  0.00     0.034 C 
ENDBRANCH  27  28
ENDBRANCH  23  27
BRANCH  25  30
HETATM   30  O   UNL     1      -2.677   5.662 -32.926  1.00  0.00    -0.351 OA
BRANCH  30  31
HETATM   31  C   UNL     1      -1.308   5.559 -33.316  1.00  0.00     0.171 C 
HETATM   32  C   UNL     1      -1.269   5.377 -34.823  1.00  0.00     0.034 C 
ENDBRANCH  30  31
ENDBRANCH  25  30
ENDBRANCH   1  21
TORSDOF 8
ENDMDL
MODEL 10
REMARK VINA RESULT:      -7.1      3.583      5.406
REMARK  8 active torsions:
REMARK  status: ('A' for Active; 'I' for Inactive)
REMARK    1  A    between atoms: C_2  and  O_3 
REMARK    2  A    between atoms: O_3  and  C_4 
REMARK    3  A    between atoms: C_6  and  O_7 
REMARK    4  A    between atoms: O_7  and  C_8 
REMARK    5  A    between atoms: C_11  and  C_12 
REMARK       I    between atoms: C_12  and  N_13 
REMARK    6  A    between atoms: N_13  and  C_14 
REMARK    7  A    between atoms: C_14  and  N_15 
REMARK    8  A    between atoms: N_15  and  C_16 
ROOT
HETATM    1  C   UNL     1      -4.472   0.903 -31.808  1.00  0.00     0.237 C 
HETATM    2  N   UNL     1      -3.553   1.777 -32.360  1.00  0.00    -0.201 NA
HETATM    3  O   UNL     1      -4.440   0.588 -30.624  1.00  0.00    -0.274 OA
HETATM    4  H   UNL     1      -2.720   1.741 -31.781  1.00  0.00     0.139 HD
ENDROOT
BRANCH   2   5
HETATM    5  C   UNL     1      -3.751   3.112 -32.635  1.00  0.00     0.157 C 
HETATM    6  S   UNL     1      -5.151   3.985 -32.370  1.00  0.00    -0.047 SA
BRANCH   5   7
HETATM    7  N   UNL     1      -2.651   3.800 -33.087  1.00  0.00    -0.337 N 
HETATM    8  H   UNL     1      -2.358   3.509 -34.015  1.00  0.00     0.168 HD
BRANCH   7   9
HETATM    9  C   UNL     1      -1.818   4.749 -32.449  1.00  0.00     0.036 A 
HETATM   10  C   UNL     1      -1.480   4.485 -31.110  1.00  0.00     0.061 A 
HETATM   11  C   UNL     1      -0.710   5.421 -30.456  1.00  0.00     0.065 A 
HETATM   12  C   UNL     1      -0.281   6.591 -31.071  1.00  0.00     0.063 A 
HETATM   13  N   UNL     1      -0.240   5.429 -29.147  1.00  0.00    -0.306 N 
HETATM   14  N   UNL     1       0.449   7.324 -30.143  1.00  0.00    -0.307 N 
HETATM   15  C   UNL     1      -0.598   6.888 -32.371  1.00  0.00     0.034 A 
HETATM   16  C   UNL     1       0.481   6.614 -28.934  1.00  0.00     0.325 A 
HETATM   17  H   UNL     1       0.882   8.223 -30.274  1.00  0.00     0.170 HD
HETATM   18  O   UNL     1       1.024   6.958 -27.901  1.00  0.00    -0.247 OA
HETATM   19  C   UNL     1      -1.383   5.950 -33.060  1.00  0.00     0.032 A 
HETATM   20  H   UNL     1      -0.385   4.731 -28.436  1.00  0.00     0.170 HD
ENDBRANCH   7   9
ENDBRANCH   5   7
ENDBRANCH   2   5
BRANCH   1  21
HETATM   21  C   UNL     1      -5.237   0.090 -32.783  1.00  0.00     0.032 A 
HETATM   22  C   UNL     1      -6.451   0.632 -33.224  1.00  0.00     0.053 A 
HETATM   23  C   UNL     1      -7.260  -0.098 -34.087  1.00  0.00     0.072 A 
HETATM   24  C   UNL     1      -6.857  -1.365 -34.504  1.00  0.00     0.073 A 
HETATM   25  C   UNL     1      -5.628  -1.896 -34.099  1.00  0.00     0.072 A 
HETATM   26  C   UNL     1      -4.820  -1.171 -33.220  1.00  0.00     0.053 A 
BRANCH  23  27
HETATM   27  O   UNL     1      -8.494   0.321 -34.493  1.00  0.00    -0.351 OA
BRANCH  27  28
HETATM   28  C   UNL     1      -9.159   1.201 -33.581  1.00  0.00     0.171 C 
HETATM   29  C   UNL     1     -10.644   1.248 -33.894  1.00  0.00     0.034 C 
ENDBRANCH  27  28
ENDBRANCH  23  27
BRANCH  25  30
HETATM   30  O   UNL     1      -5.346  -3.124 -34.629  1.00  0.00    -0.351 OA
BRANCH  30  31
HETATM   31  C   UNL     1      -4.048  -3.667 -34.386  1.00  0.00     0.171 C 
HETATM   32  C   UNL     1      -4.230  -5.077 -33.851  1.00  0.00     0.034 C 
ENDBRANCH  30  31
ENDBRANCH  25  30
ENDBRANCH   1  21
TORSDOF 8
ENDMDL
