MODEL 1
REMARK VINA RESULT:      -8.6      0.000      0.000
REMARK  3 active torsions:
REMARK  status: ('A' for Active; 'I' for Inactive)
REMARK    1  A    between atoms: C_2  and  C_3 
REMARK    2  A    between atoms: N_4  and  N_5 
REMARK    3  A    between atoms: C_23  and  O_24 
ROOT
HETATM    1  N   UNL     1      -3.900   1.514 -31.869  1.00  0.00    -0.189 N 
HETATM    2  C   UNL     1      -3.109   0.396 -31.546  1.00  0.00     0.298 A 
HETATM    3  O   UNL     1      -2.150   0.385 -30.779  1.00  0.00    -0.264 OA
HETATM    4  C   UNL     1      -3.555  -0.779 -32.225  1.00  0.00     0.133 A 
HETATM    5  C   UNL     1      -4.600  -0.800 -33.098  1.00  0.00     0.103 A 
HETATM    6  N   UNL     1      -5.330   0.340 -33.435  1.00  0.00    -0.239 NA
HETATM    7  C   UNL     1      -4.921   1.410 -32.814  1.00  0.00     0.239 A 
HETATM    8  N   UNL     1      -3.048  -2.046 -32.150  1.00  0.00    -0.349 N 
HETATM    9  H   UNL     1      -2.258  -2.318 -31.580  1.00  0.00     0.166 HD
HETATM   10  C   UNL     1      -3.771  -2.884 -32.978  1.00  0.00     0.045 A 
HETATM   11  C   UNL     1      -4.769  -2.112 -33.590  1.00  0.00     0.024 A 
HETATM   12  C   UNL     1      -3.615  -4.252 -33.233  1.00  0.00     0.032 A 
HETATM   13  C   UNL     1      -4.507  -4.845 -34.134  1.00  0.00     0.026 A 
HETATM   14  C   UNL     1      -5.508  -4.096 -34.750  1.00  0.00     0.035 A 
HETATM   15 CL   UNL     1      -6.586  -4.866 -35.852  1.00  0.00    -0.084 Cl
HETATM   16  C   UNL     1      -5.655  -2.730 -34.492  1.00  0.00     0.040 A 
ENDROOT
BRANCH   1  17
HETATM   17  N   UNL     1      -3.514   2.709 -31.284  1.00  0.00    -0.175 NA
HETATM   18  C   UNL     1      -2.875   3.611 -31.953  1.00  0.00     0.150 C 
BRANCH  18  19
HETATM   19  C   UNL     1      -2.445   4.871 -31.305  1.00  0.00    -0.017 A 
HETATM   20  C   UNL     1      -3.388   5.798 -30.850  1.00  0.00     0.016 A 
HETATM   21  C   UNL     1      -2.959   6.980 -30.245  1.00  0.00     0.037 A 
HETATM   22  C   UNL     1      -1.599   7.225 -30.095  1.00  0.00     0.065 A 
HETATM   23  C   UNL     1      -0.653   6.307 -30.544  1.00  0.00     0.037 A 
HETATM   24  C   UNL     1      -1.077   5.124 -31.156  1.00  0.00     0.016 A 
BRANCH  22  25
HETATM   25  O   UNL     1      -1.228   8.391 -29.495  1.00  0.00    -0.361 OA
HETATM   26  H   UNL     1      -1.646   8.445 -28.621  1.00  0.00     0.217 HD
ENDBRANCH  22  25
ENDBRANCH  18  19
ENDBRANCH   1  17
TORSDOF 3
ENDMDL
MODEL 2
REMARK VINA RESULT:      -8.6      6.540      9.977
REMARK  3 active torsions:
REMARK  status: ('A' for Active; 'I' for Inactive)
REMARK    1  A    between atoms: C_2  and  C_3 
REMARK    2  A    between atoms: N_4  and  N_5 
REMARK    3  A    between atoms: C_23  and  O_24 
ROOT
HETATM    1  N   UNL     1      -8.704   0.548 -33.604  1.00  0.00    -0.189 N 
HETATM    2  C   UNL     1     -10.032   0.406 -33.162  1.00  0.00     0.298 A 
HETATM    3  O   UNL     1     -10.541  -0.620 -32.718  1.00  0.00    -0.264 OA
HETATM    4  C   UNL     1     -10.761   1.627 -33.282  1.00  0.00     0.133 A 
HETATM    5  C   UNL     1     -10.237   2.778 -33.790  1.00  0.00     0.103 A 
HETATM    6  N   UNL     1      -8.929   2.869 -34.267  1.00  0.00    -0.239 NA
HETATM    7  C   UNL     1      -8.266   1.752 -34.156  1.00  0.00     0.239 A 
HETATM    8  N   UNL     1     -12.062   1.877 -32.942  1.00  0.00    -0.349 N 
HETATM    9  H   UNL     1     -12.695   1.194 -32.547  1.00  0.00     0.166 HD
HETATM   10  C   UNL     1     -12.373   3.192 -33.232  1.00  0.00     0.045 A 
HETATM   11  C   UNL     1     -11.222   3.787 -33.769  1.00  0.00     0.024 A 
HETATM   12  C   UNL     1     -13.574   3.891 -33.065  1.00  0.00     0.032 A 
HETATM   13  C   UNL     1     -13.597   5.235 -33.455  1.00  0.00     0.026 A 
HETATM   14  C   UNL     1     -12.463   5.846 -33.988  1.00  0.00     0.035 A 
HETATM   15 CL   UNL     1     -12.534   7.504 -34.453  1.00  0.00    -0.084 Cl
HETATM   16  C   UNL     1     -11.268   5.140 -34.154  1.00  0.00     0.040 A 
ENDROOT
BRANCH   1  17
HETATM   17  N   UNL     1      -7.932  -0.603 -33.560  1.00  0.00    -0.175 NA
HETATM   18  C   UNL     1      -7.110  -0.899 -34.511  1.00  0.00     0.150 C 
BRANCH  18  19
HETATM   19  C   UNL     1      -6.314  -2.145 -34.462  1.00  0.00    -0.017 A 
HETATM   20  C   UNL     1      -4.971  -2.120 -34.071  1.00  0.00     0.016 A 
HETATM   21  C   UNL     1      -4.239  -3.308 -34.035  1.00  0.00     0.037 A 
HETATM   22  C   UNL     1      -4.850  -4.507 -34.383  1.00  0.00     0.065 A 
HETATM   23  C   UNL     1      -6.187  -4.542 -34.772  1.00  0.00     0.037 A 
HETATM   24  C   UNL     1      -6.924  -3.354 -34.815  1.00  0.00     0.016 A 
BRANCH  22  25
HETATM   25  O   UNL     1      -4.096  -5.641 -34.329  1.00  0.00    -0.361 OA
HETATM   26  H   UNL     1      -4.596  -6.372 -34.725  1.00  0.00     0.217 HD
ENDBRANCH  22  25
ENDBRANCH  18  19
ENDBRANCH   1  17
TORSDOF 3
ENDMDL
MODEL 3
REMARK VINA RESULT:      -8.6      3.981      9.307
REMARK  3 active torsions:
REMARK  status: ('A' for Active; 'I' for Inactive)
REMARK    1  A    between atoms: C_2  and  C_3 
REMARK    2  A    between atoms: N_4  and  N_5 
REMARK    3  A    between atoms: C_23  and  O_24 
ROOT
HETATM    1  N   UNL     1      -4.455   1.777 -32.521  1.00  0.00    -0.189 N 
HETATM    2  C   UNL     1      -4.930   2.998 -33.033  1.00  0.00     0.298 A 
HETATM    3  O   UNL     1      -5.854   3.138 -33.830  1.00  0.00    -0.264 OA
HETATM    4  C   UNL     1      -4.202   4.109 -32.509  1.00  0.00     0.133 A 
HETATM    5  C   UNL     1      -3.158   3.992 -31.642  1.00  0.00     0.103 A 
HETATM    6  N   UNL     1      -2.679   2.760 -31.194  1.00  0.00    -0.239 NA
HETATM    7  C   UNL     1      -3.346   1.748 -31.674  1.00  0.00     0.239 A 
HETATM    8  N   UNL     1      -4.385   5.440 -32.763  1.00  0.00    -0.349 N 
HETATM    9  H   UNL     1      -5.090   5.817 -33.382  1.00  0.00     0.166 HD
HETATM   10  C   UNL     1      -3.456   6.180 -32.055  1.00  0.00     0.045 A 
HETATM   11  C   UNL     1      -2.665   5.277 -31.329  1.00  0.00     0.024 A 
HETATM   12  C   UNL     1      -3.254   7.564 -32.006  1.00  0.00     0.032 A 
HETATM   13  C   UNL     1      -2.219   8.036 -31.191  1.00  0.00     0.026 A 
HETATM   14  C   UNL     1      -1.425   7.155 -30.459  1.00  0.00     0.035 A 
HETATM   15 CL   UNL     1      -0.162   7.780 -29.466  1.00  0.00    -0.084 Cl
HETATM   16  C   UNL     1      -1.631   5.774 -30.515  1.00  0.00     0.040 A 
ENDROOT
BRANCH   1  17
HETATM   17  N   UNL     1      -5.080   0.640 -33.008  1.00  0.00    -0.175 NA
HETATM   18  C   UNL     1      -4.414  -0.437 -33.263  1.00  0.00     0.150 C 
BRANCH  18  19
HETATM   19  C   UNL     1      -5.092  -1.633 -33.809  1.00  0.00    -0.017 A 
HETATM   20  C   UNL     1      -6.463  -1.615 -34.084  1.00  0.00     0.016 A 
HETATM   21  C   UNL     1      -7.082  -2.756 -34.596  1.00  0.00     0.037 A 
HETATM   22  C   UNL     1      -6.330  -3.901 -34.834  1.00  0.00     0.065 A 
HETATM   23  C   UNL     1      -4.964  -3.929 -34.565  1.00  0.00     0.037 A 
HETATM   24  C   UNL     1      -4.340  -2.790 -34.047  1.00  0.00     0.016 A 
BRANCH  22  25
HETATM   25  O   UNL     1      -6.977  -4.990 -35.338  1.00  0.00    -0.361 OA
HETATM   26  H   UNL     1      -7.726  -4.692 -35.878  1.00  0.00     0.217 HD
ENDBRANCH  22  25
ENDBRANCH  18  19
ENDBRANCH   1  17
TORSDOF 3
ENDMDL
MODEL 4
REMARK VINA RESULT:      -8.2      5.012      9.391
REMARK  3 active torsions:
REMARK  status: ('A' for Active; 'I' for Inactive)
REMARK    1  A    between atoms: C_2  and  C_3 
REMARK    2  A    between atoms: N_4  and  N_5 
REMARK    3  A    between atoms: C_23  and  O_24 
ROOT
HETATM    1  N   UNL     1      -7.207   0.856 -31.660  1.00  0.00    -0.189 N 
HETATM    2  C   UNL     1      -6.449   1.415 -30.616  1.00  0.00     0.298 A 
HETATM    3  O   UNL     1      -5.443   0.926 -30.110  1.00  0.00    -0.264 OA
HETATM    4  C   UNL     1      -6.987   2.666 -30.185  1.00  0.00     0.133 A 
HETATM    5  C   UNL     1      -8.113   3.228 -30.707  1.00  0.00     0.103 A 
HETATM    6  N   UNL     1      -8.870   2.619 -31.708  1.00  0.00    -0.239 NA
HETATM    7  C   UNL     1      -8.376   1.478 -32.099  1.00  0.00     0.239 A 
HETATM    8  N   UNL     1      -6.516   3.502 -29.211  1.00  0.00    -0.349 N 
HETATM    9  H   UNL     1      -5.693   3.327 -28.650  1.00  0.00     0.166 HD
HETATM   10  C   UNL     1      -7.343   4.605 -29.108  1.00  0.00     0.045 A 
HETATM   11  C   UNL     1      -8.365   4.454 -30.056  1.00  0.00     0.024 A 
HETATM   12  C   UNL     1      -7.266   5.712 -28.254  1.00  0.00     0.032 A 
HETATM   13  C   UNL     1      -8.259   6.690 -28.375  1.00  0.00     0.026 A 
HETATM   14  C   UNL     1      -9.282   6.560 -29.313  1.00  0.00     0.035 A 
HETATM   15 CL   UNL     1     -10.484   7.789 -29.431  1.00  0.00    -0.084 Cl
HETATM   16  C   UNL     1      -9.353   5.451 -30.161  1.00  0.00     0.040 A 
ENDROOT
BRANCH   1  17
HETATM   17  N   UNL     1      -6.779  -0.382 -32.115  1.00  0.00    -0.175 NA
HETATM   18  C   UNL     1      -6.552  -0.597 -33.368  1.00  0.00     0.150 C 
BRANCH  18  19
HETATM   19  C   UNL     1      -6.122  -1.932 -33.840  1.00  0.00    -0.017 A 
HETATM   20  C   UNL     1      -7.044  -2.823 -34.399  1.00  0.00     0.016 A 
HETATM   21  C   UNL     1      -6.616  -4.078 -34.836  1.00  0.00     0.037 A 
HETATM   22  C   UNL     1      -5.277  -4.431 -34.717  1.00  0.00     0.065 A 
HETATM   23  C   UNL     1      -4.351  -3.550 -34.162  1.00  0.00     0.037 A 
HETATM   24  C   UNL     1      -4.776  -2.294 -33.719  1.00  0.00     0.016 A 
BRANCH  22  25
HETATM   25  O   UNL     1      -4.906  -5.665 -35.160  1.00  0.00    -0.361 OA
HETATM   26  H   UNL     1      -4.354  -6.091 -34.485  1.00  0.00     0.217 HD
ENDBRANCH  22  25
ENDBRANCH  18  19
ENDBRANCH   1  17
TORSDOF 3
ENDMDL
MODEL 5
REMARK VINA RESULT:      -8.2      3.829      9.126
REMARK  3 active torsions:
REMARK  status: ('A' for Active; 'I' for Inactive)
REMARK    1  A    between atoms: C_2  and  C_3 
REMARK    2  A    between atoms: N_4  and  N_5 
REMARK    3  A    between atoms: C_23  and  O_24 
ROOT
HETATM    1  N   UNL     1      -5.010   1.697 -32.581  1.00  0.00    -0.189 N 
HETATM    2  C   UNL     1      -4.001   2.257 -31.776  1.00  0.00     0.298 A 
HETATM    3  O   UNL     1      -3.021   1.668 -31.330  1.00  0.00    -0.264 OA
HETATM    4  C   UNL     1      -4.237   3.642 -31.521  1.00  0.00     0.133 A 
HETATM    5  C   UNL     1      -5.324   4.324 -31.981  1.00  0.00     0.103 A 
HETATM    6  N   UNL     1      -6.333   3.723 -32.733  1.00  0.00    -0.239 NA
HETATM    7  C   UNL     1      -6.114   2.459 -32.965  1.00  0.00     0.239 A 
HETATM    8  N   UNL     1      -3.473   4.515 -30.798  1.00  0.00    -0.349 N 
HETATM    9  H   UNL     1      -2.608   4.275 -30.333  1.00  0.00     0.166 HD
HETATM   10  C   UNL     1      -4.071   5.762 -30.794  1.00  0.00     0.045 A 
HETATM   11  C   UNL     1      -5.250   5.665 -31.546  1.00  0.00     0.024 A 
HETATM   12  C   UNL     1      -3.663   6.954 -30.184  1.00  0.00     0.032 A 
HETATM   13  C   UNL     1      -4.482   8.076 -30.352  1.00  0.00     0.026 A 
HETATM   14  C   UNL     1      -5.657   8.001 -31.099  1.00  0.00     0.035 A 
HETATM   15 CL   UNL     1      -6.635   9.408 -31.281  1.00  0.00    -0.084 Cl
HETATM   16  C   UNL     1      -6.058   6.806 -31.702  1.00  0.00     0.040 A 
ENDROOT
BRANCH   1  17
HETATM   17  N   UNL     1      -4.881   0.343 -32.846  1.00  0.00    -0.175 NA
HETATM   18  C   UNL     1      -5.537  -0.220 -33.806  1.00  0.00     0.150 C 
BRANCH  18  19
HETATM   19  C   UNL     1      -5.410  -1.673 -34.058  1.00  0.00    -0.017 A 
HETATM   20  C   UNL     1      -6.467  -2.395 -34.622  1.00  0.00     0.016 A 
HETATM   21  C   UNL     1      -6.325  -3.765 -34.849  1.00  0.00     0.037 A 
HETATM   22  C   UNL     1      -5.134  -4.400 -34.517  1.00  0.00     0.065 A 
HETATM   23  C   UNL     1      -4.075  -3.689 -33.957  1.00  0.00     0.037 A 
HETATM   24  C   UNL     1      -4.214  -2.318 -33.723  1.00  0.00     0.016 A 
BRANCH  22  25
HETATM   25  O   UNL     1      -5.041  -5.738 -34.760  1.00  0.00    -0.361 OA
HETATM   26  H   UNL     1      -4.104  -5.990 -34.790  1.00  0.00     0.217 HD
ENDBRANCH  22  25
ENDBRANCH  18  19
ENDBRANCH   1  17
TORSDOF 3
ENDMDL
MODEL 6
REMARK VINA RESULT:      -7.9      4.374      9.308
REMARK  3 active torsions:
REMARK  status: ('A' for Active; 'I' for Inactive)
REMARK    1  A    between atoms: C_2  and  C_3 
REMARK    2  A    between atoms: N_4  and  N_5 
REMARK    3  A    between atoms: C_23  and  O_24 
ROOT
HETATM    1  N   UNL     1      -5.609   1.679 -31.929  1.00  0.00    -0.189 N 
HETATM    2  C   UNL     1      -5.703   1.874 -30.539  1.00  0.00     0.298 A 
HETATM    3  O   UNL     1      -5.855   0.996 -29.694  1.00  0.00    -0.264 OA
HETATM    4  C   UNL     1      -5.596   3.254 -30.191  1.00  0.00     0.133 A 
HETATM    5  C   UNL     1      -5.449   4.257 -31.102  1.00  0.00     0.103 A 
HETATM    6  N   UNL     1      -5.411   4.032 -32.478  1.00  0.00    -0.239 NA
HETATM    7  C   UNL     1      -5.509   2.771 -32.792  1.00  0.00     0.239 A 
HETATM    8  N   UNL     1      -5.627   3.822 -28.948  1.00  0.00    -0.349 N 
HETATM    9  H   UNL     1      -5.736   3.309 -28.083  1.00  0.00     0.166 HD
HETATM   10  C   UNL     1      -5.498   5.194 -29.061  1.00  0.00     0.045 A 
HETATM   11  C   UNL     1      -5.378   5.494 -30.426  1.00  0.00     0.024 A 
HETATM   12  C   UNL     1      -5.483   6.182 -28.069  1.00  0.00     0.032 A 
HETATM   13  C   UNL     1      -5.339   7.510 -28.485  1.00  0.00     0.026 A 
HETATM   14  C   UNL     1      -5.215   7.829 -29.837  1.00  0.00     0.035 A 
HETATM   15 CL   UNL     1      -5.037   9.478 -30.305  1.00  0.00    -0.084 Cl
HETATM   16  C   UNL     1      -5.234   6.836 -30.821  1.00  0.00     0.040 A 
ENDROOT
BRANCH   1  17
HETATM   17  N   UNL     1      -5.743   0.369 -32.360  1.00  0.00    -0.175 NA
HETATM   18  C   UNL     1      -5.219  -0.032 -33.470  1.00  0.00     0.150 C 
BRANCH  18  19
HETATM   19  C   UNL     1      -5.395  -1.427 -33.931  1.00  0.00    -0.017 A 
HETATM   20  C   UNL     1      -4.305  -2.302 -33.995  1.00  0.00     0.016 A 
HETATM   21  C   UNL     1      -4.495  -3.613 -34.435  1.00  0.00     0.037 A 
HETATM   22  C   UNL     1      -5.766  -4.041 -34.800  1.00  0.00     0.065 A 
HETATM   23  C   UNL     1      -6.858  -3.178 -34.738  1.00  0.00     0.037 A 
HETATM   24  C   UNL     1      -6.672  -1.863 -34.303  1.00  0.00     0.016 A 
BRANCH  22  25
HETATM   25  O   UNL     1      -5.903  -5.331 -35.219  1.00  0.00    -0.361 OA
HETATM   26  H   UNL     1      -5.026  -5.746 -35.260  1.00  0.00     0.217 HD
ENDBRANCH  22  25
ENDBRANCH  18  19
ENDBRANCH   1  17
TORSDOF 3
ENDMDL
MODEL 7
REMARK VINA RESULT:      -7.9      5.939      9.784
REMARK  3 active torsions:
REMARK  status: ('A' for Active; 'I' for Inactive)
REMARK    1  A    between atoms: C_2  and  C_3 
REMARK    2  A    between atoms: N_4  and  N_5 
REMARK    3  A    between atoms: C_23  and  O_24 
ROOT
HETATM    1  N   UNL     1      -7.791   1.039 -33.099  1.00  0.00    -0.189 N 
HETATM    2  C   UNL     1      -9.105   1.066 -32.597  1.00  0.00     0.298 A 
HETATM    3  O   UNL     1      -9.747   0.099 -32.197  1.00  0.00    -0.264 OA
HETATM    4  C   UNL     1      -9.641   2.389 -32.594  1.00  0.00     0.133 A 
HETATM    5  C   UNL     1      -8.967   3.482 -33.050  1.00  0.00     0.103 A 
HETATM    6  N   UNL     1      -7.683   3.410 -33.590  1.00  0.00    -0.239 NA
HETATM    7  C   UNL     1      -7.197   2.201 -33.591  1.00  0.00     0.239 A 
HETATM    8  N   UNL     1     -10.871   2.806 -32.168  1.00  0.00    -0.349 N 
HETATM    9  H   UNL     1     -11.585   2.199 -31.787  1.00  0.00     0.166 HD
HETATM   10  C   UNL     1     -10.987   4.172 -32.350  1.00  0.00     0.045 A 
HETATM   11  C   UNL     1      -9.783   4.625 -32.907  1.00  0.00     0.024 A 
HETATM   12  C   UNL     1     -12.058   5.030 -32.072  1.00  0.00     0.032 A 
HETATM   13  C   UNL     1     -11.889   6.387 -32.367  1.00  0.00     0.026 A 
HETATM   14  C   UNL     1     -10.698   6.858 -32.918  1.00  0.00     0.035 A 
HETATM   15 CL   UNL     1     -10.533   8.538 -33.265  1.00  0.00    -0.084 Cl
HETATM   16  C   UNL     1      -9.635   5.994 -33.196  1.00  0.00     0.040 A 
ENDROOT
BRANCH   1  17
HETATM   17  N   UNL     1      -7.205  -0.215 -33.176  1.00  0.00    -0.175 NA
HETATM   18  C   UNL     1      -6.762  -0.684 -34.294  1.00  0.00     0.150 C 
BRANCH  18  19
HETATM   19  C   UNL     1      -6.164  -2.036 -34.364  1.00  0.00    -0.017 A 
HETATM   20  C   UNL     1      -4.823  -2.243 -34.024  1.00  0.00     0.016 A 
HETATM   21  C   UNL     1      -4.281  -3.527 -34.100  1.00  0.00     0.037 A 
HETATM   22  C   UNL     1      -5.078  -4.590 -34.507  1.00  0.00     0.065 A 
HETATM   23  C   UNL     1      -6.415  -4.394 -34.847  1.00  0.00     0.037 A 
HETATM   24  C   UNL     1      -6.961  -3.110 -34.777  1.00  0.00     0.016 A 
BRANCH  22  25
HETATM   25  O   UNL     1      -4.505  -5.826 -34.563  1.00  0.00    -0.361 OA
HETATM   26  H   UNL     1      -3.556  -5.728 -34.740  1.00  0.00     0.217 HD
ENDBRANCH  22  25
ENDBRANCH  18  19
ENDBRANCH   1  17
TORSDOF 3
ENDMDL
MODEL 8
REMARK VINA RESULT:      -7.8      2.052      2.651
REMARK  3 active torsions:
REMARK  status: ('A' for Active; 'I' for Inactive)
REMARK    1  A    between atoms: C_2  and  C_3 
REMARK    2  A    between atoms: N_4  and  N_5 
REMARK    3  A    between atoms: C_23  and  O_24 
ROOT
HETATM    1  N   UNL     1      -4.331   2.598 -32.561  1.00  0.00    -0.189 N 
HETATM    2  C   UNL     1      -5.553   2.272 -33.177  1.00  0.00     0.298 A 
HETATM    3  O   UNL     1      -6.470   3.050 -33.424  1.00  0.00    -0.264 OA
HETATM    4  C   UNL     1      -5.624   0.884 -33.507  1.00  0.00     0.133 A 
HETATM    5  C   UNL     1      -4.636  -0.013 -33.230  1.00  0.00     0.103 A 
HETATM    6  N   UNL     1      -3.458   0.337 -32.570  1.00  0.00    -0.239 NA
HETATM    7  C   UNL     1      -3.397   1.604 -32.271  1.00  0.00     0.239 A 
HETATM    8  N   UNL     1      -6.640   0.208 -34.123  1.00  0.00    -0.349 N 
HETATM    9  H   UNL     1      -7.507   0.628 -34.433  1.00  0.00     0.166 HD
HETATM   10  C   UNL     1      -6.303  -1.127 -34.242  1.00  0.00     0.045 A 
HETATM   11  C   UNL     1      -5.027  -1.290 -33.684  1.00  0.00     0.024 A 
HETATM   12  C   UNL     1      -7.026  -2.193 -34.792  1.00  0.00     0.032 A 
HETATM   13  C   UNL     1      -6.425  -3.456 -34.773  1.00  0.00     0.026 A 
HETATM   14  C   UNL     1      -5.156  -3.639 -34.225  1.00  0.00     0.035 A 
HETATM   15 CL   UNL     1      -4.453  -5.212 -34.224  1.00  0.00    -0.084 Cl
HETATM   16  C   UNL     1      -4.442  -2.570 -33.676  1.00  0.00     0.040 A 
ENDROOT
BRANCH   1  17
HETATM   17  N   UNL     1      -4.193   3.921 -32.170  1.00  0.00    -0.175 NA
HETATM   18  C   UNL     1      -3.295   4.687 -32.693  1.00  0.00     0.150 C 
BRANCH  18  19
HETATM   19  C   UNL     1      -3.141   6.089 -32.245  1.00  0.00    -0.017 A 
HETATM   20  C   UNL     1      -4.140   6.710 -31.488  1.00  0.00     0.016 A 
HETATM   21  C   UNL     1      -3.975   8.034 -31.077  1.00  0.00     0.037 A 
HETATM   22  C   UNL     1      -2.817   8.723 -31.420  1.00  0.00     0.065 A 
HETATM   23  C   UNL     1      -1.816   8.113 -32.172  1.00  0.00     0.037 A 
HETATM   24  C   UNL     1      -1.979   6.789 -32.590  1.00  0.00     0.016 A 
BRANCH  22  25
HETATM   25  O   UNL     1      -2.699  10.012 -30.994  1.00  0.00    -0.361 OA
HETATM   26  H   UNL     1      -2.928  10.058 -30.052  1.00  0.00     0.217 HD
ENDBRANCH  22  25
ENDBRANCH  18  19
ENDBRANCH   1  17
TORSDOF 3
ENDMDL
MODEL 9
REMARK VINA RESULT:      -7.7      6.053      9.388
REMARK  3 active torsions:
REMARK  status: ('A' for Active; 'I' for Inactive)
REMARK    1  A    between atoms: C_2  and  C_3 
REMARK    2  A    between atoms: N_4  and  N_5 
REMARK    3  A    between atoms: C_23  and  O_24 
ROOT
HETATM    1  N   UNL     1      -7.883   3.056 -33.270  1.00  0.00    -0.189 N 
HETATM    2  C   UNL     1      -6.915   2.464 -32.440  1.00  0.00     0.298 A 
HETATM    3  O   UNL     1      -7.060   1.443 -31.773  1.00  0.00    -0.264 OA
HETATM    4  C   UNL     1      -5.689   3.196 -32.453  1.00  0.00     0.133 A 
HETATM    5  C   UNL     1      -5.498   4.344 -33.162  1.00  0.00     0.103 A 
HETATM    6  N   UNL     1      -6.499   4.932 -33.935  1.00  0.00    -0.239 NA
HETATM    7  C   UNL     1      -7.616   4.261 -33.921  1.00  0.00     0.239 A 
HETATM    8  N   UNL     1      -4.527   2.920 -31.787  1.00  0.00    -0.349 N 
HETATM    9  H   UNL     1      -4.389   2.126 -31.175  1.00  0.00     0.166 HD
HETATM   10  C   UNL     1      -3.587   3.892 -32.071  1.00  0.00     0.045 A 
HETATM   11  C   UNL     1      -4.183   4.809 -32.950  1.00  0.00     0.024 A 
HETATM   12  C   UNL     1      -2.270   4.032 -31.618  1.00  0.00     0.032 A 
HETATM   13  C   UNL     1      -1.544   5.135 -32.079  1.00  0.00     0.026 A 
HETATM   14  C   UNL     1      -2.116   6.055 -32.956  1.00  0.00     0.035 A 
HETATM   15 CL   UNL     1      -1.185   7.399 -33.500  1.00  0.00    -0.084 Cl
HETATM   16  C   UNL     1      -3.433   5.910 -33.401  1.00  0.00     0.040 A 
ENDROOT
BRANCH   1  17
HETATM   17  N   UNL     1      -9.120   2.431 -33.287  1.00  0.00    -0.175 NA
HETATM   18  C   UNL     1      -9.887   2.485 -34.325  1.00  0.00     0.150 C 
BRANCH  18  19
HETATM   19  C   UNL     1     -11.217   1.836 -34.317  1.00  0.00    -0.017 A 
HETATM   20  C   UNL     1     -12.284   2.384 -35.037  1.00  0.00     0.016 A 
HETATM   21  C   UNL     1     -13.530   1.756 -35.013  1.00  0.00     0.037 A 
HETATM   22  C   UNL     1     -13.701   0.588 -34.278  1.00  0.00     0.065 A 
HETATM   23  C   UNL     1     -12.644   0.034 -33.558  1.00  0.00     0.037 A 
HETATM   24  C   UNL     1     -11.395   0.662 -33.575  1.00  0.00     0.016 A 
BRANCH  22  25
HETATM   25  O   UNL     1     -14.934   0.009 -34.287  1.00  0.00    -0.361 OA
HETATM   26  H   UNL     1     -15.338   0.110 -33.411  1.00  0.00     0.217 HD
ENDBRANCH  22  25
ENDBRANCH  18  19
ENDBRANCH   1  17
TORSDOF 3
ENDMDL
MODEL 10
REMARK VINA RESULT:      -7.6      1.741      1.986
REMARK  3 active torsions:
REMARK  status: ('A' for Active; 'I' for Inactive)
REMARK    1  A    between atoms: C_2  and  C_3 
REMARK    2  A    between atoms: N_4  and  N_5 
REMARK    3  A    between atoms: C_23  and  O_24 
ROOT
HETATM    1  N   UNL     1      -4.827   2.275 -32.208  1.00  0.00    -0.189 N 
HETATM    2  C   UNL     1      -3.849   1.319 -31.880  1.00  0.00     0.298 A 
HETATM    3  O   UNL     1      -2.866   1.504 -31.167  1.00  0.00    -0.264 OA
HETATM    4  C   UNL     1      -4.126   0.053 -32.480  1.00  0.00     0.133 A 
HETATM    5  C   UNL     1      -5.193  -0.183 -33.294  1.00  0.00     0.103 A 
HETATM    6  N   UNL     1      -6.116   0.803 -33.640  1.00  0.00    -0.239 NA
HETATM    7  C   UNL     1      -5.861   1.957 -33.090  1.00  0.00     0.239 A 
HETATM    8  N   UNL     1      -3.414  -1.109 -32.378  1.00  0.00    -0.349 N 
HETATM    9  H   UNL     1      -2.564  -1.219 -31.840  1.00  0.00     0.166 HD
HETATM   10  C   UNL     1      -4.027  -2.096 -33.127  1.00  0.00     0.045 A 
HETATM   11  C   UNL     1      -5.167  -1.530 -33.716  1.00  0.00     0.024 A 
HETATM   12  C   UNL     1      -3.661  -3.432 -33.329  1.00  0.00     0.032 A 
HETATM   13  C   UNL     1      -4.484  -4.208 -34.152  1.00  0.00     0.026 A 
HETATM   14  C   UNL     1      -5.623  -3.665 -34.745  1.00  0.00     0.035 A 
HETATM   15 CL   UNL     1      -6.609  -4.658 -35.750  1.00  0.00    -0.084 Cl
HETATM   16  C   UNL     1      -5.980  -2.329 -34.540  1.00  0.00     0.040 A 
ENDROOT
BRANCH   1  17
HETATM   17  N   UNL     1      -4.616   3.547 -31.699  1.00  0.00    -0.175 NA
HETATM   18  C   UNL     1      -5.226   3.957 -30.637  1.00  0.00     0.150 C 
BRANCH  18  19
HETATM   19  C   UNL     1      -5.011   5.327 -30.122  1.00  0.00    -0.017 A 
HETATM   20  C   UNL     1      -5.475   5.696 -28.856  1.00  0.00     0.016 A 
HETATM   21  C   UNL     1      -5.263   6.995 -28.392  1.00  0.00     0.037 A 
HETATM   22  C   UNL     1      -4.587   7.911 -29.189  1.00  0.00     0.065 A 
HETATM   23  C   UNL     1      -4.119   7.553 -30.452  1.00  0.00     0.037 A 
HETATM   24  C   UNL     1      -4.334   6.254 -30.923  1.00  0.00     0.016 A 
BRANCH  22  25
HETATM   25  O   UNL     1      -4.401   9.166 -28.693  1.00  0.00    -0.361 OA
HETATM   26  H   UNL     1      -3.657   9.583 -29.156  1.00  0.00     0.217 HD
ENDBRANCH  22  25
ENDBRANCH  18  19
ENDBRANCH   1  17
TORSDOF 3
ENDMDL
