MODEL 1
REMARK VINA RESULT:      -9.7      0.000      0.000
REMARK  6 active torsions:
REMARK  status: ('A' for Active; 'I' for Inactive)
REMARK    1  A    between atoms: N_3  and  C_4 
REMARK    2  A    between atoms: C_12  and  C_13 
REMARK       I    between atoms: C_13  and  N_14 
REMARK    3  A    between atoms: N_14  and  N_15 
REMARK       I    between atoms: N_15  and  C_16 
REMARK    4  A    between atoms: C_16  and  C_17 
REMARK    5  A    between atoms: C_17  and  C_18 
REMARK    6  A    between atoms: C_23  and  O_24 
ROOT
HETATM    1  C   UNL     1      -1.988   4.740 -31.719  1.00  0.00     0.272 C 
HETATM    2  N   UNL     1      -2.866   3.777 -31.261  1.00  0.00    -0.263 N 
HETATM    3  O   UNL     1      -1.465   4.660 -32.830  1.00  0.00    -0.266 OA
HETATM    4  H   UNL     1      -3.402   3.871 -30.403  1.00  0.00     0.190 HD
ENDROOT
BRANCH   2   5
HETATM    5  N   UNL     1      -3.259   2.753 -32.129  1.00  0.00    -0.267 N 
HETATM    6  C   UNL     1      -4.216   1.857 -31.697  1.00  0.00     0.240 C 
HETATM    7  O   UNL     1      -4.776   1.972 -30.604  1.00  0.00    -0.272 OA
HETATM    8  H   UNL     1      -2.684   2.606 -32.958  1.00  0.00     0.190 HD
BRANCH   6   9
HETATM    9  C   UNL     1      -4.590   0.785 -32.703  1.00  0.00     0.145 C 
BRANCH   9  10
HETATM   10  C   UNL     1      -3.943  -0.532 -32.414  1.00  0.00    -0.021 A 
HETATM   11  C   UNL     1      -4.172  -1.771 -33.094  1.00  0.00     0.001 A 
HETATM   12  C   UNL     1      -3.352  -2.731 -32.504  1.00  0.00     0.043 A 
HETATM   13  C   UNL     1      -4.997  -2.167 -34.168  1.00  0.00     0.051 A 
HETATM   14  C   UNL     1      -3.313  -4.061 -32.934  1.00  0.00     0.033 A 
HETATM   15  N   UNL     1      -2.662  -2.107 -31.491  1.00  0.00    -0.365 N 
HETATM   16  C   UNL     1      -4.129  -4.421 -34.015  1.00  0.00     0.039 A 
HETATM   17  C   UNL     1      -4.955  -3.486 -34.637  1.00  0.00     0.069 A 
HETATM   18  H   UNL     1      -1.994  -2.564 -30.886  1.00  0.00     0.165 HD
HETATM   19  C   UNL     1      -3.007  -0.785 -31.430  1.00  0.00     0.097 A 
BRANCH  17  20
HETATM   20  O   UNL     1      -5.784  -3.739 -35.697  1.00  0.00    -0.356 OA
HETATM   21  C   UNL     1      -6.901  -4.579 -35.434  1.00  0.00     0.210 C 
ENDBRANCH  17  20
ENDBRANCH   9  10
ENDBRANCH   6   9
ENDBRANCH   2   5
BRANCH   1  22
HETATM   22  C   UNL     1      -1.735   5.843 -30.784  1.00  0.00     0.058 A 
HETATM   23  C   UNL     1      -0.625   5.958 -29.947  1.00  0.00     0.029 A 
HETATM   24  N   UNL     1      -0.768   7.098 -29.156  1.00  0.00    -0.319 N 
HETATM   25  C   UNL     1       0.591   5.082 -29.919  1.00  0.00     0.070 C 
HETATM   26  C   UNL     1      -1.928   7.754 -29.556  1.00  0.00     0.014 A 
HETATM   27  C   UNL     1      -2.473   8.990 -28.922  1.00  0.00     0.068 C 
HETATM   28  C   UNL     1      -2.528   6.995 -30.541  1.00  0.00     0.044 A 
BRANCH  24  29
HETATM   29  C   UNL     1       0.102   7.504 -28.101  1.00  0.00     0.039 A 
HETATM   30  C   UNL     1      -0.075   6.981 -26.813  1.00  0.00     0.030 A 
HETATM   31  C   UNL     1       0.766   7.386 -25.774  1.00  0.00     0.002 A 
HETATM   32  C   UNL     1       1.782   8.307 -26.015  1.00  0.00     0.000 A 
HETATM   33  C   UNL     1       1.962   8.828 -27.296  1.00  0.00     0.002 A 
HETATM   34  C   UNL     1       1.124   8.429 -28.339  1.00  0.00     0.030 A 
ENDBRANCH  24  29
ENDBRANCH   1  22
TORSDOF 6
ENDMDL
MODEL 2
REMARK VINA RESULT:      -9.0      2.128     10.846
REMARK  6 active torsions:
REMARK  status: ('A' for Active; 'I' for Inactive)
REMARK    1  A    between atoms: N_3  and  C_4 
REMARK    2  A    between atoms: C_12  and  C_13 
REMARK       I    between atoms: C_13  and  N_14 
REMARK    3  A    between atoms: N_14  and  N_15 
REMARK       I    between atoms: N_15  and  C_16 
REMARK    4  A    between atoms: C_16  and  C_17 
REMARK    5  A    between atoms: C_17  and  C_18 
REMARK    6  A    between atoms: C_23  and  O_24 
ROOT
HETATM    1  C   UNL     1      -4.546   2.839 -32.034  1.00  0.00     0.272 C 
HETATM    2  N   UNL     1      -3.610   3.589 -32.719  1.00  0.00    -0.263 N 
HETATM    3  O   UNL     1      -4.793   3.044 -30.846  1.00  0.00    -0.266 OA
HETATM    4  H   UNL     1      -3.466   3.525 -33.723  1.00  0.00     0.190 HD
ENDROOT
BRANCH   2   5
HETATM    5  N   UNL     1      -3.019   4.683 -32.077  1.00  0.00    -0.267 N 
HETATM    6  C   UNL     1      -1.924   5.279 -32.669  1.00  0.00     0.240 C 
HETATM    7  O   UNL     1      -1.498   4.921 -33.769  1.00  0.00    -0.272 OA
HETATM    8  H   UNL     1      -3.305   4.861 -31.115  1.00  0.00     0.190 HD
BRANCH   6   9
HETATM    9  C   UNL     1      -1.351   6.462 -31.911  1.00  0.00     0.145 C 
BRANCH   9  10
HETATM   10  C   UNL     1      -0.556   6.052 -30.713  1.00  0.00    -0.021 A 
HETATM   11  C   UNL     1      -0.327   6.822 -29.527  1.00  0.00     0.001 A 
HETATM   12  C   UNL     1       0.457   6.049 -28.672  1.00  0.00     0.043 A 
HETATM   13  C   UNL     1      -0.722   8.105 -29.095  1.00  0.00     0.051 A 
HETATM   14  C   UNL     1       0.860   6.494 -27.408  1.00  0.00     0.033 A 
HETATM   15  N   UNL     1       0.712   4.862 -29.316  1.00  0.00    -0.365 N 
HETATM   16  C   UNL     1       0.437   7.765 -26.997  1.00  0.00     0.039 A 
HETATM   17  C   UNL     1      -0.356   8.561 -27.822  1.00  0.00     0.069 A 
HETATM   18  H   UNL     1       1.264   4.108 -28.932  1.00  0.00     0.165 HD
HETATM   19  C   UNL     1       0.106   4.851 -30.543  1.00  0.00     0.097 A 
BRANCH  17  20
HETATM   20  O   UNL     1      -0.820   9.812 -27.512  1.00  0.00    -0.356 OA
HETATM   21  C   UNL     1      -1.733  10.391 -28.436  1.00  0.00     0.210 C 
ENDBRANCH  17  20
ENDBRANCH   9  10
ENDBRANCH   6   9
ENDBRANCH   2   5
BRANCH   1  22
HETATM   22  C   UNL     1      -5.205   1.796 -32.829  1.00  0.00     0.058 A 
HETATM   23  C   UNL     1      -4.918   0.432 -32.774  1.00  0.00     0.029 A 
HETATM   24  N   UNL     1      -5.696  -0.235 -33.721  1.00  0.00    -0.319 N 
HETATM   25  C   UNL     1      -4.002  -0.270 -31.818  1.00  0.00     0.070 C 
HETATM   26  C   UNL     1      -6.541   0.698 -34.315  1.00  0.00     0.014 A 
HETATM   27  C   UNL     1      -7.496   0.402 -35.423  1.00  0.00     0.068 C 
HETATM   28  C   UNL     1      -6.246   1.938 -33.784  1.00  0.00     0.044 A 
BRANCH  24  29
HETATM   29  C   UNL     1      -5.617  -1.621 -34.048  1.00  0.00     0.039 A 
HETATM   30  C   UNL     1      -6.790  -2.345 -34.303  1.00  0.00     0.030 A 
HETATM   31  C   UNL     1      -6.718  -3.705 -34.611  1.00  0.00     0.002 A 
HETATM   32  C   UNL     1      -5.482  -4.345 -34.668  1.00  0.00     0.000 A 
HETATM   33  C   UNL     1      -4.312  -3.627 -34.417  1.00  0.00     0.002 A 
HETATM   34  C   UNL     1      -4.377  -2.267 -34.106  1.00  0.00     0.030 A 
ENDBRANCH  24  29
ENDBRANCH   1  22
TORSDOF 6
ENDMDL
MODEL 3
REMARK VINA RESULT:      -8.7      2.689      4.206
REMARK  6 active torsions:
REMARK  status: ('A' for Active; 'I' for Inactive)
REMARK    1  A    between atoms: N_3  and  C_4 
REMARK    2  A    between atoms: C_12  and  C_13 
REMARK       I    between atoms: C_13  and  N_14 
REMARK    3  A    between atoms: N_14  and  N_15 
REMARK       I    between atoms: N_15  and  C_16 
REMARK    4  A    between atoms: C_16  and  C_17 
REMARK    5  A    between atoms: C_17  and  C_18 
REMARK    6  A    between atoms: C_23  and  O_24 
ROOT
HETATM    1  C   UNL     1      -3.441   3.638 -31.787  1.00  0.00     0.272 C 
HETATM    2  N   UNL     1      -3.333   2.560 -30.930  1.00  0.00    -0.263 N 
HETATM    3  O   UNL     1      -4.199   3.618 -32.756  1.00  0.00    -0.266 OA
HETATM    4  H   UNL     1      -2.809   2.586 -30.061  1.00  0.00     0.190 HD
ENDROOT
BRANCH   2   5
HETATM    5  N   UNL     1      -4.194   1.470 -31.102  1.00  0.00    -0.267 N 
HETATM    6  C   UNL     1      -3.645   0.205 -31.168  1.00  0.00     0.240 C 
HETATM    7  O   UNL     1      -2.439   0.004 -31.014  1.00  0.00    -0.272 OA
HETATM    8  H   UNL     1      -5.156   1.680 -31.363  1.00  0.00     0.190 HD
BRANCH   6   9
HETATM    9  C   UNL     1      -4.648  -0.919 -31.347  1.00  0.00     0.145 C 
BRANCH   9  10
HETATM   10  C   UNL     1      -5.275  -0.926 -32.705  1.00  0.00    -0.021 A 
HETATM   11  C   UNL     1      -6.516  -0.320 -33.084  1.00  0.00     0.001 A 
HETATM   12  C   UNL     1      -6.703  -0.566 -34.443  1.00  0.00     0.043 A 
HETATM   13  C   UNL     1      -7.497   0.425 -32.398  1.00  0.00     0.051 A 
HETATM   14  C   UNL     1      -7.819  -0.102 -35.148  1.00  0.00     0.033 A 
HETATM   15  N   UNL     1      -5.629  -1.308 -34.874  1.00  0.00    -0.365 N 
HETATM   16  C   UNL     1      -8.768   0.653 -34.446  1.00  0.00     0.039 A 
HETATM   17  C   UNL     1      -8.608   0.926 -33.088  1.00  0.00     0.069 A 
HETATM   18  H   UNL     1      -5.501  -1.636 -35.821  1.00  0.00     0.165 HD
HETATM   19  C   UNL     1      -4.762  -1.528 -33.838  1.00  0.00     0.097 A 
BRANCH  17  20
HETATM   20  O   UNL     1      -9.476   1.653 -32.317  1.00  0.00    -0.356 OA
HETATM   21  C   UNL     1      -8.906   2.351 -31.217  1.00  0.00     0.210 C 
ENDBRANCH  17  20
ENDBRANCH   9  10
ENDBRANCH   6   9
ENDBRANCH   2   5
BRANCH   1  22
HETATM   22  C   UNL     1      -2.590   4.785 -31.450  1.00  0.00     0.058 A 
HETATM   23  C   UNL     1      -3.005   5.929 -30.769  1.00  0.00     0.029 A 
HETATM   24  N   UNL     1      -1.940   6.827 -30.696  1.00  0.00    -0.319 N 
HETATM   25  C   UNL     1      -4.335   6.176 -30.125  1.00  0.00     0.070 C 
HETATM   26  C   UNL     1      -0.823   6.212 -31.254  1.00  0.00     0.014 A 
HETATM   27  C   UNL     1       0.512   6.856 -31.423  1.00  0.00     0.068 C 
HETATM   28  C   UNL     1      -1.209   4.971 -31.721  1.00  0.00     0.044 A 
BRANCH  24  29
HETATM   29  C   UNL     1      -1.991   8.153 -30.174  1.00  0.00     0.039 A 
HETATM   30  C   UNL     1      -1.618   8.394 -28.845  1.00  0.00     0.030 A 
HETATM   31  C   UNL     1      -1.680   9.689 -28.326  1.00  0.00     0.002 A 
HETATM   32  C   UNL     1      -2.111  10.743 -29.127  1.00  0.00     0.000 A 
HETATM   33  C   UNL     1      -2.481  10.508 -30.451  1.00  0.00     0.002 A 
HETATM   34  C   UNL     1      -2.423   9.215 -30.976  1.00  0.00     0.030 A 
ENDBRANCH  24  29
ENDBRANCH   1  22
TORSDOF 6
ENDMDL
MODEL 4
REMARK VINA RESULT:      -8.4      1.866     11.088
REMARK  6 active torsions:
REMARK  status: ('A' for Active; 'I' for Inactive)
REMARK    1  A    between atoms: N_3  and  C_4 
REMARK    2  A    between atoms: C_12  and  C_13 
REMARK       I    between atoms: C_13  and  N_14 
REMARK    3  A    between atoms: N_14  and  N_15 
REMARK       I    between atoms: N_15  and  C_16 
REMARK    4  A    between atoms: C_16  and  C_17 
REMARK    5  A    between atoms: C_17  and  C_18 
REMARK    6  A    between atoms: C_23  and  O_24 
ROOT
HETATM    1  C   UNL     1      -4.273   1.743 -31.836  1.00  0.00     0.272 C 
HETATM    2  N   UNL     1      -3.115   2.347 -31.385  1.00  0.00    -0.263 N 
HETATM    3  O   UNL     1      -5.324   2.372 -31.957  1.00  0.00    -0.266 OA
HETATM    4  H   UNL     1      -2.209   1.890 -31.384  1.00  0.00     0.190 HD
ENDROOT
BRANCH   2   5
HETATM    5  N   UNL     1      -3.113   3.731 -31.174  1.00  0.00    -0.267 N 
HETATM    6  C   UNL     1      -2.611   4.545 -32.170  1.00  0.00     0.240 C 
HETATM    7  O   UNL     1      -2.230   4.097 -33.253  1.00  0.00    -0.272 OA
HETATM    8  H   UNL     1      -3.302   4.053 -30.226  1.00  0.00     0.190 HD
BRANCH   6   9
HETATM    9  C   UNL     1      -2.654   6.030 -31.864  1.00  0.00     0.145 C 
BRANCH   9  10
HETATM   10  C   UNL     1      -1.419   6.517 -31.176  1.00  0.00    -0.021 A 
HETATM   11  C   UNL     1      -1.322   7.034 -29.844  1.00  0.00     0.001 A 
HETATM   12  C   UNL     1       0.014   7.355 -29.616  1.00  0.00     0.043 A 
HETATM   13  C   UNL     1      -2.249   7.250 -28.802  1.00  0.00     0.051 A 
HETATM   14  C   UNL     1       0.469   7.878 -28.401  1.00  0.00     0.033 A 
HETATM   15  N   UNL     1       0.705   7.064 -30.768  1.00  0.00    -0.365 N 
HETATM   16  C   UNL     1      -0.470   8.065 -27.377  1.00  0.00     0.039 A 
HETATM   17  C   UNL     1      -1.813   7.745 -27.567  1.00  0.00     0.069 A 
HETATM   18  H   UNL     1       1.698   7.202 -30.893  1.00  0.00     0.165 HD
HETATM   19  C   UNL     1      -0.146   6.557 -31.712  1.00  0.00     0.097 A 
BRANCH  17  20
HETATM   20  O   UNL     1      -2.803   7.889 -26.631  1.00  0.00    -0.356 OA
HETATM   21  C   UNL     1      -2.432   7.645 -25.280  1.00  0.00     0.210 C 
ENDBRANCH  17  20
ENDBRANCH   9  10
ENDBRANCH   6   9
ENDBRANCH   2   5
BRANCH   1  22
HETATM   22  C   UNL     1      -4.143   0.316 -32.152  1.00  0.00     0.058 A 
HETATM   23  C   UNL     1      -4.876  -0.369 -33.121  1.00  0.00     0.029 A 
HETATM   24  N   UNL     1      -4.529  -1.720 -33.083  1.00  0.00    -0.319 N 
HETATM   25  C   UNL     1      -5.829   0.209 -34.123  1.00  0.00     0.070 C 
HETATM   26  C   UNL     1      -3.510  -1.874 -32.148  1.00  0.00     0.014 A 
HETATM   27  C   UNL     1      -2.893  -3.177 -31.764  1.00  0.00     0.068 C 
HETATM   28  C   UNL     1      -3.272  -0.643 -31.571  1.00  0.00     0.044 A 
BRANCH  24  29
HETATM   29  C   UNL     1      -5.135  -2.765 -33.842  1.00  0.00     0.039 A 
HETATM   30  C   UNL     1      -4.367  -3.865 -34.249  1.00  0.00     0.030 A 
HETATM   31  C   UNL     1      -4.952  -4.884 -35.004  1.00  0.00     0.002 A 
HETATM   32  C   UNL     1      -6.299  -4.811 -35.351  1.00  0.00     0.000 A 
HETATM   33  C   UNL     1      -7.066  -3.720 -34.946  1.00  0.00     0.002 A 
HETATM   34  C   UNL     1      -6.487  -2.696 -34.193  1.00  0.00     0.030 A 
ENDBRANCH  24  29
ENDBRANCH   1  22
TORSDOF 6
ENDMDL
MODEL 5
REMARK VINA RESULT:      -8.3      3.020     10.797
REMARK  6 active torsions:
REMARK  status: ('A' for Active; 'I' for Inactive)
REMARK    1  A    between atoms: N_3  and  C_4 
REMARK    2  A    between atoms: C_12  and  C_13 
REMARK       I    between atoms: C_13  and  N_14 
REMARK    3  A    between atoms: N_14  and  N_15 
REMARK       I    between atoms: N_15  and  C_16 
REMARK    4  A    between atoms: C_16  and  C_17 
REMARK    5  A    between atoms: C_17  and  C_18 
REMARK    6  A    between atoms: C_23  and  O_24 
ROOT
HETATM    1  C   UNL     1      -2.904   4.270 -32.159  1.00  0.00     0.272 C 
HETATM    2  N   UNL     1      -2.607   4.642 -30.863  1.00  0.00    -0.263 N 
HETATM    3  O   UNL     1      -2.514   4.926 -33.124  1.00  0.00    -0.266 OA
HETATM    4  H   UNL     1      -2.812   4.064 -30.053  1.00  0.00     0.190 HD
ENDROOT
BRANCH   2   5
HETATM    5  N   UNL     1      -1.743   5.722 -30.651  1.00  0.00    -0.267 N 
HETATM    6  C   UNL     1      -0.426   5.457 -30.335  1.00  0.00     0.240 C 
HETATM    7  O   UNL     1       0.022   4.309 -30.300  1.00  0.00    -0.272 OA
HETATM    8  H   UNL     1      -2.172   6.642 -30.551  1.00  0.00     0.190 HD
BRANCH   6   9
HETATM    9  C   UNL     1       0.442   6.684 -30.131  1.00  0.00     0.145 C 
BRANCH   9  10
HETATM   10  C   UNL     1       0.312   7.265 -28.759  1.00  0.00    -0.021 A 
HETATM   11  C   UNL     1      -0.550   8.335 -28.355  1.00  0.00     0.001 A 
HETATM   12  C   UNL     1      -0.352   8.539 -26.991  1.00  0.00     0.043 A 
HETATM   13  C   UNL     1      -1.491   9.145 -29.022  1.00  0.00     0.051 A 
HETATM   14  C   UNL     1      -1.048   9.509 -26.263  1.00  0.00     0.033 A 
HETATM   15  N   UNL     1       0.607   7.643 -26.581  1.00  0.00    -0.365 N 
HETATM   16  C   UNL     1      -1.992  10.287 -26.948  1.00  0.00     0.039 A 
HETATM   17  C   UNL     1      -2.223  10.104 -28.310  1.00  0.00     0.069 A 
HETATM   18  H   UNL     1       0.954   7.567 -25.635  1.00  0.00     0.165 HD
HETATM   19  C   UNL     1       1.011   6.870 -27.635  1.00  0.00     0.097 A 
BRANCH  17  20
HETATM   20  O   UNL     1      -3.121  10.810 -29.065  1.00  0.00    -0.356 OA
HETATM   21  C   UNL     1      -3.380  10.306 -30.369  1.00  0.00     0.210 C 
ENDBRANCH  17  20
ENDBRANCH   9  10
ENDBRANCH   6   9
ENDBRANCH   2   5
BRANCH   1  22
HETATM   22  C   UNL     1      -3.711   3.050 -32.284  1.00  0.00     0.058 A 
HETATM   23  C   UNL     1      -5.011   2.986 -32.785  1.00  0.00     0.029 A 
HETATM   24  N   UNL     1      -5.474   1.674 -32.682  1.00  0.00    -0.319 N 
HETATM   25  C   UNL     1      -5.800   4.090 -33.420  1.00  0.00     0.070 C 
HETATM   26  C   UNL     1      -4.432   0.889 -32.197  1.00  0.00     0.014 A 
HETATM   27  C   UNL     1      -4.531  -0.567 -31.889  1.00  0.00     0.068 C 
HETATM   28  C   UNL     1      -3.357   1.717 -31.946  1.00  0.00     0.044 A 
BRANCH  24  29
HETATM   29  C   UNL     1      -6.792   1.221 -32.987  1.00  0.00     0.039 A 
HETATM   30  C   UNL     1      -7.100   0.799 -34.288  1.00  0.00     0.030 A 
HETATM   31  C   UNL     1      -8.393   0.368 -34.593  1.00  0.00     0.002 A 
HETATM   32  C   UNL     1      -9.377   0.353 -33.608  1.00  0.00     0.000 A 
HETATM   33  C   UNL     1      -9.073   0.769 -32.312  1.00  0.00     0.002 A 
HETATM   34  C   UNL     1      -7.783   1.204 -32.000  1.00  0.00     0.030 A 
ENDBRANCH  24  29
ENDBRANCH   1  22
TORSDOF 6
ENDMDL
MODEL 6
REMARK VINA RESULT:      -8.3      3.324     10.205
REMARK  6 active torsions:
REMARK  status: ('A' for Active; 'I' for Inactive)
REMARK    1  A    between atoms: N_3  and  C_4 
REMARK    2  A    between atoms: C_12  and  C_13 
REMARK       I    between atoms: C_13  and  N_14 
REMARK    3  A    between atoms: N_14  and  N_15 
REMARK       I    between atoms: N_15  and  C_16 
REMARK    4  A    between atoms: C_16  and  C_17 
REMARK    5  A    between atoms: C_17  and  C_18 
REMARK    6  A    between atoms: C_23  and  O_24 
ROOT
HETATM    1  C   UNL     1      -6.044   4.864 -30.531  1.00  0.00     0.272 C 
HETATM    2  N   UNL     1      -5.388   4.756 -29.319  1.00  0.00    -0.263 N 
HETATM    3  O   UNL     1      -6.097   5.929 -31.144  1.00  0.00    -0.266 OA
HETATM    4  H   UNL     1      -5.227   3.873 -28.846  1.00  0.00     0.190 HD
ENDROOT
BRANCH   2   5
HETATM    5  N   UNL     1      -4.669   5.857 -28.840  1.00  0.00    -0.267 N 
HETATM    6  C   UNL     1      -4.889   6.270 -27.542  1.00  0.00     0.240 C 
HETATM    7  O   UNL     1      -5.643   5.662 -26.779  1.00  0.00    -0.272 OA
HETATM    8  H   UNL     1      -4.166   6.414 -29.530  1.00  0.00     0.190 HD
BRANCH   6   9
HETATM    9  C   UNL     1      -4.062   7.463 -27.101  1.00  0.00     0.145 C 
BRANCH   9  10
HETATM   10  C   UNL     1      -2.598   7.163 -27.040  1.00  0.00    -0.021 A 
HETATM   11  C   UNL     1      -1.673   7.159 -28.133  1.00  0.00     0.001 A 
HETATM   12  C   UNL     1      -0.418   6.837 -27.619  1.00  0.00     0.043 A 
HETATM   13  C   UNL     1      -1.784   7.409 -29.517  1.00  0.00     0.051 A 
HETATM   14  C   UNL     1       0.728   6.756 -28.417  1.00  0.00     0.033 A 
HETATM   15  N   UNL     1      -0.573   6.635 -26.268  1.00  0.00    -0.365 N 
HETATM   16  C   UNL     1       0.592   7.029 -29.785  1.00  0.00     0.039 A 
HETATM   17  C   UNL     1      -0.646   7.363 -30.332  1.00  0.00     0.069 A 
HETATM   18  H   UNL     1       0.175   6.383 -25.636  1.00  0.00     0.165 HD
HETATM   19  C   UNL     1      -1.878   6.831 -25.908  1.00  0.00     0.097 A 
BRANCH  17  20
HETATM   20  O   UNL     1      -0.880   7.647 -31.652  1.00  0.00    -0.356 OA
HETATM   21  C   UNL     1      -2.141   8.230 -31.955  1.00  0.00     0.210 C 
ENDBRANCH  17  20
ENDBRANCH   9  10
ENDBRANCH   6   9
ENDBRANCH   2   5
BRANCH   1  22
HETATM   22  C   UNL     1      -6.661   3.622 -31.012  1.00  0.00     0.058 A 
HETATM   23  C   UNL     1      -6.068   2.709 -31.885  1.00  0.00     0.029 A 
HETATM   24  N   UNL     1      -6.982   1.693 -32.169  1.00  0.00    -0.319 N 
HETATM   25  C   UNL     1      -4.661   2.718 -32.399  1.00  0.00     0.070 C 
HETATM   26  C   UNL     1      -8.122   1.917 -31.404  1.00  0.00     0.014 A 
HETATM   27  C   UNL     1      -9.362   1.087 -31.455  1.00  0.00     0.068 C 
HETATM   28  C   UNL     1      -7.940   3.091 -30.701  1.00  0.00     0.044 A 
BRANCH  24  29
HETATM   29  C   UNL     1      -6.795   0.631 -33.103  1.00  0.00     0.039 A 
HETATM   30  C   UNL     1      -7.184   0.802 -34.438  1.00  0.00     0.030 A 
HETATM   31  C   UNL     1      -7.016  -0.240 -35.353  1.00  0.00     0.002 A 
HETATM   32  C   UNL     1      -6.459  -1.449 -34.942  1.00  0.00     0.000 A 
HETATM   33  C   UNL     1      -6.068  -1.621 -33.614  1.00  0.00     0.002 A 
HETATM   34  C   UNL     1      -6.236  -0.584 -32.694  1.00  0.00     0.030 A 
ENDBRANCH  24  29
ENDBRANCH   1  22
TORSDOF 6
ENDMDL
MODEL 7
REMARK VINA RESULT:      -8.2      1.916      3.018
REMARK  6 active torsions:
REMARK  status: ('A' for Active; 'I' for Inactive)
REMARK    1  A    between atoms: N_3  and  C_4 
REMARK    2  A    between atoms: C_12  and  C_13 
REMARK       I    between atoms: C_13  and  N_14 
REMARK    3  A    between atoms: N_14  and  N_15 
REMARK       I    between atoms: N_15  and  C_16 
REMARK    4  A    between atoms: C_16  and  C_17 
REMARK    5  A    between atoms: C_17  and  C_18 
REMARK    6  A    between atoms: C_23  and  O_24 
ROOT
HETATM    1  C   UNL     1      -1.404   5.804 -31.062  1.00  0.00     0.272 C 
HETATM    2  N   UNL     1      -2.408   4.920 -30.719  1.00  0.00    -0.263 N 
HETATM    3  O   UNL     1      -0.625   5.570 -31.986  1.00  0.00    -0.266 OA
HETATM    4  H   UNL     1      -3.135   5.132 -30.043  1.00  0.00     0.190 HD
ENDROOT
BRANCH   2   5
HETATM    5  N   UNL     1      -2.616   3.790 -31.519  1.00  0.00    -0.267 N 
HETATM    6  C   UNL     1      -3.662   2.946 -31.203  1.00  0.00     0.240 C 
HETATM    7  O   UNL     1      -4.449   3.192 -30.288  1.00  0.00    -0.272 OA
HETATM    8  H   UNL     1      -1.873   3.545 -32.172  1.00  0.00     0.190 HD
BRANCH   6   9
HETATM    9  C   UNL     1      -3.821   1.752 -32.126  1.00  0.00     0.145 C 
BRANCH   9  10
HETATM   10  C   UNL     1      -5.072   1.813 -32.942  1.00  0.00    -0.021 A 
HETATM   11  C   UNL     1      -5.700   0.730 -33.638  1.00  0.00     0.001 A 
HETATM   12  C   UNL     1      -6.843   1.236 -34.255  1.00  0.00     0.043 A 
HETATM   13  C   UNL     1      -5.408  -0.641 -33.793  1.00  0.00     0.051 A 
HETATM   14  C   UNL     1      -7.706   0.440 -35.015  1.00  0.00     0.033 A 
HETATM   15  N   UNL     1      -6.901   2.578 -33.964  1.00  0.00    -0.365 N 
HETATM   16  C   UNL     1      -7.402  -0.923 -35.136  1.00  0.00     0.039 A 
HETATM   17  C   UNL     1      -6.273  -1.465 -34.524  1.00  0.00     0.069 A 
HETATM   18  H   UNL     1      -7.626   3.204 -34.287  1.00  0.00     0.165 HD
HETATM   19  C   UNL     1      -5.844   2.936 -33.173  1.00  0.00     0.097 A 
BRANCH  17  20
HETATM   20  O   UNL     1      -5.892  -2.779 -34.582  1.00  0.00    -0.356 OA
HETATM   21  C   UNL     1      -4.509  -3.042 -34.387  1.00  0.00     0.210 C 
ENDBRANCH  17  20
ENDBRANCH   9  10
ENDBRANCH   6   9
ENDBRANCH   2   5
BRANCH   1  22
HETATM   22  C   UNL     1      -1.345   7.021 -30.245  1.00  0.00     0.058 A 
HETATM   23  C   UNL     1      -0.641   7.161 -29.048  1.00  0.00     0.029 A 
HETATM   24  N   UNL     1      -0.879   8.433 -28.526  1.00  0.00    -0.319 N 
HETATM   25  C   UNL     1       0.298   6.176 -28.422  1.00  0.00     0.070 C 
HETATM   26  C   UNL     1      -1.664   9.130 -29.440  1.00  0.00     0.014 A 
HETATM   27  C   UNL     1      -2.189  10.512 -29.235  1.00  0.00     0.068 C 
HETATM   28  C   UNL     1      -1.958   8.279 -30.486  1.00  0.00     0.044 A 
BRANCH  24  29
HETATM   29  C   UNL     1      -0.428   8.922 -27.265  1.00  0.00     0.039 A 
HETATM   30  C   UNL     1       0.821   9.550 -27.168  1.00  0.00     0.030 A 
HETATM   31  C   UNL     1       1.272  10.019 -25.932  1.00  0.00     0.002 A 
HETATM   32  C   UNL     1       0.482   9.865 -24.795  1.00  0.00     0.000 A 
HETATM   33  C   UNL     1      -0.762   9.243 -24.888  1.00  0.00     0.002 A 
HETATM   34  C   UNL     1      -1.218   8.770 -26.120  1.00  0.00     0.030 A 
ENDBRANCH  24  29
ENDBRANCH   1  22
TORSDOF 6
ENDMDL
MODEL 8
REMARK VINA RESULT:      -8.2      3.355      4.581
REMARK  6 active torsions:
REMARK  status: ('A' for Active; 'I' for Inactive)
REMARK    1  A    between atoms: N_3  and  C_4 
REMARK    2  A    between atoms: C_12  and  C_13 
REMARK       I    between atoms: C_13  and  N_14 
REMARK    3  A    between atoms: N_14  and  N_15 
REMARK       I    between atoms: N_15  and  C_16 
REMARK    4  A    between atoms: C_16  and  C_17 
REMARK    5  A    between atoms: C_17  and  C_18 
REMARK    6  A    between atoms: C_23  and  O_24 
ROOT
HETATM    1  C   UNL     1      -4.241   6.257 -31.462  1.00  0.00     0.272 C 
HETATM    2  N   UNL     1      -4.843   5.058 -31.789  1.00  0.00    -0.263 N 
HETATM    3  O   UNL     1      -4.821   7.332 -31.610  1.00  0.00    -0.266 OA
HETATM    4  H   UNL     1      -4.440   4.151 -31.572  1.00  0.00     0.190 HD
ENDROOT
BRANCH   2   5
HETATM    5  N   UNL     1      -6.185   5.062 -32.185  1.00  0.00    -0.267 N 
HETATM    6  C   UNL     1      -6.473   4.945 -33.530  1.00  0.00     0.240 C 
HETATM    7  O   UNL     1      -5.593   4.773 -34.376  1.00  0.00    -0.272 OA
HETATM    8  H   UNL     1      -6.871   5.343 -31.485  1.00  0.00     0.190 HD
BRANCH   6   9
HETATM    9  C   UNL     1      -7.951   4.948 -33.870  1.00  0.00     0.145 C 
BRANCH   9  10
HETATM   10  C   UNL     1      -8.694   3.812 -33.243  1.00  0.00    -0.021 A 
HETATM   11  C   UNL     1      -8.468   2.414 -33.455  1.00  0.00     0.001 A 
HETATM   12  C   UNL     1      -9.379   1.717 -32.663  1.00  0.00     0.043 A 
HETATM   13  C   UNL     1      -7.563   1.671 -34.243  1.00  0.00     0.051 A 
HETATM   14  C   UNL     1      -9.428   0.320 -32.618  1.00  0.00     0.033 A 
HETATM   15  N   UNL     1     -10.144   2.652 -32.007  1.00  0.00    -0.365 N 
HETATM   16  C   UNL     1      -8.505  -0.391 -33.396  1.00  0.00     0.039 A 
HETATM   17  C   UNL     1      -7.573   0.272 -34.192  1.00  0.00     0.069 A 
HETATM   18  H   UNL     1     -10.893   2.433 -31.364  1.00  0.00     0.165 HD
HETATM   19  C   UNL     1      -9.739   3.915 -32.346  1.00  0.00     0.097 A 
BRANCH  17  20
HETATM   20  O   UNL     1      -6.632  -0.332 -34.984  1.00  0.00    -0.356 OA
HETATM   21  C   UNL     1      -6.398  -1.713 -34.739  1.00  0.00     0.210 C 
ENDBRANCH  17  20
ENDBRANCH   9  10
ENDBRANCH   6   9
ENDBRANCH   2   5
BRANCH   1  22
HETATM   22  C   UNL     1      -2.876   6.141 -30.935  1.00  0.00     0.058 A 
HETATM   23  C   UNL     1      -2.407   6.734 -29.763  1.00  0.00     0.029 A 
HETATM   24  N   UNL     1      -1.046   6.458 -29.626  1.00  0.00    -0.319 N 
HETATM   25  C   UNL     1      -3.202   7.483 -28.737  1.00  0.00     0.070 C 
HETATM   26  C   UNL     1      -0.674   5.614 -30.668  1.00  0.00     0.014 A 
HETATM   27  C   UNL     1       0.714   5.126 -30.919  1.00  0.00     0.068 C 
HETATM   28  C   UNL     1      -1.778   5.419 -31.473  1.00  0.00     0.044 A 
BRANCH  24  29
HETATM   29  C   UNL     1      -0.179   6.976 -28.618  1.00  0.00     0.039 A 
HETATM   30  C   UNL     1       0.664   8.056 -28.912  1.00  0.00     0.030 A 
HETATM   31  C   UNL     1       1.523   8.557 -27.933  1.00  0.00     0.002 A 
HETATM   32  C   UNL     1       1.543   7.988 -26.661  1.00  0.00     0.000 A 
HETATM   33  C   UNL     1       0.703   6.915 -26.365  1.00  0.00     0.002 A 
HETATM   34  C   UNL     1      -0.157   6.407 -27.341  1.00  0.00     0.030 A 
ENDBRANCH  24  29
ENDBRANCH   1  22
TORSDOF 6
ENDMDL
MODEL 9
REMARK VINA RESULT:      -8.2      3.173     10.702
REMARK  6 active torsions:
REMARK  status: ('A' for Active; 'I' for Inactive)
REMARK    1  A    between atoms: N_3  and  C_4 
REMARK    2  A    between atoms: C_12  and  C_13 
REMARK       I    between atoms: C_13  and  N_14 
REMARK    3  A    between atoms: N_14  and  N_15 
REMARK       I    between atoms: N_15  and  C_16 
REMARK    4  A    between atoms: C_16  and  C_17 
REMARK    5  A    between atoms: C_17  and  C_18 
REMARK    6  A    between atoms: C_23  and  O_24 
ROOT
HETATM    1  C   UNL     1      -4.717   4.982 -30.695  1.00  0.00     0.272 C 
HETATM    2  N   UNL     1      -3.392   4.592 -30.653  1.00  0.00    -0.263 N 
HETATM    3  O   UNL     1      -5.061   6.128 -30.409  1.00  0.00    -0.266 OA
HETATM    4  H   UNL     1      -3.061   3.694 -30.992  1.00  0.00     0.190 HD
ENDROOT
BRANCH   2   5
HETATM    5  N   UNL     1      -2.411   5.557 -30.396  1.00  0.00    -0.267 N 
HETATM    6  C   UNL     1      -1.219   5.482 -31.087  1.00  0.00     0.240 C 
HETATM    7  O   UNL     1      -1.021   4.637 -31.963  1.00  0.00    -0.272 OA
HETATM    8  H   UNL     1      -2.551   6.148 -29.577  1.00  0.00     0.190 HD
BRANCH   6   9
HETATM    9  C   UNL     1      -0.217   6.571 -30.754  1.00  0.00     0.145 C 
BRANCH   9  10
HETATM   10  C   UNL     1      -0.084   6.806 -29.284  1.00  0.00    -0.021 A 
HETATM   11  C   UNL     1      -0.591   7.921 -28.541  1.00  0.00     0.001 A 
HETATM   12  C   UNL     1      -0.245   7.725 -27.205  1.00  0.00     0.043 A 
HETATM   13  C   UNL     1      -1.322   9.078 -28.879  1.00  0.00     0.051 A 
HETATM   14  C   UNL     1      -0.597   8.626 -26.193  1.00  0.00     0.033 A 
HETATM   15  N   UNL     1       0.460   6.547 -27.136  1.00  0.00    -0.365 N 
HETATM   16  C   UNL     1      -1.340   9.757 -26.556  1.00  0.00     0.039 A 
HETATM   17  C   UNL     1      -1.712   9.980 -27.880  1.00  0.00     0.069 A 
HETATM   18  H   UNL     1       0.842   6.156 -26.286  1.00  0.00     0.165 HD
HETATM   19  C   UNL     1       0.561   5.985 -28.379  1.00  0.00     0.097 A 
BRANCH  17  20
HETATM   20  O   UNL     1      -2.437  11.051 -28.333  1.00  0.00    -0.356 OA
HETATM   21  C   UNL     1      -2.537  11.191 -29.744  1.00  0.00     0.210 C 
ENDBRANCH  17  20
ENDBRANCH   9  10
ENDBRANCH   6   9
ENDBRANCH   2   5
BRANCH   1  22
HETATM   22  C   UNL     1      -5.658   3.931 -31.099  1.00  0.00     0.058 A 
HETATM   23  C   UNL     1      -5.380   2.892 -31.987  1.00  0.00     0.029 A 
HETATM   24  N   UNL     1      -6.537   2.136 -32.179  1.00  0.00    -0.319 N 
HETATM   25  C   UNL     1      -4.058   2.544 -32.599  1.00  0.00     0.070 C 
HETATM   26  C   UNL     1      -7.525   2.644 -31.341  1.00  0.00     0.014 A 
HETATM   27  C   UNL     1      -8.932   2.152 -31.281  1.00  0.00     0.068 C 
HETATM   28  C   UNL     1      -7.003   3.741 -30.684  1.00  0.00     0.044 A 
BRANCH  24  29
HETATM   29  C   UNL     1      -6.692   1.054 -33.096  1.00  0.00     0.039 A 
HETATM   30  C   UNL     1      -7.057   1.313 -34.424  1.00  0.00     0.030 A 
HETATM   31  C   UNL     1      -7.223   0.256 -35.321  1.00  0.00     0.002 A 
HETATM   32  C   UNL     1      -7.025  -1.057 -34.900  1.00  0.00     0.000 A 
HETATM   33  C   UNL     1      -6.660  -1.318 -33.579  1.00  0.00     0.002 A 
HETATM   34  C   UNL     1      -6.495  -0.266 -32.676  1.00  0.00     0.030 A 
ENDBRANCH  24  29
ENDBRANCH   1  22
TORSDOF 6
ENDMDL
MODEL 10
REMARK VINA RESULT:      -8.0      3.359     10.147
REMARK  6 active torsions:
REMARK  status: ('A' for Active; 'I' for Inactive)
REMARK    1  A    between atoms: N_3  and  C_4 
REMARK    2  A    between atoms: C_12  and  C_13 
REMARK       I    between atoms: C_13  and  N_14 
REMARK    3  A    between atoms: N_14  and  N_15 
REMARK       I    between atoms: N_15  and  C_16 
REMARK    4  A    between atoms: C_16  and  C_17 
REMARK    5  A    between atoms: C_17  and  C_18 
REMARK    6  A    between atoms: C_23  and  O_24 
ROOT
HETATM    1  C   UNL     1      -5.239   5.237 -30.724  1.00  0.00     0.272 C 
HETATM    2  N   UNL     1      -4.826   6.068 -31.747  1.00  0.00    -0.263 N 
HETATM    3  O   UNL     1      -4.911   5.440 -29.555  1.00  0.00    -0.266 OA
HETATM    4  H   UNL     1      -5.171   5.997 -32.699  1.00  0.00     0.190 HD
ENDROOT
BRANCH   2   5
HETATM    5  N   UNL     1      -4.118   7.232 -31.428  1.00  0.00    -0.267 N 
HETATM    6  C   UNL     1      -2.901   7.449 -32.042  1.00  0.00     0.240 C 
HETATM    7  O   UNL     1      -2.455   6.687 -32.902  1.00  0.00    -0.272 OA
HETATM    8  H   UNL     1      -4.444   7.762 -30.621  1.00  0.00     0.190 HD
BRANCH   6   9
HETATM    9  C   UNL     1      -2.206   8.738 -31.646  1.00  0.00     0.145 C 
BRANCH   9  10
HETATM   10  C   UNL     1      -1.852   8.784 -30.194  1.00  0.00    -0.021 A 
HETATM   11  C   UNL     1      -1.052   7.840 -29.472  1.00  0.00     0.001 A 
HETATM   12  C   UNL     1      -0.975   8.280 -28.152  1.00  0.00     0.043 A 
HETATM   13  C   UNL     1      -0.376   6.653 -29.821  1.00  0.00     0.051 A 
HETATM   14  C   UNL     1      -0.255   7.595 -27.167  1.00  0.00     0.033 A 
HETATM   15  N   UNL     1      -1.713   9.437 -28.066  1.00  0.00    -0.365 N 
HETATM   16  C   UNL     1       0.423   6.429 -27.547  1.00  0.00     0.039 A 
HETATM   17  C   UNL     1       0.376   5.965 -28.860  1.00  0.00     0.069 A 
HETATM   18  H   UNL     1      -1.839   9.976 -27.220  1.00  0.00     0.165 HD
HETATM   19  C   UNL     1      -2.243   9.751 -29.288  1.00  0.00     0.097 A 
BRANCH  17  20
HETATM   20  O   UNL     1       1.004   4.841 -29.328  1.00  0.00    -0.356 OA
HETATM   21  C   UNL     1       1.233   4.787 -30.730  1.00  0.00     0.210 C 
ENDBRANCH  17  20
ENDBRANCH   9  10
ENDBRANCH   6   9
ENDBRANCH   2   5
BRANCH   1  22
HETATM   22  C   UNL     1      -6.084   4.112 -31.142  1.00  0.00     0.058 A 
HETATM   23  C   UNL     1      -5.685   3.063 -31.970  1.00  0.00     0.029 A 
HETATM   24  N   UNL     1      -6.776   2.225 -32.201  1.00  0.00    -0.319 N 
HETATM   25  C   UNL     1      -4.306   2.782 -32.487  1.00  0.00     0.070 C 
HETATM   26  C   UNL     1      -7.845   2.697 -31.446  1.00  0.00     0.014 A 
HETATM   27  C   UNL     1      -9.219   2.115 -31.453  1.00  0.00     0.068 C 
HETATM   28  C   UNL     1      -7.437   3.848 -30.802  1.00  0.00     0.044 A 
BRANCH  24  29
HETATM   29  C   UNL     1      -6.804   1.104 -33.083  1.00  0.00     0.039 A 
HETATM   30  C   UNL     1      -6.511  -0.176 -32.590  1.00  0.00     0.030 A 
HETATM   31  C   UNL     1      -6.524  -1.274 -33.452  1.00  0.00     0.002 A 
HETATM   32  C   UNL     1      -6.829  -1.102 -34.800  1.00  0.00     0.000 A 
HETATM   33  C   UNL     1      -7.123   0.169 -35.293  1.00  0.00     0.002 A 
HETATM   34  C   UNL     1      -7.109   1.272 -34.437  1.00  0.00     0.030 A 
ENDBRANCH  24  29
ENDBRANCH   1  22
TORSDOF 6
ENDMDL
