MODEL 1
REMARK VINA RESULT:      -8.9      0.000      0.000
REMARK  5 active torsions:
REMARK  status: ('A' for Active; 'I' for Inactive)
REMARK    1  A    between atoms: C_4  and  N_5 
REMARK       I    between atoms: N_5  and  C_6 
REMARK    2  A    between atoms: C_6  and  C_7 
REMARK    3  A    between atoms: N_9  and  C_10 
REMARK    4  A    between atoms: C_10  and  C_11 
REMARK    5  A    between atoms: C_14  and  O_15 
ROOT
HETATM    1  C   UNL     1      -9.228   1.400 -34.009  1.00  0.00     0.105 C 
HETATM    2  C   UNL     1      -8.880   2.872 -34.129  1.00  0.00     0.140 C 
HETATM    3  N   UNL     1      -8.357   3.199 -32.824  1.00  0.00    -0.347 N 
HETATM    4  C   UNL     1      -8.810   2.332 -31.844  1.00  0.00     0.221 C 
HETATM    5  O   UNL     1      -8.664   2.454 -30.640  1.00  0.00    -0.273 OA
HETATM    6  C   UNL     1      -9.525   1.189 -32.523  1.00  0.00     0.118 C 
ENDROOT
BRANCH   1   7
HETATM    7  C   UNL     1      -8.098   0.509 -34.519  1.00  0.00     0.228 C 
HETATM    8  N   UNL     1      -7.707  -0.476 -33.642  1.00  0.00    -0.325 N 
HETATM    9  H   UNL     1      -8.185  -0.559 -32.745  1.00  0.00     0.169 HD
HETATM   10  O   UNL     1      -7.614   0.716 -35.629  1.00  0.00    -0.273 OA
BRANCH   8  11
HETATM   11  C   UNL     1      -6.676  -1.436 -33.774  1.00  0.00     0.065 A 
HETATM   12  C   UNL     1      -6.783  -2.589 -34.559  1.00  0.00     0.038 A 
HETATM   13  C   UNL     1      -5.712  -3.484 -34.652  1.00  0.00    -0.059 A 
HETATM   14  C   UNL     1      -5.829  -4.734 -35.475  1.00  0.00     0.048 C 
HETATM   15  C   UNL     1      -4.545  -3.228 -33.924  1.00  0.00     0.020 A 
HETATM   16  C   UNL     1      -4.433  -2.074 -33.131  1.00  0.00    -0.005 A 
HETATM   17  C   UNL     1      -5.502  -1.158 -33.055  1.00  0.00     0.093 A 
HETATM   18  C   UNL     1      -3.273  -1.798 -32.395  1.00  0.00     0.015 A 
HETATM   19  N   UNL     1      -5.425  -0.029 -32.308  1.00  0.00    -0.258 NA
HETATM   20  C   UNL     1      -4.292   0.196 -31.606  1.00  0.00     0.117 A 
HETATM   21  C   UNL     1      -3.200  -0.649 -31.618  1.00  0.00     0.020 A 
ENDBRANCH   8  11
ENDBRANCH   1   7
BRANCH   3  22
HETATM   22  C   UNL     1      -7.695   4.457 -32.543  1.00  0.00     0.164 C 
BRANCH  22  23
HETATM   23  C   UNL     1      -6.211   4.413 -32.804  1.00  0.00    -0.040 A 
HETATM   24  C   UNL     1      -5.685   4.949 -33.984  1.00  0.00     0.011 A 
HETATM   25  C   UNL     1      -4.307   4.936 -34.215  1.00  0.00     0.037 A 
HETATM   26  C   UNL     1      -3.434   4.392 -33.271  1.00  0.00     0.068 A 
HETATM   27  C   UNL     1      -3.954   3.825 -32.107  1.00  0.00     0.037 A 
HETATM   28  C   UNL     1      -5.334   3.836 -31.874  1.00  0.00     0.011 A 
BRANCH  26  29
HETATM   29  O   UNL     1      -2.110   4.461 -33.603  1.00  0.00    -0.356 OA
HETATM   30  C   UNL     1      -1.799   5.093 -34.840  1.00  0.00     0.210 C 
ENDBRANCH  26  29
ENDBRANCH  22  23
ENDBRANCH   3  22
TORSDOF 5
ENDMDL
MODEL 2
REMARK VINA RESULT:      -8.3      1.980      6.810
REMARK  5 active torsions:
REMARK  status: ('A' for Active; 'I' for Inactive)
REMARK    1  A    between atoms: C_4  and  N_5 
REMARK       I    between atoms: N_5  and  C_6 
REMARK    2  A    between atoms: C_6  and  C_7 
REMARK    3  A    between atoms: N_9  and  C_10 
REMARK    4  A    between atoms: C_10  and  C_11 
REMARK    5  A    between atoms: C_14  and  O_15 
ROOT
HETATM    1  C   UNL     1      -5.007   3.448 -31.529  1.00  0.00     0.105 C 
HETATM    2  C   UNL     1      -3.957   2.368 -31.714  1.00  0.00     0.140 C 
HETATM    3  N   UNL     1      -4.522   1.233 -31.024  1.00  0.00    -0.347 N 
HETATM    4  C   UNL     1      -5.443   1.608 -30.062  1.00  0.00     0.221 C 
HETATM    5  O   UNL     1      -5.958   0.886 -29.225  1.00  0.00    -0.273 OA
HETATM    6  C   UNL     1      -5.715   3.084 -30.223  1.00  0.00     0.118 C 
ENDROOT
BRANCH   1   7
HETATM    7  C   UNL     1      -5.960   3.520 -32.720  1.00  0.00     0.228 C 
HETATM    8  N   UNL     1      -7.269   3.779 -32.388  1.00  0.00    -0.325 N 
HETATM    9  H   UNL     1      -7.515   3.916 -31.407  1.00  0.00     0.169 HD
HETATM   10  O   UNL     1      -5.528   3.342 -33.856  1.00  0.00    -0.273 OA
BRANCH   8  11
HETATM   11  C   UNL     1      -8.406   3.869 -33.227  1.00  0.00     0.065 A 
HETATM   12  C   UNL     1      -8.746   5.014 -33.955  1.00  0.00     0.038 A 
HETATM   13  C   UNL     1      -9.878   5.021 -34.776  1.00  0.00    -0.059 A 
HETATM   14  C   UNL     1     -10.259   6.254 -35.543  1.00  0.00     0.048 C 
HETATM   15  C   UNL     1     -10.683   3.879 -34.835  1.00  0.00     0.020 A 
HETATM   16  C   UNL     1     -10.349   2.727 -34.103  1.00  0.00    -0.005 A 
HETATM   17  C   UNL     1      -9.196   2.710 -33.293  1.00  0.00     0.093 A 
HETATM   18  C   UNL     1     -11.142   1.572 -34.149  1.00  0.00     0.015 A 
HETATM   19  N   UNL     1      -8.837   1.613 -32.582  1.00  0.00    -0.258 NA
HETATM   20  C   UNL     1      -9.632   0.522 -32.646  1.00  0.00     0.117 A 
HETATM   21  C   UNL     1     -10.782   0.453 -33.407  1.00  0.00     0.020 A 
ENDBRANCH   8  11
ENDBRANCH   1   7
BRANCH   3  22
HETATM   22  C   UNL     1      -3.956  -0.098 -31.122  1.00  0.00     0.164 C 
BRANCH  22  23
HETATM   23  C   UNL     1      -4.525  -0.896 -32.267  1.00  0.00    -0.040 A 
HETATM   24  C   UNL     1      -3.779  -1.927 -32.850  1.00  0.00     0.011 A 
HETATM   25  C   UNL     1      -4.316  -2.686 -33.892  1.00  0.00     0.037 A 
HETATM   26  C   UNL     1      -5.604  -2.434 -34.365  1.00  0.00     0.068 A 
HETATM   27  C   UNL     1      -6.342  -1.386 -33.812  1.00  0.00     0.037 A 
HETATM   28  C   UNL     1      -5.805  -0.622 -32.769  1.00  0.00     0.011 A 
BRANCH  26  29
HETATM   29  O   UNL     1      -6.023  -3.261 -35.370  1.00  0.00    -0.356 OA
HETATM   30  C   UNL     1      -6.624  -4.488 -34.970  1.00  0.00     0.210 C 
ENDBRANCH  26  29
ENDBRANCH  22  23
ENDBRANCH   3  22
TORSDOF 5
ENDMDL
MODEL 3
REMARK VINA RESULT:      -8.1      2.887      7.666
REMARK  5 active torsions:
REMARK  status: ('A' for Active; 'I' for Inactive)
REMARK    1  A    between atoms: C_4  and  N_5 
REMARK       I    between atoms: N_5  and  C_6 
REMARK    2  A    between atoms: C_6  and  C_7 
REMARK    3  A    between atoms: N_9  and  C_10 
REMARK    4  A    between atoms: C_10  and  C_11 
REMARK    5  A    between atoms: C_14  and  O_15 
ROOT
HETATM    1  C   UNL     1      -5.569   2.519 -30.532  1.00  0.00     0.105 C 
HETATM    2  C   UNL     1      -5.167   1.716 -31.756  1.00  0.00     0.140 C 
HETATM    3  N   UNL     1      -6.374   1.688 -32.547  1.00  0.00    -0.347 N 
HETATM    4  C   UNL     1      -7.510   1.883 -31.780  1.00  0.00     0.221 C 
HETATM    5  O   UNL     1      -8.666   1.755 -32.145  1.00  0.00    -0.273 OA
HETATM    6  C   UNL     1      -7.075   2.291 -30.393  1.00  0.00     0.118 C 
ENDROOT
BRANCH   1   7
HETATM    7  C   UNL     1      -5.203   3.993 -30.680  1.00  0.00     0.228 C 
HETATM    8  N   UNL     1      -3.861   4.232 -30.867  1.00  0.00    -0.325 N 
HETATM    9  H   UNL     1      -3.217   3.441 -30.910  1.00  0.00     0.169 HD
HETATM   10  O   UNL     1      -6.082   4.848 -30.616  1.00  0.00    -0.273 OA
BRANCH   8  11
HETATM   11  C   UNL     1      -3.179   5.466 -30.996  1.00  0.00     0.065 A 
HETATM   12  C   UNL     1      -3.162   6.452 -30.004  1.00  0.00     0.038 A 
HETATM   13  C   UNL     1      -2.450   7.640 -30.198  1.00  0.00    -0.059 A 
HETATM   14  C   UNL     1      -2.446   8.710 -29.146  1.00  0.00     0.048 C 
HETATM   15  C   UNL     1      -1.782   7.842 -31.411  1.00  0.00     0.020 A 
HETATM   16  C   UNL     1      -1.798   6.857 -32.412  1.00  0.00    -0.005 A 
HETATM   17  C   UNL     1      -2.495   5.649 -32.209  1.00  0.00     0.093 A 
HETATM   18  C   UNL     1      -1.134   7.040 -33.633  1.00  0.00     0.015 A 
HETATM   19  N   UNL     1      -2.523   4.672 -33.148  1.00  0.00    -0.258 NA
HETATM   20  C   UNL     1      -1.878   4.890 -34.316  1.00  0.00     0.117 A 
HETATM   21  C   UNL     1      -1.177   6.045 -34.602  1.00  0.00     0.020 A 
ENDBRANCH   8  11
ENDBRANCH   1   7
BRANCH   3  22
HETATM   22  C   UNL     1      -6.399   1.207 -33.914  1.00  0.00     0.164 C 
BRANCH  22  23
HETATM   23  C   UNL     1      -6.053  -0.256 -34.030  1.00  0.00    -0.040 A 
HETATM   24  C   UNL     1      -6.996  -1.167 -34.519  1.00  0.00     0.011 A 
HETATM   25  C   UNL     1      -6.668  -2.518 -34.653  1.00  0.00     0.037 A 
HETATM   26  C   UNL     1      -5.397  -2.980 -34.307  1.00  0.00     0.068 A 
HETATM   27  C   UNL     1      -4.463  -2.083 -33.787  1.00  0.00     0.037 A 
HETATM   28  C   UNL     1      -4.790  -0.729 -33.649  1.00  0.00     0.011 A 
BRANCH  26  29
HETATM   29  O   UNL     1      -5.194  -4.317 -34.508  1.00  0.00    -0.356 OA
HETATM   30  C   UNL     1      -3.987  -4.859 -33.985  1.00  0.00     0.210 C 
ENDBRANCH  26  29
ENDBRANCH  22  23
ENDBRANCH   3  22
TORSDOF 5
ENDMDL
MODEL 4
REMARK VINA RESULT:      -8.1      2.494      7.001
REMARK  5 active torsions:
REMARK  status: ('A' for Active; 'I' for Inactive)
REMARK    1  A    between atoms: C_4  and  N_5 
REMARK       I    between atoms: N_5  and  C_6 
REMARK    2  A    between atoms: C_6  and  C_7 
REMARK    3  A    between atoms: N_9  and  C_10 
REMARK    4  A    between atoms: C_10  and  C_11 
REMARK    5  A    between atoms: C_14  and  O_15 
ROOT
HETATM    1  C   UNL     1      -7.320   3.378 -31.045  1.00  0.00     0.105 C 
HETATM    2  C   UNL     1      -6.403   3.203 -32.242  1.00  0.00     0.140 C 
HETATM    3  N   UNL     1      -5.754   1.940 -31.983  1.00  0.00    -0.347 N 
HETATM    4  C   UNL     1      -5.750   1.617 -30.637  1.00  0.00     0.221 C 
HETATM    5  O   UNL     1      -5.143   0.701 -30.110  1.00  0.00    -0.273 OA
HETATM    6  C   UNL     1      -6.640   2.601 -29.917  1.00  0.00     0.118 C 
ENDROOT
BRANCH   1   7
HETATM    7  C   UNL     1      -8.733   2.881 -31.340  1.00  0.00     0.228 C 
HETATM    8  N   UNL     1      -9.050   2.824 -32.677  1.00  0.00    -0.325 N 
HETATM    9  H   UNL     1      -8.347   3.093 -33.366  1.00  0.00     0.169 HD
HETATM   10  O   UNL     1      -9.479   2.581 -30.411  1.00  0.00    -0.273 OA
BRANCH   8  11
HETATM   11  C   UNL     1     -10.270   2.456 -33.295  1.00  0.00     0.065 A 
HETATM   12  C   UNL     1     -10.879   1.208 -33.129  1.00  0.00     0.038 A 
HETATM   13  C   UNL     1     -12.094   0.923 -33.760  1.00  0.00    -0.059 A 
HETATM   14  C   UNL     1     -12.742  -0.422 -33.602  1.00  0.00     0.048 C 
HETATM   15  C   UNL     1     -12.676   1.892 -34.585  1.00  0.00     0.020 A 
HETATM   16  C   UNL     1     -12.067   3.146 -34.759  1.00  0.00    -0.005 A 
HETATM   17  C   UNL     1     -10.854   3.443 -34.104  1.00  0.00     0.093 A 
HETATM   18  C   UNL     1     -12.633   4.130 -35.580  1.00  0.00     0.015 A 
HETATM   19  N   UNL     1     -10.244   4.646 -34.241  1.00  0.00    -0.258 NA
HETATM   20  C   UNL     1     -10.817   5.565 -35.048  1.00  0.00     0.117 A 
HETATM   21  C   UNL     1     -11.999   5.357 -35.732  1.00  0.00     0.020 A 
ENDBRANCH   8  11
ENDBRANCH   1   7
BRANCH   3  22
HETATM   22  C   UNL     1      -4.943   1.264 -32.976  1.00  0.00     0.164 C 
BRANCH  22  23
HETATM   23  C   UNL     1      -5.554  -0.029 -33.453  1.00  0.00    -0.040 A 
HETATM   24  C   UNL     1      -4.737  -1.110 -33.805  1.00  0.00     0.011 A 
HETATM   25  C   UNL     1      -5.302  -2.318 -34.219  1.00  0.00     0.037 A 
HETATM   26  C   UNL     1      -6.688  -2.469 -34.285  1.00  0.00     0.068 A 
HETATM   27  C   UNL     1      -7.509  -1.386 -33.969  1.00  0.00     0.037 A 
HETATM   28  C   UNL     1      -6.945  -0.173 -33.555  1.00  0.00     0.011 A 
BRANCH  26  29
HETATM   29  O   UNL     1      -7.115  -3.706 -34.681  1.00  0.00    -0.356 OA
HETATM   30  C   UNL     1      -6.132  -4.564 -35.249  1.00  0.00     0.210 C 
ENDBRANCH  26  29
ENDBRANCH  22  23
ENDBRANCH   3  22
TORSDOF 5
ENDMDL
MODEL 5
REMARK VINA RESULT:      -8.0      2.424      6.012
REMARK  5 active torsions:
REMARK  status: ('A' for Active; 'I' for Inactive)
REMARK    1  A    between atoms: C_4  and  N_5 
REMARK       I    between atoms: N_5  and  C_6 
REMARK    2  A    between atoms: C_6  and  C_7 
REMARK    3  A    between atoms: N_9  and  C_10 
REMARK    4  A    between atoms: C_10  and  C_11 
REMARK    5  A    between atoms: C_14  and  O_15 
ROOT
HETATM    1  C   UNL     1      -7.254  -0.411 -32.791  1.00  0.00     0.105 C 
HETATM    2  C   UNL     1      -6.692   0.343 -31.599  1.00  0.00     0.140 C 
HETATM    3  N   UNL     1      -5.330   0.616 -31.989  1.00  0.00    -0.347 N 
HETATM    4  C   UNL     1      -4.869  -0.272 -32.946  1.00  0.00     0.221 C 
HETATM    5  O   UNL     1      -3.722  -0.384 -33.344  1.00  0.00    -0.273 OA
HETATM    6  C   UNL     1      -6.041  -1.092 -33.427  1.00  0.00     0.118 C 
ENDROOT
BRANCH   1   7
HETATM    7  C   UNL     1      -7.984   0.521 -33.755  1.00  0.00     0.228 C 
HETATM    8  N   UNL     1      -9.086   1.146 -33.218  1.00  0.00    -0.325 N 
HETATM    9  H   UNL     1      -9.331   0.970 -32.243  1.00  0.00     0.169 HD
HETATM   10  O   UNL     1      -7.575   0.649 -34.906  1.00  0.00    -0.273 OA
BRANCH   8  11
HETATM   11  C   UNL     1     -10.004   2.030 -33.835  1.00  0.00     0.065 A 
HETATM   12  C   UNL     1      -9.663   3.302 -34.305  1.00  0.00     0.038 A 
HETATM   13  C   UNL     1     -10.625   4.112 -34.919  1.00  0.00    -0.059 A 
HETATM   14  C   UNL     1     -10.269   5.486 -35.405  1.00  0.00     0.048 C 
HETATM   15  C   UNL     1     -11.939   3.645 -35.027  1.00  0.00     0.020 A 
HETATM   16  C   UNL     1     -12.289   2.369 -34.554  1.00  0.00    -0.005 A 
HETATM   17  C   UNL     1     -11.316   1.542 -33.957  1.00  0.00     0.093 A 
HETATM   18  C   UNL     1     -13.599   1.882 -34.654  1.00  0.00     0.015 A 
HETATM   19  N   UNL     1     -11.615   0.302 -33.498  1.00  0.00    -0.258 NA
HETATM   20  C   UNL     1     -12.891  -0.128 -33.605  1.00  0.00     0.117 A 
HETATM   21  C   UNL     1     -13.908   0.616 -34.170  1.00  0.00     0.020 A 
ENDBRANCH   8  11
ENDBRANCH   1   7
BRANCH   3  22
HETATM   22  C   UNL     1      -4.470   1.511 -31.240  1.00  0.00     0.164 C 
BRANCH  22  23
HETATM   23  C   UNL     1      -4.129   2.770 -31.996  1.00  0.00    -0.040 A 
HETATM   24  C   UNL     1      -5.049   3.327 -32.891  1.00  0.00     0.011 A 
HETATM   25  C   UNL     1      -4.746   4.509 -33.571  1.00  0.00     0.037 A 
HETATM   26  C   UNL     1      -3.525   5.154 -33.366  1.00  0.00     0.068 A 
HETATM   27  C   UNL     1      -2.589   4.586 -32.501  1.00  0.00     0.037 A 
HETATM   28  C   UNL     1      -2.889   3.401 -31.820  1.00  0.00     0.011 A 
BRANCH  26  29
HETATM   29  O   UNL     1      -3.360   6.314 -34.072  1.00  0.00    -0.356 OA
HETATM   30  C   UNL     1      -2.035   6.828 -34.144  1.00  0.00     0.210 C 
ENDBRANCH  26  29
ENDBRANCH  22  23
ENDBRANCH   3  22
TORSDOF 5
ENDMDL
MODEL 6
REMARK VINA RESULT:      -8.0      1.968      5.055
REMARK  5 active torsions:
REMARK  status: ('A' for Active; 'I' for Inactive)
REMARK    1  A    between atoms: C_4  and  N_5 
REMARK       I    between atoms: N_5  and  C_6 
REMARK    2  A    between atoms: C_6  and  C_7 
REMARK    3  A    between atoms: N_9  and  C_10 
REMARK    4  A    between atoms: C_10  and  C_11 
REMARK    5  A    between atoms: C_14  and  O_15 
ROOT
HETATM    1  C   UNL     1      -3.393   3.822 -31.600  1.00  0.00     0.105 C 
HETATM    2  C   UNL     1      -4.426   4.869 -31.224  1.00  0.00     0.140 C 
HETATM    3  N   UNL     1      -4.991   5.250 -32.496  1.00  0.00    -0.347 N 
HETATM    4  C   UNL     1      -4.132   4.994 -33.551  1.00  0.00     0.221 C 
HETATM    5  O   UNL     1      -4.273   5.352 -34.708  1.00  0.00    -0.273 OA
HETATM    6  C   UNL     1      -2.973   4.182 -33.026  1.00  0.00     0.118 C 
ENDROOT
BRANCH   1   7
HETATM    7  C   UNL     1      -3.955   2.407 -31.486  1.00  0.00     0.228 C 
HETATM    8  N   UNL     1      -3.663   1.590 -32.553  1.00  0.00    -0.325 N 
HETATM    9  H   UNL     1      -3.097   1.957 -33.320  1.00  0.00     0.169 HD
HETATM   10  O   UNL     1      -4.616   2.092 -30.500  1.00  0.00    -0.273 OA
BRANCH   8  11
HETATM   11  C   UNL     1      -4.056   0.251 -32.792  1.00  0.00     0.065 A 
HETATM   12  C   UNL     1      -3.363  -0.861 -32.304  1.00  0.00     0.038 A 
HETATM   13  C   UNL     1      -3.824  -2.155 -32.568  1.00  0.00    -0.059 A 
HETATM   14  C   UNL     1      -3.072  -3.353 -32.065  1.00  0.00     0.048 C 
HETATM   15  C   UNL     1      -4.969  -2.322 -33.355  1.00  0.00     0.020 A 
HETATM   16  C   UNL     1      -5.667  -1.209 -33.851  1.00  0.00    -0.005 A 
HETATM   17  C   UNL     1      -5.218   0.096 -33.565  1.00  0.00     0.093 A 
HETATM   18  C   UNL     1      -6.817  -1.354 -34.639  1.00  0.00     0.015 A 
HETATM   19  N   UNL     1      -5.872   1.194 -34.018  1.00  0.00    -0.258 NA
HETATM   20  C   UNL     1      -6.972   1.012 -34.783  1.00  0.00     0.117 A 
HETATM   21  C   UNL     1      -7.478  -0.229 -35.117  1.00  0.00     0.020 A 
ENDBRANCH   8  11
ENDBRANCH   1   7
BRANCH   3  22
HETATM   22  C   UNL     1      -6.176   6.078 -32.605  1.00  0.00     0.164 C 
BRANCH  22  23
HETATM   23  C   UNL     1      -7.454   5.278 -32.611  1.00  0.00    -0.040 A 
HETATM   24  C   UNL     1      -7.896   4.660 -33.786  1.00  0.00     0.011 A 
HETATM   25  C   UNL     1      -9.064   3.895 -33.787  1.00  0.00     0.037 A 
HETATM   26  C   UNL     1      -9.807   3.731 -32.616  1.00  0.00     0.068 A 
HETATM   27  C   UNL     1      -9.391   4.371 -31.448  1.00  0.00     0.037 A 
HETATM   28  C   UNL     1      -8.222   5.140 -31.446  1.00  0.00     0.011 A 
BRANCH  26  29
HETATM   29  O   UNL     1     -10.915   2.939 -32.742  1.00  0.00    -0.356 OA
HETATM   30  C   UNL     1     -10.834   1.885 -33.694  1.00  0.00     0.210 C 
ENDBRANCH  26  29
ENDBRANCH  22  23
ENDBRANCH   3  22
TORSDOF 5
ENDMDL
MODEL 7
REMARK VINA RESULT:      -8.0      4.288      6.748
REMARK  5 active torsions:
REMARK  status: ('A' for Active; 'I' for Inactive)
REMARK    1  A    between atoms: C_4  and  N_5 
REMARK       I    between atoms: N_5  and  C_6 
REMARK    2  A    between atoms: C_6  and  C_7 
REMARK    3  A    between atoms: N_9  and  C_10 
REMARK    4  A    between atoms: C_10  and  C_11 
REMARK    5  A    between atoms: C_14  and  O_15 
ROOT
HETATM    1  C   UNL     1      -2.102   4.448 -32.664  1.00  0.00     0.105 C 
HETATM    2  C   UNL     1      -1.891   5.286 -31.416  1.00  0.00     0.140 C 
HETATM    3  N   UNL     1      -1.960   6.641 -31.909  1.00  0.00    -0.347 N 
HETATM    4  C   UNL     1      -1.664   6.724 -33.259  1.00  0.00     0.221 C 
HETATM    5  O   UNL     1      -1.491   7.744 -33.904  1.00  0.00    -0.273 OA
HETATM    6  C   UNL     1      -1.593   5.321 -33.811  1.00  0.00     0.118 C 
ENDROOT
BRANCH   1   7
HETATM    7  C   UNL     1      -3.564   4.042 -32.830  1.00  0.00     0.228 C 
HETATM    8  N   UNL     1      -3.996   3.085 -31.943  1.00  0.00    -0.325 N 
HETATM    9  H   UNL     1      -3.344   2.726 -31.243  1.00  0.00     0.169 HD
HETATM   10  O   UNL     1      -4.243   4.561 -33.713  1.00  0.00    -0.273 OA
BRANCH   8  11
HETATM   11  C   UNL     1      -5.261   2.458 -31.844  1.00  0.00     0.065 A 
HETATM   12  C   UNL     1      -6.385   3.062 -31.270  1.00  0.00     0.038 A 
HETATM   13  C   UNL     1      -7.607   2.384 -31.224  1.00  0.00    -0.059 A 
HETATM   14  C   UNL     1      -8.811   3.020 -30.591  1.00  0.00     0.048 C 
HETATM   15  C   UNL     1      -7.683   1.082 -31.729  1.00  0.00     0.020 A 
HETATM   16  C   UNL     1      -6.557   0.468 -32.303  1.00  0.00    -0.005 A 
HETATM   17  C   UNL     1      -5.330   1.159 -32.372  1.00  0.00     0.093 A 
HETATM   18  C   UNL     1      -6.612  -0.835 -32.816  1.00  0.00     0.015 A 
HETATM   19  N   UNL     1      -4.226   0.602 -32.928  1.00  0.00    -0.258 NA
HETATM   20  C   UNL     1      -4.317  -0.660 -33.403  1.00  0.00     0.117 A 
HETATM   21  C   UNL     1      -5.476  -1.411 -33.371  1.00  0.00     0.020 A 
ENDBRANCH   8  11
ENDBRANCH   1   7
BRANCH   3  22
HETATM   22  C   UNL     1      -2.025   7.788 -31.026  1.00  0.00     0.164 C 
BRANCH  22  23
HETATM   23  C   UNL     1      -1.273   7.581 -29.736  1.00  0.00    -0.040 A 
HETATM   24  C   UNL     1       0.123   7.494 -29.738  1.00  0.00     0.011 A 
HETATM   25  C   UNL     1       0.824   7.332 -28.541  1.00  0.00     0.037 A 
HETATM   26  C   UNL     1       0.144   7.258 -27.324  1.00  0.00     0.068 A 
HETATM   27  C   UNL     1      -1.250   7.310 -27.317  1.00  0.00     0.037 A 
HETATM   28  C   UNL     1      -1.955   7.471 -28.516  1.00  0.00     0.011 A 
BRANCH  26  29
HETATM   29  O   UNL     1       0.944   7.124 -26.224  1.00  0.00    -0.356 OA
HETATM   30  C   UNL     1       1.827   8.205 -25.947  1.00  0.00     0.210 C 
ENDBRANCH  26  29
ENDBRANCH  22  23
ENDBRANCH   3  22
TORSDOF 5
ENDMDL
MODEL 8
REMARK VINA RESULT:      -8.0      1.898      2.437
REMARK  5 active torsions:
REMARK  status: ('A' for Active; 'I' for Inactive)
REMARK    1  A    between atoms: C_4  and  N_5 
REMARK       I    between atoms: N_5  and  C_6 
REMARK    2  A    between atoms: C_6  and  C_7 
REMARK    3  A    between atoms: N_9  and  C_10 
REMARK    4  A    between atoms: C_10  and  C_11 
REMARK    5  A    between atoms: C_14  and  O_15 
ROOT
HETATM    1  C   UNL     1     -10.922   1.907 -34.062  1.00  0.00     0.105 C 
HETATM    2  C   UNL     1     -10.159   2.980 -34.819  1.00  0.00     0.140 C 
HETATM    3  N   UNL     1      -9.908   3.983 -33.812  1.00  0.00    -0.347 N 
HETATM    4  C   UNL     1     -10.813   3.917 -32.767  1.00  0.00     0.221 C 
HETATM    5  O   UNL     1     -10.944   4.726 -31.864  1.00  0.00    -0.273 OA
HETATM    6  C   UNL     1     -11.625   2.655 -32.929  1.00  0.00     0.118 C 
ENDROOT
BRANCH   1   7
HETATM    7  C   UNL     1      -9.994   0.805 -33.559  1.00  0.00     0.228 C 
HETATM    8  N   UNL     1      -8.668   0.985 -33.877  1.00  0.00    -0.325 N 
HETATM    9  H   UNL     1      -8.391   1.818 -34.398  1.00  0.00     0.169 HD
HETATM   10  O   UNL     1     -10.459  -0.145 -32.933  1.00  0.00    -0.273 OA
BRANCH   8  11
HETATM   11  C   UNL     1      -7.559   0.147 -33.609  1.00  0.00     0.065 A 
HETATM   12  C   UNL     1      -7.164  -0.908 -34.437  1.00  0.00     0.038 A 
HETATM   13  C   UNL     1      -6.044  -1.682 -34.113  1.00  0.00    -0.059 A 
HETATM   14  C   UNL     1      -5.628  -2.829 -34.986  1.00  0.00     0.048 C 
HETATM   15  C   UNL     1      -5.345  -1.407 -32.933  1.00  0.00     0.020 A 
HETATM   16  C   UNL     1      -5.740  -0.350 -32.095  1.00  0.00    -0.005 A 
HETATM   17  C   UNL     1      -6.853   0.446 -32.432  1.00  0.00     0.093 A 
HETATM   18  C   UNL     1      -5.052  -0.057 -30.909  1.00  0.00     0.015 A 
HETATM   19  N   UNL     1      -7.255   1.480 -31.653  1.00  0.00    -0.258 NA
HETATM   20  C   UNL     1      -6.572   1.725 -30.513  1.00  0.00     0.117 A 
HETATM   21  C   UNL     1      -5.475   0.993 -30.103  1.00  0.00     0.020 A 
ENDBRANCH   8  11
ENDBRANCH   1   7
BRANCH   3  22
HETATM   22  C   UNL     1      -9.014   5.102 -34.034  1.00  0.00     0.164 C 
BRANCH  22  23
HETATM   23  C   UNL     1      -7.677   4.931 -33.359  1.00  0.00    -0.040 A 
HETATM   24  C   UNL     1      -6.669   4.177 -33.970  1.00  0.00     0.011 A 
HETATM   25  C   UNL     1      -5.420   4.041 -33.360  1.00  0.00     0.037 A 
HETATM   26  C   UNL     1      -5.156   4.657 -32.136  1.00  0.00     0.068 A 
HETATM   27  C   UNL     1      -6.167   5.382 -31.504  1.00  0.00     0.037 A 
HETATM   28  C   UNL     1      -7.420   5.518 -32.113  1.00  0.00     0.011 A 
BRANCH  26  29
HETATM   29  O   UNL     1      -3.890   4.468 -31.656  1.00  0.00    -0.356 OA
HETATM   30  C   UNL     1      -3.217   3.292 -32.091  1.00  0.00     0.210 C 
ENDBRANCH  26  29
ENDBRANCH  22  23
ENDBRANCH   3  22
TORSDOF 5
ENDMDL
MODEL 9
REMARK VINA RESULT:      -7.9      2.894      7.018
REMARK  5 active torsions:
REMARK  status: ('A' for Active; 'I' for Inactive)
REMARK    1  A    between atoms: C_4  and  N_5 
REMARK       I    between atoms: N_5  and  C_6 
REMARK    2  A    between atoms: C_6  and  C_7 
REMARK    3  A    between atoms: N_9  and  C_10 
REMARK    4  A    between atoms: C_10  and  C_11 
REMARK    5  A    between atoms: C_14  and  O_15 
ROOT
HETATM    1  C   UNL     1      -6.875   4.132 -30.709  1.00  0.00     0.105 C 
HETATM    2  C   UNL     1      -7.387   2.773 -30.269  1.00  0.00     0.140 C 
HETATM    3  N   UNL     1      -7.935   2.215 -31.482  1.00  0.00    -0.347 N 
HETATM    4  C   UNL     1      -8.286   3.192 -32.398  1.00  0.00     0.221 C 
HETATM    5  O   UNL     1      -8.911   3.030 -33.433  1.00  0.00    -0.273 OA
HETATM    6  C   UNL     1      -7.756   4.514 -31.899  1.00  0.00     0.118 C 
ENDROOT
BRANCH   1   7
HETATM    7  C   UNL     1      -5.390   4.090 -31.059  1.00  0.00     0.228 C 
HETATM    8  N   UNL     1      -4.886   5.272 -31.550  1.00  0.00    -0.325 N 
HETATM    9  H   UNL     1      -5.505   6.079 -31.634  1.00  0.00     0.169 HD
HETATM   10  O   UNL     1      -4.756   3.050 -30.900  1.00  0.00    -0.273 OA
BRANCH   8  11
HETATM   11  C   UNL     1      -3.580   5.569 -32.007  1.00  0.00     0.065 A 
HETATM   12  C   UNL     1      -3.097   5.207 -33.269  1.00  0.00     0.038 A 
HETATM   13  C   UNL     1      -1.798   5.551 -33.656  1.00  0.00    -0.059 A 
HETATM   14  C   UNL     1      -1.268   5.146 -35.001  1.00  0.00     0.048 C 
HETATM   15  C   UNL     1      -0.977   6.234 -32.753  1.00  0.00     0.020 A 
HETATM   16  C   UNL     1      -1.455   6.597 -31.482  1.00  0.00    -0.005 A 
HETATM   17  C   UNL     1      -2.772   6.272 -31.099  1.00  0.00     0.093 A 
HETATM   18  C   UNL     1      -0.649   7.282 -30.563  1.00  0.00     0.015 A 
HETATM   19  N   UNL     1      -3.269   6.616 -29.886  1.00  0.00    -0.258 NA
HETATM   20  C   UNL     1      -2.459   7.268 -29.024  1.00  0.00     0.117 A 
HETATM   21  C   UNL     1      -1.155   7.620 -29.313  1.00  0.00     0.020 A 
ENDBRANCH   8  11
ENDBRANCH   1   7
BRANCH   3  22
HETATM   22  C   UNL     1      -8.347   0.829 -31.586  1.00  0.00     0.164 C 
BRANCH  22  23
HETATM   23  C   UNL     1      -7.417   0.000 -32.435  1.00  0.00    -0.040 A 
HETATM   24  C   UNL     1      -6.148  -0.349 -31.959  1.00  0.00     0.011 A 
HETATM   25  C   UNL     1      -5.297  -1.140 -32.732  1.00  0.00     0.037 A 
HETATM   26  C   UNL     1      -5.697  -1.599 -33.988  1.00  0.00     0.068 A 
HETATM   27  C   UNL     1      -6.948  -1.227 -34.483  1.00  0.00     0.037 A 
HETATM   28  C   UNL     1      -7.803  -0.433 -33.711  1.00  0.00     0.011 A 
BRANCH  26  29
HETATM   29  O   UNL     1      -4.784  -2.385 -34.634  1.00  0.00    -0.356 OA
HETATM   30  C   UNL     1      -4.105  -3.350 -33.839  1.00  0.00     0.210 C 
ENDBRANCH  26  29
ENDBRANCH  22  23
ENDBRANCH   3  22
TORSDOF 5
ENDMDL
MODEL 10
REMARK VINA RESULT:      -7.8      2.447      3.608
REMARK  5 active torsions:
REMARK  status: ('A' for Active; 'I' for Inactive)
REMARK    1  A    between atoms: C_4  and  N_5 
REMARK       I    between atoms: N_5  and  C_6 
REMARK    2  A    between atoms: C_6  and  C_7 
REMARK    3  A    between atoms: N_9  and  C_10 
REMARK    4  A    between atoms: C_10  and  C_11 
REMARK    5  A    between atoms: C_14  and  O_15 
ROOT
HETATM    1  C   UNL     1     -10.703   1.882 -34.640  1.00  0.00     0.105 C 
HETATM    2  C   UNL     1     -10.466   3.265 -34.060  1.00  0.00     0.140 C 
HETATM    3  N   UNL     1     -11.411   3.335 -32.971  1.00  0.00    -0.347 N 
HETATM    4  C   UNL     1     -12.475   2.467 -33.142  1.00  0.00     0.221 C 
HETATM    5  O   UNL     1     -13.493   2.422 -32.472  1.00  0.00    -0.273 OA
HETATM    6  C   UNL     1     -12.163   1.566 -34.312  1.00  0.00     0.118 C 
ENDROOT
BRANCH   1   7
HETATM    7  C   UNL     1      -9.730   0.855 -34.065  1.00  0.00     0.228 C 
HETATM    8  N   UNL     1      -8.480   0.870 -34.639  1.00  0.00    -0.325 N 
HETATM    9  H   UNL     1      -8.280   1.548 -35.375  1.00  0.00     0.169 HD
HETATM   10  O   UNL     1     -10.101   0.100 -33.170  1.00  0.00    -0.273 OA
BRANCH   8  11
HETATM   11  C   UNL     1      -7.365   0.037 -34.381  1.00  0.00     0.065 A 
HETATM   12  C   UNL     1      -7.266  -1.288 -34.819  1.00  0.00     0.038 A 
HETATM   13  C   UNL     1      -6.123  -2.043 -34.538  1.00  0.00    -0.059 A 
HETATM   14  C   UNL     1      -6.021  -3.472 -34.987  1.00  0.00     0.048 C 
HETATM   15  C   UNL     1      -5.093  -1.466 -33.787  1.00  0.00     0.020 A 
HETATM   16  C   UNL     1      -5.188  -0.137 -33.342  1.00  0.00    -0.005 A 
HETATM   17  C   UNL     1      -6.329   0.633 -33.644  1.00  0.00     0.093 A 
HETATM   18  C   UNL     1      -4.168   0.460 -32.588  1.00  0.00     0.015 A 
HETATM   19  N   UNL     1      -6.450   1.921 -33.239  1.00  0.00    -0.258 NA
HETATM   20  C   UNL     1      -5.449   2.458 -32.508  1.00  0.00     0.117 A 
HETATM   21  C   UNL     1      -4.299   1.775 -32.161  1.00  0.00     0.020 A 
ENDBRANCH   8  11
ENDBRANCH   1   7
BRANCH   3  22
HETATM   22  C   UNL     1     -11.392   4.405 -31.993  1.00  0.00     0.164 C 
BRANCH  22  23
HETATM   23  C   UNL     1     -10.085   4.497 -31.248  1.00  0.00    -0.040 A 
HETATM   24  C   UNL     1      -9.524   3.357 -30.661  1.00  0.00     0.011 A 
HETATM   25  C   UNL     1      -8.299   3.435 -29.995  1.00  0.00     0.037 A 
HETATM   26  C   UNL     1      -7.613   4.648 -29.908  1.00  0.00     0.068 A 
HETATM   27  C   UNL     1      -8.182   5.796 -30.461  1.00  0.00     0.037 A 
HETATM   28  C   UNL     1      -9.411   5.720 -31.127  1.00  0.00     0.011 A 
BRANCH  26  29
HETATM   29  O   UNL     1      -6.415   4.587 -29.253  1.00  0.00    -0.356 OA
HETATM   30  C   UNL     1      -5.309   5.210 -29.896  1.00  0.00     0.210 C 
ENDBRANCH  26  29
ENDBRANCH  22  23
ENDBRANCH   3  22
TORSDOF 5
ENDMDL
