MODEL 1
REMARK VINA RESULT:      -9.7      0.000      0.000
REMARK  2 active torsions:
REMARK  status: ('A' for Active; 'I' for Inactive)
REMARK    1  A    between atoms: C_2  and  C_3 
REMARK    2  A    between atoms: C_3  and  C_4 
ROOT
HETATM    1  C   UNL     1      -7.949   1.352 -33.193  1.00  0.00     0.085 A 
HETATM    2  S   UNL     1      -6.788   1.204 -31.938  1.00  0.00    -0.063 SA
HETATM    3  C   UNL     1      -5.997  -0.077 -32.723  1.00  0.00     0.111 A 
HETATM    4  C   UNL     1      -6.568  -0.394 -33.946  1.00  0.00     0.028 A 
HETATM    5  C   UNL     1      -7.685   0.466 -34.224  1.00  0.00     0.060 A 
HETATM    6  N   UNL     1      -8.385   0.400 -35.383  1.00  0.00    -0.397 N 
HETATM    7  N   UNL     1      -4.931  -0.672 -32.153  1.00  0.00    -0.245 NA
HETATM    8  C   UNL     1      -4.379  -1.678 -32.867  1.00  0.00     0.042 A 
HETATM    9  C   UNL     1      -4.854  -2.111 -34.108  1.00  0.00    -0.033 A 
HETATM   10  C   UNL     1      -4.216  -3.249 -34.861  1.00  0.00     0.040 C 
HETATM   11  C   UNL     1      -4.321  -4.585 -34.125  1.00  0.00     0.005 C 
HETATM   12  C   UNL     1      -3.286  -4.762 -33.013  1.00  0.00     0.001 C 
HETATM   13  C   UNL     1      -3.429  -3.790 -31.842  1.00  0.00     0.006 C 
HETATM   14  C   UNL     1      -3.181  -2.331 -32.220  1.00  0.00     0.060 C 
HETATM   15  C   UNL     1      -5.963  -1.451 -34.658  1.00  0.00     0.026 A 
HETATM   16  H   UNL     1      -8.038  -0.142 -36.170  1.00  0.00     0.156 HD
HETATM   17  H   UNL     1      -9.007   1.148 -35.685  1.00  0.00     0.156 HD
ENDROOT
BRANCH   1  18
HETATM   18  C   UNL     1      -8.990   2.352 -33.033  1.00  0.00     0.201 C 
HETATM   19  O   UNL     1      -8.818   3.428 -32.461  1.00  0.00    -0.286 OA
BRANCH  18  20
HETATM   20  C   UNL     1     -10.354   2.093 -33.583  1.00  0.00     0.018 A 
HETATM   21  C   UNL     1     -10.871   2.992 -34.545  1.00  0.00     0.018 A 
HETATM   22  C   UNL     1     -12.145   2.805 -35.092  1.00  0.00     0.040 A 
HETATM   23  C   UNL     1     -12.876   1.725 -34.649  1.00  0.00     0.105 A 
HETATM   24  C   UNL     1     -12.386   0.857 -33.700  1.00  0.00     0.106 A 
HETATM   25  O   UNL     1     -14.126   1.388 -35.065  1.00  0.00    -0.323 OA
HETATM   26  C   UNL     1     -11.134   1.013 -33.142  1.00  0.00     0.055 A 
HETATM   27  O   UNL     1     -13.269  -0.133 -33.400  1.00  0.00    -0.323 OA
HETATM   28  C   UNL     1     -14.373   0.214 -34.262  1.00  0.00     0.352 A 
ENDBRANCH  18  20
ENDBRANCH   1  18
TORSDOF 2
ENDMDL
MODEL 2
REMARK VINA RESULT:      -9.2      4.115      6.506
REMARK  2 active torsions:
REMARK  status: ('A' for Active; 'I' for Inactive)
REMARK    1  A    between atoms: C_2  and  C_3 
REMARK    2  A    between atoms: C_3  and  C_4 
ROOT
HETATM    1  C   UNL     1      -5.882   2.115 -32.467  1.00  0.00     0.085 A 
HETATM    2  S   UNL     1      -4.358   1.336 -32.338  1.00  0.00    -0.063 SA
HETATM    3  C   UNL     1      -4.892  -0.011 -33.225  1.00  0.00     0.111 A 
HETATM    4  C   UNL     1      -6.203   0.114 -33.656  1.00  0.00     0.028 A 
HETATM    5  C   UNL     1      -6.760   1.371 -33.236  1.00  0.00     0.060 A 
HETATM    6  N   UNL     1      -8.013   1.763 -33.574  1.00  0.00    -0.397 N 
HETATM    7  N   UNL     1      -4.066  -1.051 -33.446  1.00  0.00    -0.245 NA
HETATM    8  C   UNL     1      -4.595  -2.067 -34.166  1.00  0.00     0.042 A 
HETATM    9  C   UNL     1      -5.903  -2.083 -34.656  1.00  0.00    -0.033 A 
HETATM   10  C   UNL     1      -6.456  -3.244 -35.439  1.00  0.00     0.040 C 
HETATM   11  C   UNL     1      -6.528  -4.534 -34.622  1.00  0.00     0.005 C 
HETATM   12  C   UNL     1      -5.193  -5.269 -34.505  1.00  0.00     0.001 C 
HETATM   13  C   UNL     1      -4.110  -4.515 -33.733  1.00  0.00     0.006 C 
HETATM   14  C   UNL     1      -3.657  -3.225 -34.412  1.00  0.00     0.060 C 
HETATM   15  C   UNL     1      -6.717  -0.968 -34.402  1.00  0.00     0.026 A 
HETATM   16  H   UNL     1      -8.541   1.260 -34.282  1.00  0.00     0.156 HD
HETATM   17  H   UNL     1      -8.320   2.729 -33.490  1.00  0.00     0.156 HD
ENDROOT
BRANCH   1  18
HETATM   18  C   UNL     1      -6.039   3.400 -31.809  1.00  0.00     0.201 C 
HETATM   19  O   UNL     1      -7.021   3.702 -31.131  1.00  0.00    -0.286 OA
BRANCH  18  20
HETATM   20  C   UNL     1      -4.969   4.434 -31.941  1.00  0.00     0.018 A 
HETATM   21  C   UNL     1      -4.436   5.000 -30.759  1.00  0.00     0.018 A 
HETATM   22  C   UNL     1      -3.436   5.977 -30.819  1.00  0.00     0.040 A 
HETATM   23  C   UNL     1      -3.004   6.371 -32.066  1.00  0.00     0.105 A 
HETATM   24  C   UNL     1      -3.531   5.836 -33.219  1.00  0.00     0.106 A 
HETATM   25  O   UNL     1      -2.046   7.303 -32.317  1.00  0.00    -0.323 OA
HETATM   26  C   UNL     1      -4.517   4.872 -33.195  1.00  0.00     0.055 A 
HETATM   27  O   UNL     1      -2.971   6.368 -34.339  1.00  0.00    -0.323 OA
HETATM   28  C   UNL     1      -2.037   7.303 -33.760  1.00  0.00     0.352 A 
ENDBRANCH  18  20
ENDBRANCH   1  18
TORSDOF 2
ENDMDL
MODEL 3
REMARK VINA RESULT:      -8.9      6.469      9.313
REMARK  2 active torsions:
REMARK  status: ('A' for Active; 'I' for Inactive)
REMARK    1  A    between atoms: C_2  and  C_3 
REMARK    2  A    between atoms: C_3  and  C_4 
ROOT
HETATM    1  C   UNL     1      -3.283   5.180 -32.903  1.00  0.00     0.085 A 
HETATM    2  S   UNL     1      -4.621   5.222 -33.976  1.00  0.00    -0.063 SA
HETATM    3  C   UNL     1      -5.088   3.641 -33.569  1.00  0.00     0.111 A 
HETATM    4  C   UNL     1      -4.273   3.070 -32.605  1.00  0.00     0.028 A 
HETATM    5  C   UNL     1      -3.242   3.988 -32.201  1.00  0.00     0.060 A 
HETATM    6  N   UNL     1      -2.344   3.694 -31.230  1.00  0.00    -0.397 N 
HETATM    7  N   UNL     1      -6.154   3.071 -34.163  1.00  0.00    -0.245 NA
HETATM    8  C   UNL     1      -6.436   1.811 -33.761  1.00  0.00     0.042 A 
HETATM    9  C   UNL     1      -5.696   1.109 -32.806  1.00  0.00    -0.033 A 
HETATM   10  C   UNL     1      -6.038  -0.301 -32.400  1.00  0.00     0.040 C 
HETATM   11  C   UNL     1      -5.897  -1.303 -33.546  1.00  0.00     0.005 C 
HETATM   12  C   UNL     1      -7.082  -1.310 -34.512  1.00  0.00     0.001 C 
HETATM   13  C   UNL     1      -7.277  -0.015 -35.301  1.00  0.00     0.006 C 
HETATM   14  C   UNL     1      -7.637   1.186 -34.430  1.00  0.00     0.060 C 
HETATM   15  C   UNL     1      -4.600   1.754 -32.214  1.00  0.00     0.026 A 
HETATM   16  H   UNL     1      -2.473   2.882 -30.631  1.00  0.00     0.156 HD
HETATM   17  H   UNL     1      -1.779   4.410 -30.777  1.00  0.00     0.156 HD
ENDROOT
BRANCH   1  18
HETATM   18  C   UNL     1      -2.423   6.350 -32.852  1.00  0.00     0.201 C 
HETATM   19  O   UNL     1      -2.231   7.095 -33.812  1.00  0.00    -0.286 OA
BRANCH  18  20
HETATM   20  C   UNL     1      -1.721   6.697 -31.580  1.00  0.00     0.018 A 
HETATM   21  C   UNL     1      -0.309   6.617 -31.552  1.00  0.00     0.018 A 
HETATM   22  C   UNL     1       0.403   6.924 -30.388  1.00  0.00     0.040 A 
HETATM   23  C   UNL     1      -0.320   7.291 -29.275  1.00  0.00     0.105 A 
HETATM   24  C   UNL     1      -1.695   7.353 -29.292  1.00  0.00     0.106 A 
HETATM   25  O   UNL     1       0.199   7.622 -28.063  1.00  0.00    -0.323 OA
HETATM   26  C   UNL     1      -2.428   7.057 -30.423  1.00  0.00     0.055 A 
HETATM   27  O   UNL     1      -2.210   7.729 -28.090  1.00  0.00    -0.323 OA
HETATM   28  C   UNL     1      -1.005   7.889 -27.313  1.00  0.00     0.352 A 
ENDBRANCH  18  20
ENDBRANCH   1  18
TORSDOF 2
ENDMDL
MODEL 4
REMARK VINA RESULT:      -8.8      4.551      6.992
REMARK  2 active torsions:
REMARK  status: ('A' for Active; 'I' for Inactive)
REMARK    1  A    between atoms: C_2  and  C_3 
REMARK    2  A    between atoms: C_3  and  C_4 
ROOT
HETATM    1  C   UNL     1      -5.930   2.950 -33.548  1.00  0.00     0.085 A 
HETATM    2  S   UNL     1      -7.158   2.018 -34.301  1.00  0.00    -0.063 SA
HETATM    3  C   UNL     1      -6.398   0.556 -33.891  1.00  0.00     0.111 A 
HETATM    4  C   UNL     1      -5.235   0.739 -33.159  1.00  0.00     0.028 A 
HETATM    5  C   UNL     1      -4.988   2.139 -32.938  1.00  0.00     0.060 A 
HETATM    6  N   UNL     1      -3.942   2.587 -32.203  1.00  0.00    -0.397 N 
HETATM    7  N   UNL     1      -6.934  -0.621 -34.270  1.00  0.00    -0.245 NA
HETATM    8  C   UNL     1      -6.246  -1.720 -33.886  1.00  0.00     0.042 A 
HETATM    9  C   UNL     1      -5.056  -1.686 -33.156  1.00  0.00    -0.033 A 
HETATM   10  C   UNL     1      -4.315  -2.937 -32.764  1.00  0.00     0.040 C 
HETATM   11  C   UNL     1      -3.794  -3.723 -33.967  1.00  0.00     0.005 C 
HETATM   12  C   UNL     1      -4.856  -4.584 -34.651  1.00  0.00     0.001 C 
HETATM   13  C   UNL     1      -5.994  -3.803 -35.305  1.00  0.00     0.006 C 
HETATM   14  C   UNL     1      -6.861  -3.032 -34.312  1.00  0.00     0.060 C 
HETATM   15  C   UNL     1      -4.547  -0.433 -32.780  1.00  0.00     0.026 A 
HETATM   16  H   UNL     1      -3.392   1.947 -31.637  1.00  0.00     0.156 HD
HETATM   17  H   UNL     1      -3.898   3.539 -31.846  1.00  0.00     0.156 HD
ENDROOT
BRANCH   1  18
HETATM   18  C   UNL     1      -6.042   4.397 -33.620  1.00  0.00     0.201 C 
HETATM   19  O   UNL     1      -7.118   4.994 -33.658  1.00  0.00    -0.286 OA
BRANCH  18  20
HETATM   20  C   UNL     1      -4.806   5.234 -33.650  1.00  0.00     0.018 A 
HETATM   21  C   UNL     1      -3.932   5.098 -34.754  1.00  0.00     0.018 A 
HETATM   22  C   UNL     1      -2.756   5.852 -34.834  1.00  0.00     0.040 A 
HETATM   23  C   UNL     1      -2.480   6.715 -33.798  1.00  0.00     0.105 A 
HETATM   24  C   UNL     1      -3.318   6.838 -32.713  1.00  0.00     0.106 A 
HETATM   25  O   UNL     1      -1.389   7.521 -33.705  1.00  0.00    -0.323 OA
HETATM   26  C   UNL     1      -4.484   6.111 -32.603  1.00  0.00     0.055 A 
HETATM   27  O   UNL     1      -2.855   7.737 -31.802  1.00  0.00    -0.323 OA
HETATM   28  C   UNL     1      -1.628   8.160 -32.433  1.00  0.00     0.352 A 
ENDBRANCH  18  20
ENDBRANCH   1  18
TORSDOF 2
ENDMDL
MODEL 5
REMARK VINA RESULT:      -8.8      1.825      2.288
REMARK  2 active torsions:
REMARK  status: ('A' for Active; 'I' for Inactive)
REMARK    1  A    between atoms: C_2  and  C_3 
REMARK    2  A    between atoms: C_3  and  C_4 
ROOT
HETATM    1  C   UNL     1      -8.073   1.394 -32.197  1.00  0.00     0.085 A 
HETATM    2  S   UNL     1      -6.704   1.185 -31.183  1.00  0.00    -0.063 SA
HETATM    3  C   UNL     1      -6.056  -0.022 -32.187  1.00  0.00     0.111 A 
HETATM    4  C   UNL     1      -6.834  -0.265 -33.308  1.00  0.00     0.028 A 
HETATM    5  C   UNL     1      -7.991   0.588 -33.320  1.00  0.00     0.060 A 
HETATM    6  N   UNL     1      -8.887   0.587 -34.336  1.00  0.00    -0.397 N 
HETATM    7  N   UNL     1      -4.900  -0.631 -31.861  1.00  0.00    -0.245 NA
HETATM    8  C   UNL     1      -4.477  -1.574 -32.733  1.00  0.00     0.042 A 
HETATM    9  C   UNL     1      -5.163  -1.930 -33.897  1.00  0.00    -0.033 A 
HETATM   10  C   UNL     1      -4.662  -3.000 -34.832  1.00  0.00     0.040 C 
HETATM   11  C   UNL     1      -4.620  -4.385 -34.187  1.00  0.00     0.005 C 
HETATM   12  C   UNL     1      -3.402  -4.616 -33.293  1.00  0.00     0.001 C 
HETATM   13  C   UNL     1      -3.339  -3.731 -32.049  1.00  0.00     0.006 C 
HETATM   14  C   UNL     1      -3.177  -2.245 -32.359  1.00  0.00     0.060 C 
HETATM   15  C   UNL     1      -6.358  -1.258 -34.191  1.00  0.00     0.026 A 
HETATM   16  H   UNL     1      -8.683   0.109 -35.209  1.00  0.00     0.156 HD
HETATM   17  H   UNL     1      -9.559   1.341 -34.468  1.00  0.00     0.156 HD
ENDROOT
BRANCH   1  18
HETATM   18  C   UNL     1      -9.077   2.359 -31.782  1.00  0.00     0.201 C 
HETATM   19  O   UNL     1      -9.441   2.502 -30.615  1.00  0.00    -0.286 OA
BRANCH  18  20
HETATM   20  C   UNL     1      -9.721   3.240 -32.801  1.00  0.00     0.018 A 
HETATM   21  C   UNL     1      -8.916   4.196 -33.464  1.00  0.00     0.018 A 
HETATM   22  C   UNL     1      -9.464   5.053 -34.424  1.00  0.00     0.040 A 
HETATM   23  C   UNL     1     -10.811   4.939 -34.687  1.00  0.00     0.105 A 
HETATM   24  C   UNL     1     -11.602   4.023 -34.032  1.00  0.00     0.106 A 
HETATM   25  O   UNL     1     -11.512   5.685 -35.582  1.00  0.00    -0.323 OA
HETATM   26  C   UNL     1     -11.093   3.163 -33.080  1.00  0.00     0.055 A 
HETATM   27  O   UNL     1     -12.901   4.081 -34.434  1.00  0.00    -0.323 OA
HETATM   28  C   UNL     1     -12.838   5.142 -35.409  1.00  0.00     0.352 A 
ENDBRANCH  18  20
ENDBRANCH   1  18
TORSDOF 2
ENDMDL
MODEL 6
REMARK VINA RESULT:      -8.7      5.874      7.775
REMARK  2 active torsions:
REMARK  status: ('A' for Active; 'I' for Inactive)
REMARK    1  A    between atoms: C_2  and  C_3 
REMARK    2  A    between atoms: C_3  and  C_4 
ROOT
HETATM    1  C   UNL     1      -5.854   4.107 -33.111  1.00  0.00     0.085 A 
HETATM    2  S   UNL     1      -5.853   4.422 -31.424  1.00  0.00    -0.063 SA
HETATM    3  C   UNL     1      -4.410   5.313 -31.520  1.00  0.00     0.111 A 
HETATM    4  C   UNL     1      -3.925   5.415 -32.814  1.00  0.00     0.028 A 
HETATM    5  C   UNL     1      -4.791   4.735 -33.738  1.00  0.00     0.060 A 
HETATM    6  N   UNL     1      -4.571   4.730 -35.075  1.00  0.00    -0.397 N 
HETATM    7  N   UNL     1      -3.858   5.837 -30.409  1.00  0.00    -0.245 NA
HETATM    8  C   UNL     1      -2.712   6.529 -30.602  1.00  0.00     0.042 A 
HETATM    9  C   UNL     1      -2.103   6.704 -31.847  1.00  0.00    -0.033 A 
HETATM   10  C   UNL     1      -0.816   7.469 -32.014  1.00  0.00     0.040 C 
HETATM   11  C   UNL     1       0.364   6.813 -31.299  1.00  0.00     0.005 C 
HETATM   12  C   UNL     1       0.411   7.090 -29.797  1.00  0.00     0.001 C 
HETATM   13  C   UNL     1      -0.753   6.506 -28.998  1.00  0.00     0.006 C 
HETATM   14  C   UNL     1      -2.108   7.116 -29.349  1.00  0.00     0.060 C 
HETATM   15  C   UNL     1      -2.726   6.143 -32.973  1.00  0.00     0.026 A 
HETATM   16  H   UNL     1      -3.882   5.351 -35.491  1.00  0.00     0.156 HD
HETATM   17  H   UNL     1      -5.292   4.466 -35.743  1.00  0.00     0.156 HD
ENDROOT
BRANCH   1  18
HETATM   18  C   UNL     1      -6.928   3.286 -33.642  1.00  0.00     0.201 C 
HETATM   19  O   UNL     1      -8.062   3.711 -33.864  1.00  0.00    -0.286 OA
BRANCH  18  20
HETATM   20  C   UNL     1      -6.677   1.847 -33.948  1.00  0.00     0.018 A 
HETATM   21  C   UNL     1      -7.579   1.177 -34.808  1.00  0.00     0.018 A 
HETATM   22  C   UNL     1      -7.398  -0.174 -35.126  1.00  0.00     0.040 A 
HETATM   23  C   UNL     1      -6.322  -0.823 -34.562  1.00  0.00     0.105 A 
HETATM   24  C   UNL     1      -5.452  -0.181 -33.712  1.00  0.00     0.106 A 
HETATM   25  O   UNL     1      -5.992  -2.127 -34.756  1.00  0.00    -0.323 OA
HETATM   26  C   UNL     1      -5.601   1.149 -33.378  1.00  0.00     0.055 A 
HETATM   27  O   UNL     1      -4.466  -1.005 -33.262  1.00  0.00    -0.323 OA
HETATM   28  C   UNL     1      -4.819  -2.239 -33.921  1.00  0.00     0.352 A 
ENDBRANCH  18  20
ENDBRANCH   1  18
TORSDOF 2
ENDMDL
MODEL 7
REMARK VINA RESULT:      -8.6      8.588     10.648
REMARK  2 active torsions:
REMARK  status: ('A' for Active; 'I' for Inactive)
REMARK    1  A    between atoms: C_2  and  C_3 
REMARK    2  A    between atoms: C_3  and  C_4 
ROOT
HETATM    1  C   UNL     1      -2.574   6.341 -31.766  1.00  0.00     0.085 A 
HETATM    2  S   UNL     1      -3.397   7.443 -30.740  1.00  0.00    -0.063 SA
HETATM    3  C   UNL     1      -1.987   7.781 -29.855  1.00  0.00     0.111 A 
HETATM    4  C   UNL     1      -0.876   7.101 -30.330  1.00  0.00     0.028 A 
HETATM    5  C   UNL     1      -1.224   6.289 -31.464  1.00  0.00     0.060 A 
HETATM    6  N   UNL     1      -0.307   5.563 -32.150  1.00  0.00    -0.397 N 
HETATM    7  N   UNL     1      -2.024   8.634 -28.813  1.00  0.00    -0.245 NA
HETATM    8  C   UNL     1      -0.844   8.830 -28.183  1.00  0.00     0.042 A 
HETATM    9  C   UNL     1       0.352   8.206 -28.546  1.00  0.00    -0.033 A 
HETATM   10  C   UNL     1       1.641   8.442 -27.803  1.00  0.00     0.040 C 
HETATM   11  C   UNL     1       1.591   7.961 -26.353  1.00  0.00     0.005 C 
HETATM   12  C   UNL     1       0.885   8.929 -25.404  1.00  0.00     0.001 C 
HETATM   13  C   UNL     1      -0.605   9.128 -25.679  1.00  0.00     0.006 C 
HETATM   14  C   UNL     1      -0.899   9.794 -27.022  1.00  0.00     0.060 C 
HETATM   15  C   UNL     1       0.335   7.332 -29.643  1.00  0.00     0.026 A 
HETATM   16  H   UNL     1       0.688   5.703 -31.994  1.00  0.00     0.156 HD
HETATM   17  H   UNL     1      -0.494   5.189 -33.078  1.00  0.00     0.156 HD
ENDROOT
BRANCH   1  18
HETATM   18  C   UNL     1      -3.353   5.658 -32.784  1.00  0.00     0.201 C 
HETATM   19  O   UNL     1      -3.702   6.185 -33.841  1.00  0.00    -0.286 OA
BRANCH  18  20
HETATM   20  C   UNL     1      -3.770   4.241 -32.569  1.00  0.00     0.018 A 
HETATM   21  C   UNL     1      -5.015   3.822 -33.095  1.00  0.00     0.018 A 
HETATM   22  C   UNL     1      -5.462   2.508 -32.920  1.00  0.00     0.040 A 
HETATM   23  C   UNL     1      -4.653   1.648 -32.210  1.00  0.00     0.105 A 
HETATM   24  C   UNL     1      -3.449   2.055 -31.682  1.00  0.00     0.106 A 
HETATM   25  O   UNL     1      -4.923   0.343 -31.942  1.00  0.00    -0.323 OA
HETATM   26  C   UNL     1      -2.980   3.343 -31.836  1.00  0.00     0.055 A 
HETATM   27  O   UNL     1      -2.814   1.055 -31.013  1.00  0.00    -0.323 OA
HETATM   28  C   UNL     1      -3.757  -0.025 -31.174  1.00  0.00     0.352 A 
ENDBRANCH  18  20
ENDBRANCH   1  18
TORSDOF 2
ENDMDL
MODEL 8
REMARK VINA RESULT:      -8.6     11.481     13.472
REMARK  2 active torsions:
REMARK  status: ('A' for Active; 'I' for Inactive)
REMARK    1  A    between atoms: C_2  and  C_3 
REMARK    2  A    between atoms: C_3  and  C_4 
ROOT
HETATM    1  C   UNL     1      -1.484   7.674 -28.374  1.00  0.00     0.085 A 
HETATM    2  S   UNL     1      -1.545   9.349 -28.007  1.00  0.00    -0.063 SA
HETATM    3  C   UNL     1      -0.191   9.247 -26.987  1.00  0.00     0.111 A 
HETATM    4  C   UNL     1       0.345   7.970 -26.929  1.00  0.00     0.028 A 
HETATM    5  C   UNL     1      -0.398   7.068 -27.766  1.00  0.00     0.060 A 
HETATM    6  N   UNL     1      -0.047   5.769 -27.929  1.00  0.00    -0.397 N 
HETATM    7  N   UNL     1       0.258  10.339 -26.338  1.00  0.00    -0.245 NA
HETATM    8  C   UNL     1       1.343  10.142 -25.556  1.00  0.00     0.042 A 
HETATM    9  C   UNL     1       1.980   8.910 -25.394  1.00  0.00    -0.033 A 
HETATM   10  C   UNL     1       3.178   8.734 -24.498  1.00  0.00     0.040 C 
HETATM   11  C   UNL     1       2.865   8.997 -23.025  1.00  0.00     0.005 C 
HETATM   12  C   UNL     1       2.825  10.480 -22.655  1.00  0.00     0.001 C 
HETATM   13  C   UNL     1       1.705  11.279 -23.321  1.00  0.00     0.006 C 
HETATM   14  C   UNL     1       1.839  11.376 -24.840  1.00  0.00     0.060 C 
HETATM   15  C   UNL     1       1.475   7.807 -26.100  1.00  0.00     0.026 A 
HETATM   16  H   UNL     1       0.853   5.429 -27.603  1.00  0.00     0.156 HD
HETATM   17  H   UNL     1      -0.412   5.199 -28.690  1.00  0.00     0.156 HD
ENDROOT
BRANCH   1  18
HETATM   18  C   UNL     1      -2.512   7.139 -29.250  1.00  0.00     0.201 C 
HETATM   19  O   UNL     1      -3.638   6.826 -28.865  1.00  0.00    -0.286 OA
BRANCH  18  20
HETATM   20  C   UNL     1      -2.219   6.946 -30.702  1.00  0.00     0.018 A 
HETATM   21  C   UNL     1      -1.879   8.083 -31.473  1.00  0.00     0.018 A 
HETATM   22  C   UNL     1      -1.600   7.965 -32.839  1.00  0.00     0.040 A 
HETATM   23  C   UNL     1      -1.681   6.711 -33.401  1.00  0.00     0.105 A 
HETATM   24  C   UNL     1      -2.028   5.605 -32.659  1.00  0.00     0.106 A 
HETATM   25  O   UNL     1      -1.446   6.408 -34.705  1.00  0.00    -0.323 OA
HETATM   26  C   UNL     1      -2.309   5.685 -31.311  1.00  0.00     0.055 A 
HETATM   27  O   UNL     1      -2.056   4.469 -33.408  1.00  0.00    -0.323 OA
HETATM   28  C   UNL     1      -1.695   4.986 -34.705  1.00  0.00     0.352 A 
ENDBRANCH  18  20
ENDBRANCH   1  18
TORSDOF 2
ENDMDL
MODEL 9
REMARK VINA RESULT:      -8.6      4.384      8.035
REMARK  2 active torsions:
REMARK  status: ('A' for Active; 'I' for Inactive)
REMARK    1  A    between atoms: C_2  and  C_3 
REMARK    2  A    between atoms: C_3  and  C_4 
ROOT
HETATM    1  C   UNL     1      -7.170   1.506 -33.195  1.00  0.00     0.085 A 
HETATM    2  S   UNL     1      -6.427   2.966 -33.705  1.00  0.00    -0.063 SA
HETATM    3  C   UNL     1      -6.615   3.680 -32.175  1.00  0.00     0.111 A 
HETATM    4  C   UNL     1      -7.205   2.830 -31.253  1.00  0.00     0.028 A 
HETATM    5  C   UNL     1      -7.496   1.555 -31.850  1.00  0.00     0.060 A 
HETATM    6  N   UNL     1      -8.027   0.525 -31.147  1.00  0.00    -0.397 N 
HETATM    7  N   UNL     1      -6.204   4.944 -31.958  1.00  0.00    -0.245 NA
HETATM    8  C   UNL     1      -6.401   5.409 -30.703  1.00  0.00     0.042 A 
HETATM    9  C   UNL     1      -6.992   4.669 -29.677  1.00  0.00    -0.033 A 
HETATM   10  C   UNL     1      -7.206   5.234 -28.297  1.00  0.00     0.040 C 
HETATM   11  C   UNL     1      -8.174   6.417 -28.280  1.00  0.00     0.005 C 
HETATM   12  C   UNL     1      -7.541   7.741 -28.708  1.00  0.00     0.001 C 
HETATM   13  C   UNL     1      -7.072   7.790 -30.162  1.00  0.00     0.006 C 
HETATM   14  C   UNL     1      -5.930   6.825 -30.472  1.00  0.00     0.060 C 
HETATM   15  C   UNL     1      -7.394   3.354 -29.957  1.00  0.00     0.026 A 
HETATM   16  H   UNL     1      -8.079   0.560 -30.132  1.00  0.00     0.156 HD
HETATM   17  H   UNL     1      -8.010  -0.433 -31.490  1.00  0.00     0.156 HD
ENDROOT
BRANCH   1  18
HETATM   18  C   UNL     1      -7.330   0.451 -34.180  1.00  0.00     0.201 C 
HETATM   19  O   UNL     1      -8.178   0.477 -35.072  1.00  0.00    -0.286 OA
BRANCH  18  20
HETATM   20  C   UNL     1      -6.433  -0.742 -34.139  1.00  0.00     0.018 A 
HETATM   21  C   UNL     1      -5.097  -0.561 -33.708  1.00  0.00     0.018 A 
HETATM   22  C   UNL     1      -4.209  -1.640 -33.654  1.00  0.00     0.040 A 
HETATM   23  C   UNL     1      -4.679  -2.873 -34.046  1.00  0.00     0.105 A 
HETATM   24  C   UNL     1      -5.972  -3.052 -34.482  1.00  0.00     0.106 A 
HETATM   25  O   UNL     1      -3.962  -4.029 -34.061  1.00  0.00    -0.323 OA
HETATM   26  C   UNL     1      -6.873  -2.010 -34.548  1.00  0.00     0.055 A 
HETATM   27  O   UNL     1      -6.227  -4.343 -34.827  1.00  0.00    -0.323 OA
HETATM   28  C   UNL     1      -4.947  -4.955 -34.566  1.00  0.00     0.352 A 
ENDBRANCH  18  20
ENDBRANCH   1  18
TORSDOF 2
ENDMDL
MODEL 10
REMARK VINA RESULT:      -8.5      3.538      8.290
REMARK  2 active torsions:
REMARK  status: ('A' for Active; 'I' for Inactive)
REMARK    1  A    between atoms: C_2  and  C_3 
REMARK    2  A    between atoms: C_3  and  C_4 
ROOT
HETATM    1  C   UNL     1      -6.273   1.507 -32.669  1.00  0.00     0.085 A 
HETATM    2  S   UNL     1      -6.388   2.750 -33.846  1.00  0.00    -0.063 SA
HETATM    3  C   UNL     1      -7.982   3.126 -33.397  1.00  0.00     0.111 A 
HETATM    4  C   UNL     1      -8.442   2.352 -32.343  1.00  0.00     0.028 A 
HETATM    5  C   UNL     1      -7.426   1.433 -31.906  1.00  0.00     0.060 A 
HETATM    6  N   UNL     1      -7.603   0.598 -30.853  1.00  0.00    -0.397 N 
HETATM    7  N   UNL     1      -8.663   4.091 -34.044  1.00  0.00    -0.245 NA
HETATM    8  C   UNL     1      -9.923   4.307 -33.601  1.00  0.00     0.042 A 
HETATM    9  C   UNL     1     -10.519   3.597 -32.557  1.00  0.00    -0.033 A 
HETATM   10  C   UNL     1     -11.933   3.861 -32.108  1.00  0.00     0.040 C 
HETATM   11  C   UNL     1     -12.969   3.548 -33.187  1.00  0.00     0.005 C 
HETATM   12  C   UNL     1     -13.116   4.645 -34.241  1.00  0.00     0.001 C 
HETATM   13  C   UNL     1     -11.878   4.873 -35.108  1.00  0.00     0.006 C 
HETATM   14  C   UNL     1     -10.672   5.397 -34.331  1.00  0.00     0.060 C 
HETATM   15  C   UNL     1      -9.761   2.607 -31.913  1.00  0.00     0.026 A 
HETATM   16  H   UNL     1      -8.394   0.712 -30.226  1.00  0.00     0.156 HD
HETATM   17  H   UNL     1      -6.823   0.130 -30.395  1.00  0.00     0.156 HD
ENDROOT
BRANCH   1  18
HETATM   18  C   UNL     1      -5.036   0.748 -32.609  1.00  0.00     0.201 C 
HETATM   19  O   UNL     1      -3.993   1.185 -32.124  1.00  0.00    -0.286 OA
BRANCH  18  20
HETATM   20  C   UNL     1      -4.994  -0.641 -33.156  1.00  0.00     0.018 A 
HETATM   21  C   UNL     1      -5.937  -0.999 -34.149  1.00  0.00     0.018 A 
HETATM   22  C   UNL     1      -5.950  -2.287 -34.694  1.00  0.00     0.040 A 
HETATM   23  C   UNL     1      -5.024  -3.189 -34.221  1.00  0.00     0.105 A 
HETATM   24  C   UNL     1      -4.116  -2.852 -33.244  1.00  0.00     0.106 A 
HETATM   25  O   UNL     1      -4.890  -4.479 -34.631  1.00  0.00    -0.323 OA
HETATM   26  C   UNL     1      -4.076  -1.591 -32.685  1.00  0.00     0.055 A 
HETATM   27  O   UNL     1      -3.299  -3.890 -32.916  1.00  0.00    -0.323 OA
HETATM   28  C   UNL     1      -3.800  -4.920 -33.793  1.00  0.00     0.352 A 
ENDBRANCH  18  20
ENDBRANCH   1  18
TORSDOF 2
ENDMDL
