MODEL 1
REMARK VINA RESULT:      -8.5      0.000      0.000
REMARK  6 active torsions:
REMARK  status: ('A' for Active; 'I' for Inactive)
REMARK    1  A    between atoms: C_3  and  C_4 
REMARK    2  A    between atoms: C_4  and  N_5 
REMARK    3  A    between atoms: C_4  and  C_19 
REMARK    4  A    between atoms: N_9  and  C_10 
REMARK    5  A    between atoms: C_25  and  N_26 
REMARK       I    between atoms: N_26  and  C_27 
REMARK    6  A    between atoms: C_27  and  C_28 
ROOT
HETATM    1  C   UNL     1      -6.288   4.157 -32.635  1.00  0.00     0.259 C 
ENDROOT
BRANCH   1   2
HETATM    2  C   UNL     1      -7.163   5.083 -31.803  1.00  0.00     0.018 A 
HETATM    3  C   UNL     1      -7.086   5.116 -30.334  1.00  0.00    -0.038 A 
HETATM    4  C   UNL     1      -6.228   4.208 -29.497  1.00  0.00     0.050 C 
HETATM    5  C   UNL     1      -7.908   6.092 -29.792  1.00  0.00    -0.013 A 
HETATM    6  S   UNL     1      -8.796   6.911 -30.984  1.00  0.00    -0.076 SA
HETATM    7  C   UNL     1      -8.111   6.455 -28.353  1.00  0.00     0.057 C 
HETATM    8  C   UNL     1      -8.072   6.039 -32.245  1.00  0.00     0.086 A 
BRANCH   8   9
HETATM    9  N   UNL     1      -8.557   6.237 -33.520  1.00  0.00    -0.315 N 
HETATM   10  C   UNL     1      -9.357   5.418 -34.300  1.00  0.00     0.280 C 
HETATM   11  O   UNL     1      -9.413   5.710 -35.497  1.00  0.00    -0.265 OA
HETATM   12  H   UNL     1      -8.140   6.976 -34.070  1.00  0.00     0.170 HD
BRANCH  10  13
HETATM   13  C   UNL     1     -10.215   4.414 -33.709  1.00  0.00     0.142 A 
HETATM   14  O   UNL     1     -11.254   4.783 -32.889  1.00  0.00    -0.317 OA
HETATM   15  C   UNL     1     -11.858   3.638 -32.475  1.00  0.00     0.143 A 
HETATM   16  C   UNL     1     -11.285   2.544 -33.077  1.00  0.00     0.027 A 
HETATM   17  C   UNL     1     -10.243   3.043 -33.891  1.00  0.00     0.045 A 
ENDBRANCH  10  13
ENDBRANCH   8   9
ENDBRANCH   1   2
BRANCH   1  18
HETATM   18  N   UNL     1      -6.043   2.724 -32.123  1.00  0.00    -0.056 N 
HETATM   19  H   UNL     1      -5.871   2.856 -31.119  1.00  0.00     0.281 HD
HETATM   20  C   UNL     1      -7.204   1.745 -32.200  1.00  0.00     0.256 C 
HETATM   21  C   UNL     1      -6.854   0.416 -31.479  1.00  0.00     0.152 C 
HETATM   22  N   UNL     1      -5.588  -0.161 -31.993  1.00  0.00    -0.364 N 
HETATM   23  C   UNL     1      -4.441   0.783 -31.961  1.00  0.00     0.152 C 
HETATM   24  C   UNL     1      -4.758   2.116 -32.685  1.00  0.00     0.256 C 
BRANCH  22  25
HETATM   25  C   UNL     1      -5.653  -1.141 -32.973  1.00  0.00     0.102 A 
HETATM   26  N   UNL     1      -4.525  -1.805 -33.293  1.00  0.00    -0.352 N 
HETATM   27  H   UNL     1      -3.662  -1.517 -32.840  1.00  0.00     0.166 HD
HETATM   28  C   UNL     1      -4.455  -2.762 -34.233  1.00  0.00     0.089 A 
HETATM   29  C   UNL     1      -5.583  -3.112 -34.954  1.00  0.00     0.017 A 
HETATM   30  C   UNL     1      -6.768  -2.442 -34.698  1.00  0.00     0.005 A 
HETATM   31  C   UNL     1      -6.803  -1.454 -33.714  1.00  0.00     0.048 A 
ENDBRANCH  22  25
ENDBRANCH   1  18
BRANCH   1  32
HETATM   32  C   UNL     1      -5.046   4.875 -33.127  1.00  0.00    -0.005 A 
HETATM   33  C   UNL     1      -4.854   4.966 -34.510  1.00  0.00     0.125 A 
HETATM   34  N   UNL     1      -3.777   5.509 -35.107  1.00  0.00    -0.273 NA
HETATM   35  C   UNL     1      -2.844   6.066 -34.311  1.00  0.00     0.116 A 
HETATM   36  C   UNL     1      -2.942   6.075 -32.934  1.00  0.00     0.020 A 
HETATM   37  C   UNL     1      -4.053   5.472 -32.338  1.00  0.00     0.012 A 
ENDBRANCH   1  32
TORSDOF 6
ENDMDL
MODEL 2
REMARK VINA RESULT:      -8.4      3.086      6.697
REMARK  6 active torsions:
REMARK  status: ('A' for Active; 'I' for Inactive)
REMARK    1  A    between atoms: C_3  and  C_4 
REMARK    2  A    between atoms: C_4  and  N_5 
REMARK    3  A    between atoms: C_4  and  C_19 
REMARK    4  A    between atoms: N_9  and  C_10 
REMARK    5  A    between atoms: C_25  and  N_26 
REMARK       I    between atoms: N_26  and  C_27 
REMARK    6  A    between atoms: C_27  and  C_28 
ROOT
HETATM    1  C   UNL     1      -6.779   4.394 -32.104  1.00  0.00     0.259 C 
ENDROOT
BRANCH   1   2
HETATM    2  C   UNL     1      -7.815   3.285 -32.220  1.00  0.00     0.018 A 
HETATM    3  C   UNL     1      -8.953   3.378 -33.147  1.00  0.00    -0.038 A 
HETATM    4  C   UNL     1      -9.274   4.574 -34.000  1.00  0.00     0.050 C 
HETATM    5  C   UNL     1      -9.718   2.222 -33.148  1.00  0.00    -0.013 A 
HETATM    6  S   UNL     1      -9.141   1.076 -32.039  1.00  0.00    -0.076 SA
HETATM    7  C   UNL     1     -10.944   1.908 -33.950  1.00  0.00     0.057 C 
HETATM    8  C   UNL     1      -7.836   2.053 -31.574  1.00  0.00     0.086 A 
BRANCH   8   9
HETATM    9  N   UNL     1      -7.054   1.620 -30.525  1.00  0.00    -0.315 N 
HETATM   10  C   UNL     1      -6.181   0.546 -30.455  1.00  0.00     0.280 C 
HETATM   11  O   UNL     1      -5.823   0.223 -29.320  1.00  0.00    -0.265 OA
HETATM   12  H   UNL     1      -7.257   1.989 -29.606  1.00  0.00     0.170 HD
BRANCH  10  13
HETATM   13  C   UNL     1      -5.587  -0.024 -31.646  1.00  0.00     0.142 A 
HETATM   14  O   UNL     1      -4.248   0.145 -31.902  1.00  0.00    -0.317 OA
HETATM   15  C   UNL     1      -3.989  -0.477 -33.084  1.00  0.00     0.143 A 
HETATM   16  C   UNL     1      -5.113  -1.115 -33.550  1.00  0.00     0.027 A 
HETATM   17  C   UNL     1      -6.137  -0.845 -32.613  1.00  0.00     0.045 A 
ENDBRANCH  10  13
ENDBRANCH   8   9
ENDBRANCH   1   2
BRANCH   1  18
HETATM   18  N   UNL     1      -5.297   4.038 -32.332  1.00  0.00    -0.056 N 
HETATM   19  H   UNL     1      -5.341   3.132 -32.812  1.00  0.00     0.281 HD
HETATM   20  C   UNL     1      -4.495   4.938 -33.259  1.00  0.00     0.256 C 
HETATM   21  C   UNL     1      -3.088   4.340 -33.528  1.00  0.00     0.152 C 
HETATM   22  N   UNL     1      -2.374   4.048 -32.261  1.00  0.00    -0.364 N 
HETATM   23  C   UNL     1      -3.145   3.196 -31.319  1.00  0.00     0.152 C 
HETATM   24  C   UNL     1      -4.552   3.775 -31.022  1.00  0.00     0.256 C 
BRANCH  22  25
HETATM   25  C   UNL     1      -1.476   4.985 -31.773  1.00  0.00     0.102 A 
HETATM   26  N   UNL     1      -1.038   4.856 -30.505  1.00  0.00    -0.352 N 
HETATM   27  H   UNL     1      -1.432   4.106 -29.943  1.00  0.00     0.166 HD
HETATM   28  C   UNL     1      -0.182   5.704 -29.912  1.00  0.00     0.089 A 
HETATM   29  C   UNL     1       0.297   6.804 -30.602  1.00  0.00     0.017 A 
HETATM   30  C   UNL     1      -0.142   7.014 -31.899  1.00  0.00     0.005 A 
HETATM   31  C   UNL     1      -1.031   6.112 -32.482  1.00  0.00     0.048 A 
ENDBRANCH  22  25
ENDBRANCH   1  18
BRANCH   1  32
HETATM   32  C   UNL     1      -7.042   5.263 -30.889  1.00  0.00    -0.005 A 
HETATM   33  C   UNL     1      -6.710   6.620 -30.977  1.00  0.00     0.125 A 
HETATM   34  N   UNL     1      -6.819   7.509 -29.973  1.00  0.00    -0.273 NA
HETATM   35  C   UNL     1      -7.349   7.071 -28.814  1.00  0.00     0.116 A 
HETATM   36  C   UNL     1      -7.751   5.765 -28.620  1.00  0.00     0.020 A 
HETATM   37  C   UNL     1      -7.594   4.853 -29.668  1.00  0.00     0.012 A 
ENDBRANCH   1  32
TORSDOF 6
ENDMDL
MODEL 3
REMARK VINA RESULT:      -8.4      2.245      4.846
REMARK  6 active torsions:
REMARK  status: ('A' for Active; 'I' for Inactive)
REMARK    1  A    between atoms: C_3  and  C_4 
REMARK    2  A    between atoms: C_4  and  N_5 
REMARK    3  A    between atoms: C_4  and  C_19 
REMARK    4  A    between atoms: N_9  and  C_10 
REMARK    5  A    between atoms: C_25  and  N_26 
REMARK       I    between atoms: N_26  and  C_27 
REMARK    6  A    between atoms: C_27  and  C_28 
ROOT
HETATM    1  C   UNL     1      -8.847   2.295 -32.526  1.00  0.00     0.259 C 
ENDROOT
BRANCH   1   2
HETATM    2  C   UNL     1      -8.771   3.777 -32.188  1.00  0.00     0.018 A 
HETATM    3  C   UNL     1      -9.612   4.382 -31.144  1.00  0.00    -0.038 A 
HETATM    4  C   UNL     1     -10.678   3.656 -30.369  1.00  0.00     0.050 C 
HETATM    5  C   UNL     1      -9.315   5.721 -30.949  1.00  0.00    -0.013 A 
HETATM    6  S   UNL     1      -8.113   6.269 -32.012  1.00  0.00    -0.076 SA
HETATM    7  C   UNL     1      -9.929   6.687 -29.981  1.00  0.00     0.057 C 
HETATM    8  C   UNL     1      -7.914   4.738 -32.714  1.00  0.00     0.086 A 
BRANCH   8   9
HETATM    9  N   UNL     1      -7.078   4.638 -33.806  1.00  0.00    -0.315 N 
HETATM   10  C   UNL     1      -5.704   4.473 -33.857  1.00  0.00     0.280 C 
HETATM   11  O   UNL     1      -5.180   4.693 -34.951  1.00  0.00    -0.265 OA
HETATM   12  H   UNL     1      -7.449   4.911 -34.706  1.00  0.00     0.170 HD
BRANCH  10  13
HETATM   13  C   UNL     1      -4.970   3.895 -32.751  1.00  0.00     0.142 A 
HETATM   14  O   UNL     1      -5.585   3.700 -31.537  1.00  0.00    -0.317 OA
HETATM   15  C   UNL     1      -4.653   3.169 -30.702  1.00  0.00     0.143 A 
HETATM   16  C   UNL     1      -3.476   2.939 -31.373  1.00  0.00     0.027 A 
HETATM   17  C   UNL     1      -3.687   3.383 -32.699  1.00  0.00     0.045 A 
ENDBRANCH  10  13
ENDBRANCH   8   9
ENDBRANCH   1   2
BRANCH   1  18
HETATM   18  N   UNL     1      -7.563   1.583 -32.994  1.00  0.00    -0.056 N 
HETATM   19  H   UNL     1      -6.874   2.343 -33.041  1.00  0.00     0.281 HD
HETATM   20  C   UNL     1      -6.952   0.553 -32.057  1.00  0.00     0.256 C 
HETATM   21  C   UNL     1      -5.575   0.072 -32.588  1.00  0.00     0.152 C 
HETATM   22  N   UNL     1      -5.675  -0.418 -33.984  1.00  0.00    -0.364 N 
HETATM   23  C   UNL     1      -6.298   0.555 -34.919  1.00  0.00     0.152 C 
HETATM   24  C   UNL     1      -7.681   1.045 -34.420  1.00  0.00     0.256 C 
BRANCH  22  25
HETATM   25  C   UNL     1      -5.819  -1.780 -34.203  1.00  0.00     0.102 A 
HETATM   26  N   UNL     1      -4.710  -2.544 -34.245  1.00  0.00    -0.352 N 
HETATM   27  H   UNL     1      -3.811  -2.077 -34.171  1.00  0.00     0.166 HD
HETATM   28  C   UNL     1      -4.716  -3.869 -34.465  1.00  0.00     0.089 A 
HETATM   29  C   UNL     1      -5.911  -4.533 -34.681  1.00  0.00     0.017 A 
HETATM   30  C   UNL     1      -7.085  -3.798 -34.686  1.00  0.00     0.005 A 
HETATM   31  C   UNL     1      -7.041  -2.423 -34.454  1.00  0.00     0.048 A 
ENDBRANCH  22  25
ENDBRANCH   1  18
BRANCH   1  32
HETATM   32  C   UNL     1     -10.080   1.985 -33.352  1.00  0.00    -0.005 A 
HETATM   33  C   UNL     1     -10.443   2.901 -34.346  1.00  0.00     0.125 A 
HETATM   34  N   UNL     1     -11.541   2.809 -35.120  1.00  0.00    -0.273 NA
HETATM   35  C   UNL     1     -12.314   1.716 -34.968  1.00  0.00     0.116 A 
HETATM   36  C   UNL     1     -12.037   0.724 -34.048  1.00  0.00     0.020 A 
HETATM   37  C   UNL     1     -10.910   0.862 -33.233  1.00  0.00     0.012 A 
ENDBRANCH   1  32
TORSDOF 6
ENDMDL
MODEL 4
REMARK VINA RESULT:      -8.1      2.261      5.880
REMARK  6 active torsions:
REMARK  status: ('A' for Active; 'I' for Inactive)
REMARK    1  A    between atoms: C_3  and  C_4 
REMARK    2  A    between atoms: C_4  and  N_5 
REMARK    3  A    between atoms: C_4  and  C_19 
REMARK    4  A    between atoms: N_9  and  C_10 
REMARK    5  A    between atoms: C_25  and  N_26 
REMARK       I    between atoms: N_26  and  C_27 
REMARK    6  A    between atoms: C_27  and  C_28 
ROOT
HETATM    1  C   UNL     1      -8.545   1.837 -32.966  1.00  0.00     0.259 C 
ENDROOT
BRANCH   1   2
HETATM    2  C   UNL     1      -9.927   1.839 -33.604  1.00  0.00     0.018 A 
HETATM    3  C   UNL     1     -10.883   0.741 -33.394  1.00  0.00    -0.038 A 
HETATM    4  C   UNL     1     -10.592  -0.518 -32.623  1.00  0.00     0.050 C 
HETATM    5  C   UNL     1     -12.105   0.994 -33.996  1.00  0.00    -0.013 A 
HETATM    6  S   UNL     1     -12.107   2.465 -34.840  1.00  0.00    -0.076 SA
HETATM    7  C   UNL     1     -13.338   0.143 -34.010  1.00  0.00     0.057 C 
HETATM    8  C   UNL     1     -10.517   2.831 -34.381  1.00  0.00     0.086 A 
BRANCH   8   9
HETATM    9  N   UNL     1      -9.930   3.947 -34.938  1.00  0.00    -0.315 N 
HETATM   10  C   UNL     1     -10.138   5.288 -34.661  1.00  0.00     0.280 C 
HETATM   11  O   UNL     1      -9.690   6.081 -35.493  1.00  0.00    -0.265 OA
HETATM   12  H   UNL     1      -9.417   3.825 -35.801  1.00  0.00     0.170 HD
BRANCH  10  13
HETATM   13  C   UNL     1     -10.672   5.723 -33.388  1.00  0.00     0.142 A 
HETATM   14  O   UNL     1     -12.031   5.803 -33.197  1.00  0.00    -0.317 OA
HETATM   15  C   UNL     1     -12.227   6.253 -31.929  1.00  0.00     0.143 A 
HETATM   16  C   UNL     1     -11.027   6.384 -31.272  1.00  0.00     0.027 A 
HETATM   17  C   UNL     1     -10.027   6.019 -32.202  1.00  0.00     0.045 A 
ENDBRANCH  10  13
ENDBRANCH   8   9
ENDBRANCH   1   2
BRANCH   1  18
HETATM   18  N   UNL     1      -7.801   3.179 -32.826  1.00  0.00    -0.056 N 
HETATM   19  H   UNL     1      -8.548   3.876 -32.920  1.00  0.00     0.281 HD
HETATM   20  C   UNL     1      -7.146   3.480 -31.487  1.00  0.00     0.256 C 
HETATM   21  C   UNL     1      -6.607   4.935 -31.450  1.00  0.00     0.152 C 
HETATM   22  N   UNL     1      -5.707   5.207 -32.597  1.00  0.00    -0.364 N 
HETATM   23  C   UNL     1      -6.308   4.893 -33.920  1.00  0.00     0.152 C 
HETATM   24  C   UNL     1      -6.845   3.440 -33.990  1.00  0.00     0.256 C 
BRANCH  22  25
HETATM   25  C   UNL     1      -4.338   5.089 -32.411  1.00  0.00     0.102 A 
HETATM   26  N   UNL     1      -3.789   5.641 -31.311  1.00  0.00    -0.352 N 
HETATM   27  H   UNL     1      -4.399   6.169 -30.693  1.00  0.00     0.166 HD
HETATM   28  C   UNL     1      -2.477   5.608 -31.026  1.00  0.00     0.089 A 
HETATM   29  C   UNL     1      -1.592   4.994 -31.893  1.00  0.00     0.017 A 
HETATM   30  C   UNL     1      -2.087   4.437 -33.062  1.00  0.00     0.005 A 
HETATM   31  C   UNL     1      -3.456   4.490 -33.325  1.00  0.00     0.048 A 
ENDBRANCH  22  25
ENDBRANCH   1  18
BRANCH   1  32
HETATM   32  C   UNL     1      -7.699   0.696 -33.499  1.00  0.00    -0.005 A 
HETATM   33  C   UNL     1      -6.889   0.007 -32.589  1.00  0.00     0.125 A 
HETATM   34  N   UNL     1      -6.034  -0.981 -32.909  1.00  0.00    -0.273 NA
HETATM   35  C   UNL     1      -6.004  -1.380 -34.195  1.00  0.00     0.116 A 
HETATM   36  C   UNL     1      -6.785  -0.804 -35.177  1.00  0.00     0.020 A 
HETATM   37  C   UNL     1      -7.639   0.244 -34.825  1.00  0.00     0.012 A 
ENDBRANCH   1  32
TORSDOF 6
ENDMDL
MODEL 5
REMARK VINA RESULT:      -8.0     17.460     19.950
REMARK  6 active torsions:
REMARK  status: ('A' for Active; 'I' for Inactive)
REMARK    1  A    between atoms: C_3  and  C_4 
REMARK    2  A    between atoms: C_4  and  N_5 
REMARK    3  A    between atoms: C_4  and  C_19 
REMARK    4  A    between atoms: N_9  and  C_10 
REMARK    5  A    between atoms: C_25  and  N_26 
REMARK       I    between atoms: N_26  and  C_27 
REMARK    6  A    between atoms: C_27  and  C_28 
ROOT
HETATM    1  C   UNL     1      -7.596 -15.277 -39.550  1.00  0.00     0.259 C 
ENDROOT
BRANCH   1   2
HETATM    2  C   UNL     1      -7.259 -15.409 -38.072  1.00  0.00     0.018 A 
HETATM    3  C   UNL     1      -7.862 -16.451 -37.227  1.00  0.00    -0.038 A 
HETATM    4  C   UNL     1      -8.916 -17.423 -37.679  1.00  0.00     0.050 C 
HETATM    5  C   UNL     1      -7.346 -16.438 -35.940  1.00  0.00    -0.013 A 
HETATM    6  S   UNL     1      -6.221 -15.189 -35.717  1.00  0.00    -0.076 SA
HETATM    7  C   UNL     1      -7.682 -17.333 -34.786  1.00  0.00     0.057 C 
HETATM    8  C   UNL     1      -6.342 -14.674 -37.328  1.00  0.00     0.086 A 
BRANCH   8   9
HETATM    9  N   UNL     1      -5.675 -13.521 -37.683  1.00  0.00    -0.315 N 
HETATM   10  C   UNL     1      -4.355 -13.160 -37.471  1.00  0.00     0.280 C 
HETATM   11  O   UNL     1      -4.094 -11.967 -37.642  1.00  0.00    -0.265 OA
HETATM   12  H   UNL     1      -6.233 -12.726 -37.965  1.00  0.00     0.170 HD
BRANCH  10  13
HETATM   13  C   UNL     1      -3.325 -14.154 -37.254  1.00  0.00     0.142 A 
HETATM   14  O   UNL     1      -3.313 -15.313 -37.991  1.00  0.00    -0.317 OA
HETATM   15  C   UNL     1      -2.256 -16.049 -37.556  1.00  0.00     0.143 A 
HETATM   16  C   UNL     1      -1.537 -15.352 -36.614  1.00  0.00     0.027 A 
HETATM   17  C   UNL     1      -2.210 -14.122 -36.437  1.00  0.00     0.045 A 
ENDBRANCH  10  13
ENDBRANCH   8   9
ENDBRANCH   1   2
BRANCH   1  18
HETATM   18  N   UNL     1      -6.438 -15.246 -40.566  1.00  0.00    -0.056 N 
HETATM   19  H   UNL     1      -6.909 -15.381 -41.468  1.00  0.00     0.281 HD
HETATM   20  C   UNL     1      -5.669 -13.942 -40.713  1.00  0.00     0.256 C 
HETATM   21  C   UNL     1      -4.669 -14.022 -41.898  1.00  0.00     0.152 C 
HETATM   22  N   UNL     1      -3.775 -15.198 -41.773  1.00  0.00    -0.364 N 
HETATM   23  C   UNL     1      -4.496 -16.485 -41.596  1.00  0.00     0.152 C 
HETATM   24  C   UNL     1      -5.495 -16.440 -40.411  1.00  0.00     0.256 C 
BRANCH  22  25
HETATM   25  C   UNL     1      -2.520 -15.023 -41.209  1.00  0.00     0.102 A 
HETATM   26  N   UNL     1      -2.216 -13.822 -40.679  1.00  0.00    -0.352 N 
HETATM   27  H   UNL     1      -2.903 -13.079 -40.767  1.00  0.00     0.166 HD
HETATM   28  C   UNL     1      -1.033 -13.523 -40.119  1.00  0.00     0.089 A 
HETATM   29  C   UNL     1      -0.025 -14.471 -40.074  1.00  0.00     0.017 A 
HETATM   30  C   UNL     1      -0.261 -15.715 -40.634  1.00  0.00     0.005 A 
HETATM   31  C   UNL     1      -1.503 -15.990 -41.207  1.00  0.00     0.048 A 
ENDBRANCH  22  25
ENDBRANCH   1  18
BRANCH   1  32
HETATM   32  C   UNL     1      -8.664 -14.223 -39.775  1.00  0.00    -0.005 A 
HETATM   33  C   UNL     1      -9.968 -14.664 -40.028  1.00  0.00     0.125 A 
HETATM   34  N   UNL     1     -11.013 -13.865 -40.312  1.00  0.00    -0.273 NA
HETATM   35  C   UNL     1     -10.799 -12.535 -40.286  1.00  0.00     0.116 A 
HETATM   36  C   UNL     1      -9.566 -11.979 -40.010  1.00  0.00     0.020 A 
HETATM   37  C   UNL     1      -8.489 -12.833 -39.753  1.00  0.00     0.012 A 
ENDBRANCH   1  32
TORSDOF 6
ENDMDL
MODEL 6
REMARK VINA RESULT:      -7.9      2.725      5.781
REMARK  6 active torsions:
REMARK  status: ('A' for Active; 'I' for Inactive)
REMARK    1  A    between atoms: C_3  and  C_4 
REMARK    2  A    between atoms: C_4  and  N_5 
REMARK    3  A    between atoms: C_4  and  C_19 
REMARK    4  A    between atoms: N_9  and  C_10 
REMARK    5  A    between atoms: C_25  and  N_26 
REMARK       I    between atoms: N_26  and  C_27 
REMARK    6  A    between atoms: C_27  and  C_28 
ROOT
HETATM    1  C   UNL     1      -4.767   3.676 -32.645  1.00  0.00     0.259 C 
ENDROOT
BRANCH   1   2
HETATM    2  C   UNL     1      -3.794   4.686 -32.054  1.00  0.00     0.018 A 
HETATM    3  C   UNL     1      -2.609   5.149 -32.792  1.00  0.00    -0.038 A 
HETATM    4  C   UNL     1      -2.178   4.635 -34.138  1.00  0.00     0.050 C 
HETATM    5  C   UNL     1      -1.915   6.129 -32.100  1.00  0.00    -0.013 A 
HETATM    6  S   UNL     1      -2.611   6.453 -30.587  1.00  0.00    -0.076 SA
HETATM    7  C   UNL     1      -0.673   6.862 -32.503  1.00  0.00     0.057 C 
HETATM    8  C   UNL     1      -3.877   5.353 -30.836  1.00  0.00     0.086 A 
BRANCH   8   9
HETATM    9  N   UNL     1      -4.733   5.114 -29.783  1.00  0.00    -0.315 N 
HETATM   10  C   UNL     1      -5.734   5.913 -29.256  1.00  0.00     0.280 C 
HETATM   11  O   UNL     1      -6.158   5.577 -28.147  1.00  0.00    -0.265 OA
HETATM   12  H   UNL     1      -4.508   4.349 -29.161  1.00  0.00     0.170 HD
BRANCH  10  13
HETATM   13  C   UNL     1      -6.364   6.952 -30.042  1.00  0.00     0.142 A 
HETATM   14  O   UNL     1      -7.125   6.627 -31.139  1.00  0.00    -0.317 OA
HETATM   15  C   UNL     1      -7.564   7.796 -31.678  1.00  0.00     0.143 A 
HETATM   16  C   UNL     1      -7.173   8.862 -30.904  1.00  0.00     0.027 A 
HETATM   17  C   UNL     1      -6.422   8.318 -29.836  1.00  0.00     0.045 A 
ENDBRANCH  10  13
ENDBRANCH   8   9
ENDBRANCH   1   2
BRANCH   1  18
HETATM   18  N   UNL     1      -6.278   3.932 -32.481  1.00  0.00    -0.056 N 
HETATM   19  H   UNL     1      -6.317   4.879 -32.088  1.00  0.00     0.281 HD
HETATM   20  C   UNL     1      -7.119   3.992 -33.745  1.00  0.00     0.256 C 
HETATM   21  C   UNL     1      -8.570   4.440 -33.422  1.00  0.00     0.152 C 
HETATM   22  N   UNL     1      -9.179   3.585 -32.374  1.00  0.00    -0.364 N 
HETATM   23  C   UNL     1      -8.364   3.479 -31.136  1.00  0.00     0.152 C 
HETATM   24  C   UNL     1      -6.911   3.022 -31.427  1.00  0.00     0.256 C 
BRANCH  22  25
HETATM   25  C   UNL     1      -9.987   2.528 -32.765  1.00  0.00     0.102 A 
HETATM   26  N   UNL     1     -11.232   2.799 -33.204  1.00  0.00    -0.352 N 
HETATM   27  H   UNL     1     -11.543   3.766 -33.176  1.00  0.00     0.166 HD
HETATM   28  C   UNL     1     -12.114   1.865 -33.595  1.00  0.00     0.089 A 
HETATM   29  C   UNL     1     -11.774   0.524 -33.548  1.00  0.00     0.017 A 
HETATM   30  C   UNL     1     -10.520   0.175 -33.072  1.00  0.00     0.005 A 
HETATM   31  C   UNL     1      -9.630   1.173 -32.675  1.00  0.00     0.048 A 
ENDBRANCH  22  25
ENDBRANCH   1  18
BRANCH   1  32
HETATM   32  C   UNL     1      -4.329   2.255 -32.346  1.00  0.00    -0.005 A 
HETATM   33  C   UNL     1      -3.372   2.068 -31.342  1.00  0.00     0.125 A 
HETATM   34  N   UNL     1      -2.830   0.884 -31.001  1.00  0.00    -0.273 NA
HETATM   35  C   UNL     1      -3.294  -0.212 -31.632  1.00  0.00     0.116 A 
HETATM   36  C   UNL     1      -4.265  -0.159 -32.612  1.00  0.00     0.020 A 
HETATM   37  C   UNL     1      -4.785   1.087 -32.972  1.00  0.00     0.012 A 
ENDBRANCH   1  32
TORSDOF 6
ENDMDL
MODEL 7
REMARK VINA RESULT:      -7.9      2.945      6.181
REMARK  6 active torsions:
REMARK  status: ('A' for Active; 'I' for Inactive)
REMARK    1  A    between atoms: C_3  and  C_4 
REMARK    2  A    between atoms: C_4  and  N_5 
REMARK    3  A    between atoms: C_4  and  C_19 
REMARK    4  A    between atoms: N_9  and  C_10 
REMARK    5  A    between atoms: C_25  and  N_26 
REMARK       I    between atoms: N_26  and  C_27 
REMARK    6  A    between atoms: C_27  and  C_28 
ROOT
HETATM    1  C   UNL     1      -5.489   3.402 -31.207  1.00  0.00     0.259 C 
ENDROOT
BRANCH   1   2
HETATM    2  C   UNL     1      -6.901   3.872 -31.525  1.00  0.00     0.018 A 
HETATM    3  C   UNL     1      -7.735   4.562 -30.529  1.00  0.00    -0.038 A 
HETATM    4  C   UNL     1      -7.345   4.800 -29.096  1.00  0.00     0.050 C 
HETATM    5  C   UNL     1      -8.947   4.974 -31.062  1.00  0.00    -0.013 A 
HETATM    6  S   UNL     1      -9.122   4.508 -32.683  1.00  0.00    -0.076 SA
HETATM    7  C   UNL     1     -10.065   5.712 -30.390  1.00  0.00     0.057 C 
HETATM    8  C   UNL     1      -7.581   3.804 -32.738  1.00  0.00     0.086 A 
BRANCH   8   9
HETATM    9  N   UNL     1      -7.232   3.113 -33.879  1.00  0.00    -0.315 N 
HETATM   10  C   UNL     1      -7.566   1.827 -34.272  1.00  0.00     0.280 C 
HETATM   11  O   UNL     1      -6.897   1.363 -35.199  1.00  0.00    -0.265 OA
HETATM   12  H   UNL     1      -6.477   3.485 -34.439  1.00  0.00     0.170 HD
BRANCH  10  13
HETATM   13  C   UNL     1      -8.741   1.160 -33.756  1.00  0.00     0.142 A 
HETATM   14  O   UNL     1      -9.992   1.514 -34.202  1.00  0.00    -0.317 OA
HETATM   15  C   UNL     1     -10.886   0.738 -33.533  1.00  0.00     0.143 A 
HETATM   16  C   UNL     1     -10.234  -0.165 -32.728  1.00  0.00     0.027 A 
HETATM   17  C   UNL     1      -8.853   0.088 -32.890  1.00  0.00     0.045 A 
ENDBRANCH  10  13
ENDBRANCH   8   9
ENDBRANCH   1   2
BRANCH   1  18
HETATM   18  N   UNL     1      -4.307   4.300 -31.621  1.00  0.00    -0.056 N 
HETATM   19  H   UNL     1      -4.418   4.386 -32.638  1.00  0.00     0.281 HD
HETATM   20  C   UNL     1      -4.299   5.729 -31.102  1.00  0.00     0.256 C 
HETATM   21  C   UNL     1      -3.153   6.547 -31.756  1.00  0.00     0.152 C 
HETATM   22  N   UNL     1      -1.843   5.873 -31.587  1.00  0.00    -0.364 N 
HETATM   23  C   UNL     1      -1.828   4.463 -32.056  1.00  0.00     0.152 C 
HETATM   24  C   UNL     1      -2.955   3.618 -31.410  1.00  0.00     0.256 C 
BRANCH  22  25
HETATM   25  C   UNL     1      -1.023   6.264 -30.539  1.00  0.00     0.102 A 
HETATM   26  N   UNL     1      -0.316   5.319 -29.890  1.00  0.00    -0.352 N 
HETATM   27  H   UNL     1      -0.459   4.351 -30.162  1.00  0.00     0.166 HD
HETATM   28  C   UNL     1       0.499   5.568 -28.851  1.00  0.00     0.089 A 
HETATM   29  C   UNL     1       0.642   6.858 -28.373  1.00  0.00     0.017 A 
HETATM   30  C   UNL     1      -0.086   7.872 -28.974  1.00  0.00     0.005 A 
HETATM   31  C   UNL     1      -0.922   7.577 -30.051  1.00  0.00     0.048 A 
ENDBRANCH  22  25
ENDBRANCH   1  18
BRANCH   1  32
HETATM   32  C   UNL     1      -5.315   1.933 -31.538  1.00  0.00    -0.005 A 
HETATM   33  C   UNL     1      -6.014   1.004 -30.760  1.00  0.00     0.125 A 
HETATM   34  N   UNL     1      -5.919  -0.334 -30.880  1.00  0.00    -0.273 NA
HETATM   35  C   UNL     1      -5.140  -0.811 -31.869  1.00  0.00     0.116 A 
HETATM   36  C   UNL     1      -4.432   0.006 -32.727  1.00  0.00     0.020 A 
HETATM   37  C   UNL     1      -4.520   1.391 -32.558  1.00  0.00     0.012 A 
ENDBRANCH   1  32
TORSDOF 6
ENDMDL
MODEL 8
REMARK VINA RESULT:      -7.9      2.153      4.792
REMARK  6 active torsions:
REMARK  status: ('A' for Active; 'I' for Inactive)
REMARK    1  A    between atoms: C_3  and  C_4 
REMARK    2  A    between atoms: C_4  and  N_5 
REMARK    3  A    between atoms: C_4  and  C_19 
REMARK    4  A    between atoms: N_9  and  C_10 
REMARK    5  A    between atoms: C_25  and  N_26 
REMARK       I    between atoms: N_26  and  C_27 
REMARK    6  A    between atoms: C_27  and  C_28 
ROOT
HETATM    1  C   UNL     1      -7.112   3.452 -31.350  1.00  0.00     0.259 C 
ENDROOT
BRANCH   1   2
HETATM    2  C   UNL     1      -6.495   4.838 -31.228  1.00  0.00     0.018 A 
HETATM    3  C   UNL     1      -6.634   5.648 -30.008  1.00  0.00    -0.038 A 
HETATM    4  C   UNL     1      -7.450   5.260 -28.806  1.00  0.00     0.050 C 
HETATM    5  C   UNL     1      -5.922   6.834 -30.088  1.00  0.00    -0.013 A 
HETATM    6  S   UNL     1      -5.154   7.017 -31.589  1.00  0.00    -0.076 SA
HETATM    7  C   UNL     1      -5.793   7.922 -29.066  1.00  0.00     0.057 C 
HETATM    8  C   UNL     1      -5.693   5.509 -32.146  1.00  0.00     0.086 A 
BRANCH   8   9
HETATM    9  N   UNL     1      -5.437   5.184 -33.461  1.00  0.00    -0.315 N 
HETATM   10  C   UNL     1      -4.271   5.322 -34.197  1.00  0.00     0.280 C 
HETATM   11  O   UNL     1      -4.395   5.212 -35.419  1.00  0.00    -0.265 OA
HETATM   12  H   UNL     1      -6.230   4.997 -34.060  1.00  0.00     0.170 HD
BRANCH  10  13
HETATM   13  C   UNL     1      -2.976   5.397 -33.554  1.00  0.00     0.142 A 
HETATM   14  O   UNL     1      -2.242   6.557 -33.608  1.00  0.00    -0.317 OA
HETATM   15  C   UNL     1      -1.080   6.322 -32.941  1.00  0.00     0.143 A 
HETATM   16  C   UNL     1      -1.087   5.064 -32.388  1.00  0.00     0.027 A 
HETATM   17  C   UNL     1      -2.318   4.476 -32.761  1.00  0.00     0.045 A 
ENDBRANCH  10  13
ENDBRANCH   8   9
ENDBRANCH   1   2
BRANCH   1  18
HETATM   18  N   UNL     1      -6.171   2.232 -31.391  1.00  0.00    -0.056 N 
HETATM   19  H   UNL     1      -5.460   2.457 -30.686  1.00  0.00     0.281 HD
HETATM   20  C   UNL     1      -6.745   0.891 -30.962  1.00  0.00     0.256 C 
HETATM   21  C   UNL     1      -5.629  -0.185 -30.882  1.00  0.00     0.152 C 
HETATM   22  N   UNL     1      -4.869  -0.272 -32.152  1.00  0.00    -0.364 N 
HETATM   23  C   UNL     1      -4.323   1.029 -32.616  1.00  0.00     0.152 C 
HETATM   24  C   UNL     1      -5.417   2.123 -32.717  1.00  0.00     0.256 C 
BRANCH  22  25
HETATM   25  C   UNL     1      -5.227  -1.243 -33.076  1.00  0.00     0.102 A 
HETATM   26  N   UNL     1      -4.299  -2.147 -33.449  1.00  0.00    -0.352 N 
HETATM   27  H   UNL     1      -3.360  -2.041 -33.077  1.00  0.00     0.166 HD
HETATM   28  C   UNL     1      -4.516  -3.124 -34.345  1.00  0.00     0.089 A 
HETATM   29  C   UNL     1      -5.750  -3.241 -34.961  1.00  0.00     0.017 A 
HETATM   30  C   UNL     1      -6.737  -2.321 -34.648  1.00  0.00     0.005 A 
HETATM   31  C   UNL     1      -6.475  -1.319 -33.713  1.00  0.00     0.048 A 
ENDBRANCH  22  25
ENDBRANCH   1  18
BRANCH   1  32
HETATM   32  C   UNL     1      -8.217   3.436 -32.388  1.00  0.00    -0.005 A 
HETATM   33  C   UNL     1      -9.244   4.378 -32.260  1.00  0.00     0.125 A 
HETATM   34  N   UNL     1     -10.327   4.455 -33.055  1.00  0.00    -0.273 NA
HETATM   35  C   UNL     1     -10.394   3.599 -34.093  1.00  0.00     0.116 A 
HETATM   36  C   UNL     1      -9.423   2.651 -34.346  1.00  0.00     0.020 A 
HETATM   37  C   UNL     1      -8.326   2.569 -33.485  1.00  0.00     0.012 A 
ENDBRANCH   1  32
TORSDOF 6
ENDMDL
MODEL 9
REMARK VINA RESULT:      -7.8      3.067      5.590
REMARK  6 active torsions:
REMARK  status: ('A' for Active; 'I' for Inactive)
REMARK    1  A    between atoms: C_3  and  C_4 
REMARK    2  A    between atoms: C_4  and  N_5 
REMARK    3  A    between atoms: C_4  and  C_19 
REMARK    4  A    between atoms: N_9  and  C_10 
REMARK    5  A    between atoms: C_25  and  N_26 
REMARK       I    between atoms: N_26  and  C_27 
REMARK    6  A    between atoms: C_27  and  C_28 
ROOT
HETATM    1  C   UNL     1      -5.934   3.674 -30.803  1.00  0.00     0.259 C 
ENDROOT
BRANCH   1   2
HETATM    2  C   UNL     1      -5.180   4.927 -30.381  1.00  0.00     0.018 A 
HETATM    3  C   UNL     1      -5.560   5.700 -29.189  1.00  0.00    -0.038 A 
HETATM    4  C   UNL     1      -6.753   5.411 -28.320  1.00  0.00     0.050 C 
HETATM    5  C   UNL     1      -4.686   6.749 -28.949  1.00  0.00    -0.013 A 
HETATM    6  S   UNL     1      -3.478   6.855 -30.135  1.00  0.00    -0.076 SA
HETATM    7  C   UNL     1      -4.712   7.757 -27.841  1.00  0.00     0.057 C 
HETATM    8  C   UNL     1      -4.044   5.486 -30.959  1.00  0.00     0.086 A 
BRANCH   8   9
HETATM    9  N   UNL     1      -3.452   5.173 -32.163  1.00  0.00    -0.315 N 
HETATM   10  C   UNL     1      -2.152   5.387 -32.593  1.00  0.00     0.280 C 
HETATM   11  O   UNL     1      -1.964   5.264 -33.805  1.00  0.00    -0.265 OA
HETATM   12  H   UNL     1      -4.059   4.931 -32.935  1.00  0.00     0.170 HD
BRANCH  10  13
HETATM   13  C   UNL     1      -1.063   5.552 -31.654  1.00  0.00     0.142 A 
HETATM   14  O   UNL     1      -0.740   4.541 -30.781  1.00  0.00    -0.317 OA
HETATM   15  C   UNL     1       0.295   4.988 -30.022  1.00  0.00     0.143 A 
HETATM   16  C   UNL     1       0.702   6.231 -30.443  1.00  0.00     0.027 A 
HETATM   17  C   UNL     1      -0.156   6.585 -31.510  1.00  0.00     0.045 A 
ENDBRANCH  10  13
ENDBRANCH   8   9
ENDBRANCH   1   2
BRANCH   1  18
HETATM   18  N   UNL     1      -5.123   2.402 -31.115  1.00  0.00    -0.056 N 
HETATM   19  H   UNL     1      -4.236   2.558 -30.623  1.00  0.00     0.281 HD
HETATM   20  C   UNL     1      -5.651   1.084 -30.571  1.00  0.00     0.256 C 
HETATM   21  C   UNL     1      -4.630  -0.061 -30.811  1.00  0.00     0.152 C 
HETATM   22  N   UNL     1      -4.243  -0.150 -32.240  1.00  0.00    -0.364 N 
HETATM   23  C   UNL     1      -3.752   1.132 -32.811  1.00  0.00     0.152 C 
HETATM   24  C   UNL     1      -4.758   2.292 -32.596  1.00  0.00     0.256 C 
BRANCH  22  25
HETATM   25  C   UNL     1      -4.898  -1.064 -33.051  1.00  0.00     0.102 A 
HETATM   26  N   UNL     1      -6.217  -0.899 -33.271  1.00  0.00    -0.352 N 
HETATM   27  H   UNL     1      -6.686  -0.139 -32.785  1.00  0.00     0.166 HD
HETATM   28  C   UNL     1      -6.965  -1.723 -34.023  1.00  0.00     0.089 A 
HETATM   29  C   UNL     1      -6.393  -2.834 -34.617  1.00  0.00     0.017 A 
HETATM   30  C   UNL     1      -5.047  -3.081 -34.401  1.00  0.00     0.005 A 
HETATM   31  C   UNL     1      -4.301  -2.203 -33.614  1.00  0.00     0.048 A 
ENDBRANCH  22  25
ENDBRANCH   1  18
BRANCH   1  32
HETATM   32  C   UNL     1      -7.015   4.001 -31.815  1.00  0.00    -0.005 A 
HETATM   33  C   UNL     1      -8.200   3.260 -31.763  1.00  0.00     0.125 A 
HETATM   34  N   UNL     1      -9.227   3.379 -32.626  1.00  0.00    -0.273 NA
HETATM   35  C   UNL     1      -9.129   4.331 -33.573  1.00  0.00     0.116 A 
HETATM   36  C   UNL     1      -8.027   5.153 -33.700  1.00  0.00     0.020 A 
HETATM   37  C   UNL     1      -6.960   4.984 -32.814  1.00  0.00     0.012 A 
ENDBRANCH   1  32
TORSDOF 6
ENDMDL
MODEL 10
REMARK VINA RESULT:      -7.7      3.137      6.439
REMARK  6 active torsions:
REMARK  status: ('A' for Active; 'I' for Inactive)
REMARK    1  A    between atoms: C_3  and  C_4 
REMARK    2  A    between atoms: C_4  and  N_5 
REMARK    3  A    between atoms: C_4  and  C_19 
REMARK    4  A    between atoms: N_9  and  C_10 
REMARK    5  A    between atoms: C_25  and  N_26 
REMARK       I    between atoms: N_26  and  C_27 
REMARK    6  A    between atoms: C_27  and  C_28 
ROOT
HETATM    1  C   UNL     1      -7.250   4.021 -31.121  1.00  0.00     0.259 C 
ENDROOT
BRANCH   1   2
HETATM    2  C   UNL     1      -5.843   3.613 -31.533  1.00  0.00     0.018 A 
HETATM    3  C   UNL     1      -5.064   4.384 -32.514  1.00  0.00    -0.038 A 
HETATM    4  C   UNL     1      -5.575   5.579 -33.271  1.00  0.00     0.050 C 
HETATM    5  C   UNL     1      -3.783   3.880 -32.672  1.00  0.00    -0.013 A 
HETATM    6  S   UNL     1      -3.523   2.494 -31.730  1.00  0.00    -0.076 SA
HETATM    7  C   UNL     1      -2.681   4.377 -33.558  1.00  0.00     0.057 C 
HETATM    8  C   UNL     1      -5.073   2.561 -31.047  1.00  0.00     0.086 A 
BRANCH   8   9
HETATM    9  N   UNL     1      -5.462   1.515 -30.238  1.00  0.00    -0.315 N 
HETATM   10  C   UNL     1      -6.019   0.292 -30.577  1.00  0.00     0.280 C 
HETATM   11  O   UNL     1      -6.525  -0.340 -29.647  1.00  0.00    -0.265 OA
HETATM   12  H   UNL     1      -5.550   1.697 -29.247  1.00  0.00     0.170 HD
BRANCH  10  13
HETATM   13  C   UNL     1      -5.842  -0.279 -31.895  1.00  0.00     0.142 A 
HETATM   14  O   UNL     1      -4.696  -0.973 -32.202  1.00  0.00    -0.317 OA
HETATM   15  C   UNL     1      -4.808  -1.367 -33.499  1.00  0.00     0.143 A 
HETATM   16  C   UNL     1      -6.035  -1.015 -34.007  1.00  0.00     0.027 A 
HETATM   17  C   UNL     1      -6.712  -0.337 -32.968  1.00  0.00     0.045 A 
ENDBRANCH  10  13
ENDBRANCH   8   9
ENDBRANCH   1   2
BRANCH   1  18
HETATM   18  N   UNL     1      -8.345   4.073 -32.204  1.00  0.00    -0.056 N 
HETATM   19  H   UNL     1      -8.125   4.931 -32.724  1.00  0.00     0.281 HD
HETATM   20  C   UNL     1      -8.350   2.968 -33.248  1.00  0.00     0.256 C 
HETATM   21  C   UNL     1      -9.388   3.268 -34.363  1.00  0.00     0.152 C 
HETATM   22  N   UNL     1     -10.735   3.520 -33.796  1.00  0.00    -0.364 N 
HETATM   23  C   UNL     1     -10.757   4.574 -32.748  1.00  0.00     0.152 C 
HETATM   24  C   UNL     1      -9.738   4.295 -31.614  1.00  0.00     0.256 C 
BRANCH  22  25
HETATM   25  C   UNL     1     -11.642   2.473 -33.746  1.00  0.00     0.102 A 
HETATM   26  N   UNL     1     -12.958   2.763 -33.756  1.00  0.00    -0.352 N 
HETATM   27  H   UNL     1     -13.227   3.743 -33.743  1.00  0.00     0.166 HD
HETATM   28  C   UNL     1     -13.934   1.841 -33.697  1.00  0.00     0.089 A 
HETATM   29  C   UNL     1     -13.617   0.498 -33.603  1.00  0.00     0.017 A 
HETATM   30  C   UNL     1     -12.280   0.135 -33.552  1.00  0.00     0.005 A 
HETATM   31  C   UNL     1     -11.294   1.119 -33.617  1.00  0.00     0.048 A 
ENDBRANCH  22  25
ENDBRANCH   1  18
BRANCH   1  32
HETATM   32  C   UNL     1      -7.221   5.219 -30.191  1.00  0.00    -0.005 A 
HETATM   33  C   UNL     1      -7.076   4.975 -28.821  1.00  0.00     0.125 A 
HETATM   34  N   UNL     1      -7.097   5.918 -27.861  1.00  0.00    -0.273 NA
HETATM   35  C   UNL     1      -7.200   7.201 -28.257  1.00  0.00     0.116 A 
HETATM   36  C   UNL     1      -7.309   7.570 -29.583  1.00  0.00     0.020 A 
HETATM   37  C   UNL     1      -7.320   6.569 -30.558  1.00  0.00     0.012 A 
ENDBRANCH   1  32
TORSDOF 6
ENDMDL
