MODEL 1
REMARK VINA RESULT:      -8.0      0.000      0.000
REMARK  10 active torsions:
REMARK  status: ('A' for Active; 'I' for Inactive)
REMARK    1  A    between atoms: C_3  and  N_4 
REMARK    2  A    between atoms: C_5  and  S_6 
REMARK    3  A    between atoms: S_6  and  C_7 
REMARK    4  A    between atoms: C_7  and  C_8 
REMARK       I    between atoms: C_8  and  N_9 
REMARK    5  A    between atoms: N_9  and  C_10 
REMARK    6  A    between atoms: C_10  and  C_11 
REMARK    7  A    between atoms: C_11  and  C_12 
REMARK    8  A    between atoms: C_14  and  O_15 
REMARK    9  A    between atoms: C_17  and  O_18 
REMARK   10  A    between atoms: C_26  and  N_27 
ROOT
HETATM    1  N   UNL     1      -5.264  -0.610 -33.204  1.00  0.00    -0.275 N 
HETATM    2  C   UNL     1      -6.409  -0.607 -34.042  1.00  0.00     0.177 A 
HETATM    3  N   UNL     1      -6.819  -1.603 -34.790  1.00  0.00    -0.204 NA
HETATM    4  C   UNL     1      -6.063  -2.717 -34.670  1.00  0.00     0.162 A 
HETATM    5  C   UNL     1      -4.946  -2.932 -33.910  1.00  0.00     0.081 A 
HETATM    6  C   UNL     1      -4.478  -1.832 -33.120  1.00  0.00     0.124 A 
HETATM    7  N   UNL     1      -6.296  -3.900 -35.307  1.00  0.00    -0.260 N 
HETATM    8  H   UNL     1      -7.047  -4.120 -35.951  1.00  0.00     0.191 HD
HETATM    9  N   UNL     1      -5.386  -4.853 -35.004  1.00  0.00    -0.177 NA
HETATM   10  C   UNL     1      -4.554  -4.260 -34.133  1.00  0.00     0.068 A 
HETATM   11  C   UNL     1      -3.421  -5.030 -33.568  1.00  0.00     0.073 C 
ENDROOT
BRANCH   2  12
HETATM   12  S   UNL     1      -7.390   0.865 -34.186  1.00  0.00    -0.082 SA
BRANCH  12  13
HETATM   13  C   UNL     1      -8.957   0.268 -33.497  1.00  0.00     0.185 C 
BRANCH  13  14
HETATM   14  C   UNL     1     -10.035   1.345 -33.495  1.00  0.00     0.227 C 
HETATM   15  N   UNL     1     -10.099   2.173 -32.404  1.00  0.00    -0.360 N 
HETATM   16  H   UNL     1     -10.858   2.847 -32.446  1.00  0.00     0.162 HD
HETATM   17  O   UNL     1     -10.824   1.528 -34.424  1.00  0.00    -0.273 OA
BRANCH  15  18
HETATM   18  C   UNL     1      -9.261   2.136 -31.215  1.00  0.00     0.127 C 
BRANCH  18  19
HETATM   19  C   UNL     1      -9.352   3.408 -30.365  1.00  0.00     0.058 C 
BRANCH  19  20
HETATM   20  C   UNL     1      -8.163   4.331 -30.512  1.00  0.00    -0.054 A 
HETATM   21  C   UNL     1      -7.700   4.724 -31.778  1.00  0.00     0.046 A 
HETATM   22  C   UNL     1      -6.588   5.564 -31.912  1.00  0.00     0.102 A 
HETATM   23  C   UNL     1      -5.944   6.055 -30.760  1.00  0.00     0.101 A 
HETATM   24  C   UNL     1      -6.419   5.686 -29.499  1.00  0.00     0.040 A 
HETATM   25  C   UNL     1      -7.519   4.831 -29.376  1.00  0.00     0.010 A 
BRANCH  22  26
HETATM   26  O   UNL     1      -6.071   5.974 -33.116  1.00  0.00    -0.353 OA
HETATM   27  C   UNL     1      -5.709   4.970 -34.053  1.00  0.00     0.210 C 
ENDBRANCH  22  26
BRANCH  23  28
HETATM   28  O   UNL     1      -4.866   6.877 -30.975  1.00  0.00    -0.353 OA
HETATM   29  C   UNL     1      -3.601   6.445 -30.497  1.00  0.00     0.210 C 
ENDBRANCH  23  28
ENDBRANCH  19  20
ENDBRANCH  18  19
ENDBRANCH  15  18
ENDBRANCH  13  14
ENDBRANCH  12  13
ENDBRANCH   2  12
BRANCH   1  30
HETATM   30  C   UNL     1      -4.930   0.512 -32.385  1.00  0.00     0.051 A 
HETATM   31  C   UNL     1      -5.581   0.761 -31.157  1.00  0.00    -0.035 A 
HETATM   32  C   UNL     1      -6.579  -0.191 -30.555  1.00  0.00     0.050 C 
HETATM   33  C   UNL     1      -5.249   1.919 -30.431  1.00  0.00     0.011 A 
HETATM   34  C   UNL     1      -4.325   2.837 -30.932  1.00  0.00     0.024 A 
HETATM   35  C   UNL     1      -3.705   2.597 -32.152  1.00  0.00     0.036 A 
HETATM   36  C   UNL     1      -3.998   1.443 -32.876  1.00  0.00     0.054 A 
HETATM   37 CL   UNL     1      -2.592   3.743 -32.788  1.00  0.00    -0.084 Cl
ENDBRANCH   1  30
BRANCH   6  38
HETATM   38  N   UNL     1      -3.385  -1.930 -32.389  1.00  0.00    -0.384 N 
HETATM   39  H   UNL     1      -3.398  -2.321 -31.459  1.00  0.00     0.157 HD
HETATM   40  H   UNL     1      -2.500  -1.614 -32.765  1.00  0.00     0.157 HD
ENDBRANCH   6  38
TORSDOF 10
ENDMDL
MODEL 2
REMARK VINA RESULT:      -7.9      3.784      7.303
REMARK  10 active torsions:
REMARK  status: ('A' for Active; 'I' for Inactive)
REMARK    1  A    between atoms: C_3  and  N_4 
REMARK    2  A    between atoms: C_5  and  S_6 
REMARK    3  A    between atoms: S_6  and  C_7 
REMARK    4  A    between atoms: C_7  and  C_8 
REMARK       I    between atoms: C_8  and  N_9 
REMARK    5  A    between atoms: N_9  and  C_10 
REMARK    6  A    between atoms: C_10  and  C_11 
REMARK    7  A    between atoms: C_11  and  C_12 
REMARK    8  A    between atoms: C_14  and  O_15 
REMARK    9  A    between atoms: C_17  and  O_18 
REMARK   10  A    between atoms: C_26  and  N_27 
ROOT
HETATM    1  N   UNL     1      -5.466   5.515 -32.042  1.00  0.00    -0.275 N 
HETATM    2  C   UNL     1      -6.003   5.303 -33.338  1.00  0.00     0.177 A 
HETATM    3  N   UNL     1      -5.317   5.222 -34.453  1.00  0.00    -0.204 NA
HETATM    4  C   UNL     1      -3.980   5.312 -34.274  1.00  0.00     0.162 A 
HETATM    5  C   UNL     1      -3.269   5.493 -33.120  1.00  0.00     0.081 A 
HETATM    6  C   UNL     1      -4.021   5.617 -31.907  1.00  0.00     0.124 A 
HETATM    7  N   UNL     1      -3.045   5.218 -35.261  1.00  0.00    -0.260 N 
HETATM    8  H   UNL     1      -3.202   5.074 -36.252  1.00  0.00     0.191 HD
HETATM    9  N   UNL     1      -1.779   5.339 -34.804  1.00  0.00    -0.177 NA
HETATM   10  C   UNL     1      -1.912   5.500 -33.478  1.00  0.00     0.068 A 
HETATM   11  C   UNL     1      -0.702   5.653 -32.637  1.00  0.00     0.073 C 
ENDROOT
BRANCH   2  12
HETATM   12  S   UNL     1      -7.761   5.186 -33.553  1.00  0.00    -0.082 SA
BRANCH  12  13
HETATM   13  C   UNL     1      -7.948   3.385 -33.639  1.00  0.00     0.185 C 
BRANCH  13  14
HETATM   14  C   UNL     1      -9.224   2.971 -34.364  1.00  0.00     0.227 C 
HETATM   15  N   UNL     1      -9.447   1.628 -34.535  1.00  0.00    -0.360 N 
HETATM   16  H   UNL     1     -10.294   1.416 -35.053  1.00  0.00     0.162 HD
HETATM   17  O   UNL     1     -10.070   3.767 -34.774  1.00  0.00    -0.273 OA
BRANCH  15  18
HETATM   18  C   UNL     1      -8.587   0.530 -34.119  1.00  0.00     0.127 C 
BRANCH  18  19
HETATM   19  C   UNL     1      -7.675   0.014 -35.238  1.00  0.00     0.058 C 
BRANCH  19  20
HETATM   20  C   UNL     1      -6.590  -0.927 -34.761  1.00  0.00    -0.054 A 
HETATM   21  C   UNL     1      -5.558  -0.479 -33.922  1.00  0.00     0.046 A 
HETATM   22  C   UNL     1      -4.545  -1.348 -33.497  1.00  0.00     0.102 A 
HETATM   23  C   UNL     1      -4.580  -2.700 -33.884  1.00  0.00     0.101 A 
HETATM   24  C   UNL     1      -5.622  -3.154 -34.698  1.00  0.00     0.040 A 
HETATM   25  C   UNL     1      -6.618  -2.275 -35.133  1.00  0.00     0.010 A 
BRANCH  22  26
HETATM   26  O   UNL     1      -3.497  -0.975 -32.691  1.00  0.00    -0.353 OA
HETATM   27  C   UNL     1      -3.427   0.386 -32.291  1.00  0.00     0.210 C 
ENDBRANCH  22  26
BRANCH  23  28
HETATM   28  O   UNL     1      -3.556  -3.488 -33.421  1.00  0.00    -0.353 OA
HETATM   29  C   UNL     1      -3.768  -4.891 -33.384  1.00  0.00     0.210 C 
ENDBRANCH  23  28
ENDBRANCH  19  20
ENDBRANCH  18  19
ENDBRANCH  15  18
ENDBRANCH  13  14
ENDBRANCH  12  13
ENDBRANCH   2  12
BRANCH   1  30
HETATM   30  C   UNL     1      -6.296   5.536 -30.880  1.00  0.00     0.051 A 
HETATM   31  C   UNL     1      -6.619   4.358 -30.170  1.00  0.00    -0.035 A 
HETATM   32  C   UNL     1      -6.021   3.017 -30.501  1.00  0.00     0.050 C 
HETATM   33  C   UNL     1      -7.493   4.441 -29.072  1.00  0.00     0.011 A 
HETATM   34  C   UNL     1      -8.075   5.657 -28.710  1.00  0.00     0.024 A 
HETATM   35  C   UNL     1      -7.771   6.808 -29.427  1.00  0.00     0.036 A 
HETATM   36  C   UNL     1      -6.885   6.755 -30.501  1.00  0.00     0.054 A 
HETATM   37 CL   UNL     1      -8.511   8.301 -29.005  1.00  0.00    -0.084 Cl
ENDBRANCH   1  30
BRANCH   6  38
HETATM   38  N   UNL     1      -3.425   5.837 -30.751  1.00  0.00    -0.384 N 
HETATM   39  H   UNL     1      -2.733   6.561 -30.637  1.00  0.00     0.157 HD
HETATM   40  H   UNL     1      -3.669   5.273 -29.946  1.00  0.00     0.157 HD
ENDBRANCH   6  38
TORSDOF 10
ENDMDL
MODEL 3
REMARK VINA RESULT:      -7.8      2.723      6.441
REMARK  10 active torsions:
REMARK  status: ('A' for Active; 'I' for Inactive)
REMARK    1  A    between atoms: C_3  and  N_4 
REMARK    2  A    between atoms: C_5  and  S_6 
REMARK    3  A    between atoms: S_6  and  C_7 
REMARK    4  A    between atoms: C_7  and  C_8 
REMARK       I    between atoms: C_8  and  N_9 
REMARK    5  A    between atoms: N_9  and  C_10 
REMARK    6  A    between atoms: C_10  and  C_11 
REMARK    7  A    between atoms: C_11  and  C_12 
REMARK    8  A    between atoms: C_14  and  O_15 
REMARK    9  A    between atoms: C_17  and  O_18 
REMARK   10  A    between atoms: C_26  and  N_27 
ROOT
HETATM    1  N   UNL     1      -5.408   3.646 -31.699  1.00  0.00    -0.275 N 
HETATM    2  C   UNL     1      -5.637   2.245 -31.706  1.00  0.00     0.177 A 
HETATM    3  N   UNL     1      -6.734   1.641 -31.320  1.00  0.00    -0.204 NA
HETATM    4  C   UNL     1      -7.713   2.491 -30.934  1.00  0.00     0.162 A 
HETATM    5  C   UNL     1      -7.702   3.857 -30.874  1.00  0.00     0.081 A 
HETATM    6  C   UNL     1      -6.490   4.515 -31.263  1.00  0.00     0.124 A 
HETATM    7  N   UNL     1      -8.960   2.123 -30.527  1.00  0.00    -0.260 N 
HETATM    8  H   UNL     1      -9.336   1.185 -30.450  1.00  0.00     0.191 HD
HETATM    9  N   UNL     1      -9.743   3.176 -30.201  1.00  0.00    -0.177 NA
HETATM   10  C   UNL     1      -8.971   4.252 -30.423  1.00  0.00     0.068 A 
HETATM   11  C   UNL     1      -9.521   5.606 -30.180  1.00  0.00     0.073 C 
ENDROOT
BRANCH   2  12
HETATM   12  S   UNL     1      -4.340   1.146 -32.218  1.00  0.00    -0.082 SA
BRANCH  12  13
HETATM   13  C   UNL     1      -5.230  -0.433 -32.172  1.00  0.00     0.185 C 
BRANCH  13  14
HETATM   14  C   UNL     1      -5.107  -1.204 -33.481  1.00  0.00     0.227 C 
HETATM   15  N   UNL     1      -6.213  -1.258 -34.290  1.00  0.00    -0.360 N 
HETATM   16  H   UNL     1      -6.079  -1.814 -35.130  1.00  0.00     0.162 HD
HETATM   17  O   UNL     1      -4.069  -1.750 -33.861  1.00  0.00    -0.273 OA
BRANCH  15  18
HETATM   18  C   UNL     1      -7.522  -0.676 -34.037  1.00  0.00     0.127 C 
BRANCH  18  19
HETATM   19  C   UNL     1      -7.722   0.687 -34.710  1.00  0.00     0.058 C 
BRANCH  19  20
HETATM   20  C   UNL     1      -8.962   1.422 -34.251  1.00  0.00    -0.054 A 
HETATM   21  C   UNL     1      -9.000   2.825 -34.206  1.00  0.00     0.046 A 
HETATM   22  C   UNL     1     -10.143   3.502 -33.764  1.00  0.00     0.102 A 
HETATM   23  C   UNL     1     -11.287   2.769 -33.395  1.00  0.00     0.101 A 
HETATM   24  C   UNL     1     -11.260   1.374 -33.464  1.00  0.00     0.040 A 
HETATM   25  C   UNL     1     -10.107   0.706 -33.888  1.00  0.00     0.010 A 
BRANCH  22  26
HETATM   26  O   UNL     1     -10.245   4.869 -33.678  1.00  0.00    -0.353 OA
HETATM   27  C   UNL     1      -9.147   5.640 -34.142  1.00  0.00     0.210 C 
ENDBRANCH  22  26
BRANCH  23  28
HETATM   28  O   UNL     1     -12.368   3.507 -32.979  1.00  0.00    -0.353 OA
HETATM   29  C   UNL     1     -13.600   2.825 -32.796  1.00  0.00     0.210 C 
ENDBRANCH  23  28
ENDBRANCH  19  20
ENDBRANCH  18  19
ENDBRANCH  15  18
ENDBRANCH  13  14
ENDBRANCH  12  13
ENDBRANCH   2  12
BRANCH   1  30
HETATM   30  C   UNL     1      -4.192   4.211 -32.191  1.00  0.00     0.051 A 
HETATM   31  C   UNL     1      -4.026   4.561 -33.549  1.00  0.00    -0.035 A 
HETATM   32  C   UNL     1      -5.145   4.487 -34.553  1.00  0.00     0.050 C 
HETATM   33  C   UNL     1      -2.781   5.053 -33.980  1.00  0.00     0.011 A 
HETATM   34  C   UNL     1      -1.705   5.153 -33.095  1.00  0.00     0.024 A 
HETATM   35  C   UNL     1      -1.869   4.784 -31.766  1.00  0.00     0.036 A 
HETATM   36  C   UNL     1      -3.101   4.321 -31.309  1.00  0.00     0.054 A 
HETATM   37 CL   UNL     1      -0.538   4.873 -30.681  1.00  0.00    -0.084 Cl
ENDBRANCH   1  30
BRANCH   6  38
HETATM   38  N   UNL     1      -6.371   5.827 -31.197  1.00  0.00    -0.384 N 
HETATM   39  H   UNL     1      -5.542   6.304 -31.518  1.00  0.00     0.157 HD
HETATM   40  H   UNL     1      -7.131   6.381 -30.823  1.00  0.00     0.157 HD
ENDBRANCH   6  38
TORSDOF 10
ENDMDL
MODEL 4
REMARK VINA RESULT:      -7.7      1.596      2.247
REMARK  10 active torsions:
REMARK  status: ('A' for Active; 'I' for Inactive)
REMARK    1  A    between atoms: C_3  and  N_4 
REMARK    2  A    between atoms: C_5  and  S_6 
REMARK    3  A    between atoms: S_6  and  C_7 
REMARK    4  A    between atoms: C_7  and  C_8 
REMARK       I    between atoms: C_8  and  N_9 
REMARK    5  A    between atoms: N_9  and  C_10 
REMARK    6  A    between atoms: C_10  and  C_11 
REMARK    7  A    between atoms: C_11  and  C_12 
REMARK    8  A    between atoms: C_14  and  O_15 
REMARK    9  A    between atoms: C_17  and  O_18 
REMARK   10  A    between atoms: C_26  and  N_27 
ROOT
HETATM    1  N   UNL     1      -5.342  -0.573 -33.220  1.00  0.00    -0.275 N 
HETATM    2  C   UNL     1      -6.537  -0.585 -33.986  1.00  0.00     0.177 A 
HETATM    3  N   UNL     1      -6.982  -1.587 -34.704  1.00  0.00    -0.204 NA
HETATM    4  C   UNL     1      -6.208  -2.693 -34.628  1.00  0.00     0.162 A 
HETATM    5  C   UNL     1      -5.045  -2.893 -33.938  1.00  0.00     0.081 A 
HETATM    6  C   UNL     1      -4.540  -1.786 -33.182  1.00  0.00     0.124 A 
HETATM    7  N   UNL     1      -6.468  -3.880 -35.247  1.00  0.00    -0.260 N 
HETATM    8  H   UNL     1      -7.255  -4.109 -35.842  1.00  0.00     0.191 HD
HETATM    9  N   UNL     1      -5.531  -4.822 -34.998  1.00  0.00    -0.177 NA
HETATM   10  C   UNL     1      -4.653  -4.219 -34.181  1.00  0.00     0.068 A 
HETATM   11  C   UNL     1      -3.479  -4.975 -33.686  1.00  0.00     0.073 C 
ENDROOT
BRANCH   2  12
HETATM   12  S   UNL     1      -7.540   0.878 -34.072  1.00  0.00    -0.082 SA
BRANCH  12  13
HETATM   13  C   UNL     1      -8.942   0.358 -33.047  1.00  0.00     0.185 C 
BRANCH  13  14
HETATM   14  C   UNL     1     -10.123   1.315 -33.155  1.00  0.00     0.227 C 
HETATM   15  N   UNL     1     -10.229   2.299 -32.204  1.00  0.00    -0.360 N 
HETATM   16  H   UNL     1     -11.053   2.883 -32.310  1.00  0.00     0.162 HD
HETATM   17  O   UNL     1     -10.962   1.272 -34.057  1.00  0.00    -0.273 OA
BRANCH  15  18
HETATM   18  C   UNL     1      -9.346   2.531 -31.071  1.00  0.00     0.127 C 
BRANCH  18  19
HETATM   19  C   UNL     1      -8.298   3.619 -31.330  1.00  0.00     0.058 C 
BRANCH  19  20
HETATM   20  C   UNL     1      -8.252   4.694 -30.266  1.00  0.00    -0.054 A 
HETATM   21  C   UNL     1      -7.249   4.701 -29.284  1.00  0.00     0.046 A 
HETATM   22  C   UNL     1      -7.221   5.687 -28.289  1.00  0.00     0.102 A 
HETATM   23  C   UNL     1      -8.189   6.708 -28.293  1.00  0.00     0.101 A 
HETATM   24  C   UNL     1      -9.172   6.717 -29.286  1.00  0.00     0.040 A 
HETATM   25  C   UNL     1      -9.205   5.718 -30.263  1.00  0.00     0.010 A 
BRANCH  22  26
HETATM   26  O   UNL     1      -6.280   5.747 -27.290  1.00  0.00    -0.353 OA
HETATM   27  C   UNL     1      -5.014   6.302 -27.612  1.00  0.00     0.210 C 
ENDBRANCH  22  26
BRANCH  23  28
HETATM   28  O   UNL     1      -8.088   7.640 -27.290  1.00  0.00    -0.353 OA
HETATM   29  C   UNL     1      -7.704   8.958 -27.650  1.00  0.00     0.210 C 
ENDBRANCH  23  28
ENDBRANCH  19  20
ENDBRANCH  18  19
ENDBRANCH  15  18
ENDBRANCH  13  14
ENDBRANCH  12  13
ENDBRANCH   2  12
BRANCH   1  30
HETATM   30  C   UNL     1      -4.971   0.555 -32.426  1.00  0.00     0.051 A 
HETATM   31  C   UNL     1      -5.529   0.788 -31.149  1.00  0.00    -0.035 A 
HETATM   32  C   UNL     1      -6.454  -0.188 -30.474  1.00  0.00     0.050 C 
HETATM   33  C   UNL     1      -5.166   1.951 -30.448  1.00  0.00     0.011 A 
HETATM   34  C   UNL     1      -4.305   2.892 -31.017  1.00  0.00     0.024 A 
HETATM   35  C   UNL     1      -3.779   2.668 -32.283  1.00  0.00     0.036 A 
HETATM   36  C   UNL     1      -4.101   1.508 -32.985  1.00  0.00     0.054 A 
HETATM   37 CL   UNL     1      -2.745   3.839 -33.001  1.00  0.00    -0.084 Cl
ENDBRANCH   1  30
BRANCH   6  38
HETATM   38  N   UNL     1      -3.403  -1.870 -32.519  1.00  0.00    -0.384 N 
HETATM   39  H   UNL     1      -3.332  -2.365 -31.643  1.00  0.00     0.157 HD
HETATM   40  H   UNL     1      -2.570  -1.437 -32.896  1.00  0.00     0.157 HD
ENDBRANCH   6  38
TORSDOF 10
ENDMDL
MODEL 5
REMARK VINA RESULT:      -7.7      3.229      5.775
REMARK  10 active torsions:
REMARK  status: ('A' for Active; 'I' for Inactive)
REMARK    1  A    between atoms: C_3  and  N_4 
REMARK    2  A    between atoms: C_5  and  S_6 
REMARK    3  A    between atoms: S_6  and  C_7 
REMARK    4  A    between atoms: C_7  and  C_8 
REMARK       I    between atoms: C_8  and  N_9 
REMARK    5  A    between atoms: N_9  and  C_10 
REMARK    6  A    between atoms: C_10  and  C_11 
REMARK    7  A    between atoms: C_11  and  C_12 
REMARK    8  A    between atoms: C_14  and  O_15 
REMARK    9  A    between atoms: C_17  and  O_18 
REMARK   10  A    between atoms: C_26  and  N_27 
ROOT
HETATM    1  N   UNL     1      -9.089   1.645 -33.123  1.00  0.00    -0.275 N 
HETATM    2  C   UNL     1      -9.290   3.035 -33.330  1.00  0.00     0.177 A 
HETATM    3  N   UNL     1     -10.428   3.612 -33.632  1.00  0.00    -0.204 NA
HETATM    4  C   UNL     1     -11.471   2.754 -33.692  1.00  0.00     0.162 A 
HETATM    5  C   UNL     1     -11.493   1.399 -33.505  1.00  0.00     0.081 A 
HETATM    6  C   UNL     1     -10.243   0.764 -33.211  1.00  0.00     0.124 A 
HETATM    7  N   UNL     1     -12.764   3.102 -33.947  1.00  0.00    -0.260 N 
HETATM    8  H   UNL     1     -13.132   4.029 -34.129  1.00  0.00     0.191 HD
HETATM    9  N   UNL     1     -13.608   2.046 -33.944  1.00  0.00    -0.177 NA
HETATM   10  C   UNL     1     -12.827   0.990 -33.662  1.00  0.00     0.068 A 
HETATM   11  C   UNL     1     -13.431  -0.358 -33.564  1.00  0.00     0.073 C 
ENDROOT
BRANCH   2  12
HETATM   12  S   UNL     1      -7.908   4.145 -33.246  1.00  0.00    -0.082 SA
BRANCH  12  13
HETATM   13  C   UNL     1      -8.512   5.304 -31.989  1.00  0.00     0.185 C 
BRANCH  13  14
HETATM   14  C   UNL     1      -8.833   4.609 -30.671  1.00  0.00     0.227 C 
HETATM   15  N   UNL     1      -7.828   4.518 -29.742  1.00  0.00    -0.360 N 
HETATM   16  H   UNL     1      -8.093   4.016 -28.899  1.00  0.00     0.162 HD
HETATM   17  O   UNL     1      -9.944   4.157 -30.386  1.00  0.00    -0.273 OA
BRANCH  15  18
HETATM   18  C   UNL     1      -6.459   4.995 -29.872  1.00  0.00     0.127 C 
BRANCH  18  19
HETATM   19  C   UNL     1      -5.438   3.867 -30.061  1.00  0.00     0.058 C 
BRANCH  19  20
HETATM   20  C   UNL     1      -4.296   4.223 -30.987  1.00  0.00    -0.054 A 
HETATM   21  C   UNL     1      -3.734   5.509 -30.986  1.00  0.00     0.046 A 
HETATM   22  C   UNL     1      -2.688   5.840 -31.857  1.00  0.00     0.102 A 
HETATM   23  C   UNL     1      -2.165   4.860 -32.721  1.00  0.00     0.101 A 
HETATM   24  C   UNL     1      -2.706   3.572 -32.704  1.00  0.00     0.040 A 
HETATM   25  C   UNL     1      -3.762   3.256 -31.845  1.00  0.00     0.010 A 
BRANCH  22  26
HETATM   26  O   UNL     1      -2.102   7.081 -31.922  1.00  0.00    -0.353 OA
HETATM   27  C   UNL     1      -1.366   7.521 -30.790  1.00  0.00     0.210 C 
ENDBRANCH  22  26
BRANCH  23  28
HETATM   28  O   UNL     1      -1.137   5.262 -33.538  1.00  0.00    -0.353 OA
HETATM   29  C   UNL     1      -1.392   5.330 -34.933  1.00  0.00     0.210 C 
ENDBRANCH  23  28
ENDBRANCH  19  20
ENDBRANCH  18  19
ENDBRANCH  15  18
ENDBRANCH  13  14
ENDBRANCH  12  13
ENDBRANCH   2  12
BRANCH   1  30
HETATM   30  C   UNL     1      -7.816   1.120 -32.745  1.00  0.00     0.051 A 
HETATM   31  C   UNL     1      -6.931   0.551 -33.687  1.00  0.00    -0.035 A 
HETATM   32  C   UNL     1      -7.198   0.565 -35.168  1.00  0.00     0.050 C 
HETATM   33  C   UNL     1      -5.721  -0.005 -33.237  1.00  0.00     0.011 A 
HETATM   34  C   UNL     1      -5.410  -0.042 -31.877  1.00  0.00     0.024 A 
HETATM   35  C   UNL     1      -6.296   0.499 -30.953  1.00  0.00     0.036 A 
HETATM   36  C   UNL     1      -7.489   1.081 -31.377  1.00  0.00     0.054 A 
HETATM   37 CL   UNL     1      -5.934   0.426 -29.274  1.00  0.00    -0.084 Cl
ENDBRANCH   1  30
BRANCH   6  38
HETATM   38  N   UNL     1     -10.158  -0.543 -33.058  1.00  0.00    -0.384 N 
HETATM   39  H   UNL     1      -9.518  -0.962 -32.401  1.00  0.00     0.157 HD
HETATM   40  H   UNL     1     -10.754  -1.152 -33.605  1.00  0.00     0.157 HD
ENDBRANCH   6  38
TORSDOF 10
ENDMDL
MODEL 6
REMARK VINA RESULT:      -7.5      3.541      6.657
REMARK  10 active torsions:
REMARK  status: ('A' for Active; 'I' for Inactive)
REMARK    1  A    between atoms: C_3  and  N_4 
REMARK    2  A    between atoms: C_5  and  S_6 
REMARK    3  A    between atoms: S_6  and  C_7 
REMARK    4  A    between atoms: C_7  and  C_8 
REMARK       I    between atoms: C_8  and  N_9 
REMARK    5  A    between atoms: N_9  and  C_10 
REMARK    6  A    between atoms: C_10  and  C_11 
REMARK    7  A    between atoms: C_11  and  C_12 
REMARK    8  A    between atoms: C_14  and  O_15 
REMARK    9  A    between atoms: C_17  and  O_18 
REMARK   10  A    between atoms: C_26  and  N_27 
ROOT
HETATM    1  N   UNL     1      -4.510   3.014 -31.903  1.00  0.00    -0.275 N 
HETATM    2  C   UNL     1      -5.275   3.599 -30.860  1.00  0.00     0.177 A 
HETATM    3  N   UNL     1      -5.057   4.768 -30.307  1.00  0.00    -0.204 NA
HETATM    4  C   UNL     1      -4.023   5.443 -30.857  1.00  0.00     0.162 A 
HETATM    5  C   UNL     1      -3.184   5.071 -31.871  1.00  0.00     0.081 A 
HETATM    6  C   UNL     1      -3.401   3.779 -32.451  1.00  0.00     0.124 A 
HETATM    7  N   UNL     1      -3.615   6.692 -30.493  1.00  0.00    -0.260 N 
HETATM    8  H   UNL     1      -4.009   7.288 -29.775  1.00  0.00     0.191 HD
HETATM    9  N   UNL     1      -2.558   7.133 -31.211  1.00  0.00    -0.177 NA
HETATM   10  C   UNL     1      -2.293   6.137 -32.071  1.00  0.00     0.068 A 
HETATM   11  C   UNL     1      -1.182   6.285 -33.040  1.00  0.00     0.073 C 
ENDROOT
BRANCH   2  12
HETATM   12  S   UNL     1      -6.629   2.697 -30.151  1.00  0.00    -0.082 SA
BRANCH  12  13
HETATM   13  C   UNL     1      -7.993   3.329 -31.164  1.00  0.00     0.185 C 
BRANCH  13  14
HETATM   14  C   UNL     1      -9.353   2.861 -30.660  1.00  0.00     0.227 C 
HETATM   15  N   UNL     1      -9.758   1.599 -31.015  1.00  0.00    -0.360 N 
HETATM   16  H   UNL     1     -10.686   1.358 -30.678  1.00  0.00     0.162 HD
HETATM   17  O   UNL     1     -10.086   3.535 -29.934  1.00  0.00    -0.273 OA
BRANCH  15  18
HETATM   18  C   UNL     1      -9.044   0.643 -31.848  1.00  0.00     0.127 C 
BRANCH  18  19
HETATM   19  C   UNL     1      -9.850   0.177 -33.066  1.00  0.00     0.058 C 
BRANCH  19  20
HETATM   20  C   UNL     1     -10.621   1.283 -33.752  1.00  0.00    -0.054 A 
HETATM   21  C   UNL     1      -9.969   2.421 -34.252  1.00  0.00     0.046 A 
HETATM   22  C   UNL     1     -10.688   3.451 -34.871  1.00  0.00     0.102 A 
HETATM   23  C   UNL     1     -12.081   3.331 -35.029  1.00  0.00     0.101 A 
HETATM   24  C   UNL     1     -12.728   2.187 -34.555  1.00  0.00     0.040 A 
HETATM   25  C   UNL     1     -12.005   1.172 -33.921  1.00  0.00     0.010 A 
BRANCH  22  26
HETATM   26  O   UNL     1     -10.118   4.599 -35.368  1.00  0.00    -0.353 OA
HETATM   27  C   UNL     1      -9.402   5.423 -34.460  1.00  0.00     0.210 C 
ENDBRANCH  22  26
BRANCH  23  28
HETATM   28  O   UNL     1     -12.711   4.380 -35.651  1.00  0.00    -0.353 OA
HETATM   29  C   UNL     1     -13.234   5.414 -34.831  1.00  0.00     0.210 C 
ENDBRANCH  23  28
ENDBRANCH  19  20
ENDBRANCH  18  19
ENDBRANCH  15  18
ENDBRANCH  13  14
ENDBRANCH  12  13
ENDBRANCH   2  12
BRANCH   1  30
HETATM   30  C   UNL     1      -4.862   1.754 -32.475  1.00  0.00     0.051 A 
HETATM   31  C   UNL     1      -4.222   0.554 -32.095  1.00  0.00    -0.035 A 
HETATM   32  C   UNL     1      -3.216   0.486 -30.977  1.00  0.00     0.050 C 
HETATM   33  C   UNL     1      -4.573  -0.643 -32.744  1.00  0.00     0.011 A 
HETATM   34  C   UNL     1      -5.505  -0.647 -33.783  1.00  0.00     0.024 A 
HETATM   35  C   UNL     1      -6.114   0.541 -34.168  1.00  0.00     0.036 A 
HETATM   36  C   UNL     1      -5.803   1.735 -33.521  1.00  0.00     0.054 A 
HETATM   37 CL   UNL     1      -7.237   0.545 -35.470  1.00  0.00    -0.084 Cl
ENDBRANCH   1  30
BRANCH   6  38
HETATM   38  N   UNL     1      -2.616   3.316 -33.405  1.00  0.00    -0.384 N 
HETATM   39  H   UNL     1      -2.696   2.372 -33.750  1.00  0.00     0.157 HD
HETATM   40  H   UNL     1      -1.916   3.920 -33.815  1.00  0.00     0.157 HD
ENDBRANCH   6  38
TORSDOF 10
ENDMDL
MODEL 7
REMARK VINA RESULT:      -7.4      3.704      7.094
REMARK  10 active torsions:
REMARK  status: ('A' for Active; 'I' for Inactive)
REMARK    1  A    between atoms: C_3  and  N_4 
REMARK    2  A    between atoms: C_5  and  S_6 
REMARK    3  A    between atoms: S_6  and  C_7 
REMARK    4  A    between atoms: C_7  and  C_8 
REMARK       I    between atoms: C_8  and  N_9 
REMARK    5  A    between atoms: N_9  and  C_10 
REMARK    6  A    between atoms: C_10  and  C_11 
REMARK    7  A    between atoms: C_11  and  C_12 
REMARK    8  A    between atoms: C_14  and  O_15 
REMARK    9  A    between atoms: C_17  and  O_18 
REMARK   10  A    between atoms: C_26  and  N_27 
ROOT
HETATM    1  N   UNL     1      -7.616   2.772 -33.331  1.00  0.00    -0.275 N 
HETATM    2  C   UNL     1      -6.859   3.968 -33.444  1.00  0.00     0.177 A 
HETATM    3  N   UNL     1      -7.291   5.112 -33.916  1.00  0.00    -0.204 NA
HETATM    4  C   UNL     1      -8.597   5.094 -34.267  1.00  0.00     0.162 A 
HETATM    5  C   UNL     1      -9.496   4.064 -34.216  1.00  0.00     0.081 A 
HETATM    6  C   UNL     1      -9.013   2.804 -33.734  1.00  0.00     0.124 A 
HETATM    7  N   UNL     1      -9.299   6.159 -34.747  1.00  0.00    -0.260 N 
HETATM    8  H   UNL     1      -8.961   7.100 -34.913  1.00  0.00     0.191 HD
HETATM    9  N   UNL     1     -10.591   5.866 -35.015  1.00  0.00    -0.177 NA
HETATM   10  C   UNL     1     -10.720   4.572 -34.679  1.00  0.00     0.068 A 
HETATM   11  C   UNL     1     -12.034   3.906 -34.832  1.00  0.00     0.073 C 
ENDROOT
BRANCH   2  12
HETATM   12  S   UNL     1      -5.146   3.972 -32.977  1.00  0.00    -0.082 SA
BRANCH  12  13
HETATM   13  C   UNL     1      -4.676   5.637 -33.519  1.00  0.00     0.185 C 
BRANCH  13  14
HETATM   14  C   UNL     1      -3.774   5.611 -34.747  1.00  0.00     0.227 C 
HETATM   15  N   UNL     1      -2.594   6.309 -34.680  1.00  0.00    -0.360 N 
HETATM   16  H   UNL     1      -2.053   6.282 -35.539  1.00  0.00     0.162 HD
HETATM   17  O   UNL     1      -4.029   4.980 -35.774  1.00  0.00    -0.273 OA
BRANCH  15  18
HETATM   18  C   UNL     1      -2.100   7.103 -33.565  1.00  0.00     0.127 C 
BRANCH  18  19
HETATM   19  C   UNL     1      -0.934   6.445 -32.819  1.00  0.00     0.058 C 
BRANCH  19  20
HETATM   20  C   UNL     1      -0.793   6.893 -31.381  1.00  0.00    -0.054 A 
HETATM   21  C   UNL     1      -1.903   7.345 -30.650  1.00  0.00     0.046 A 
HETATM   22  C   UNL     1      -1.766   7.776 -29.324  1.00  0.00     0.102 A 
HETATM   23  C   UNL     1      -0.506   7.721 -28.701  1.00  0.00     0.101 A 
HETATM   24  C   UNL     1       0.595   7.246 -29.419  1.00  0.00     0.040 A 
HETATM   25  C   UNL     1       0.452   6.836 -30.748  1.00  0.00     0.010 A 
BRANCH  22  26
HETATM   26  O   UNL     1      -2.803   8.245 -28.555  1.00  0.00    -0.353 OA
HETATM   27  C   UNL     1      -3.784   7.309 -28.133  1.00  0.00     0.210 C 
ENDBRANCH  22  26
BRANCH  23  28
HETATM   28  O   UNL     1      -0.457   8.155 -27.399  1.00  0.00    -0.353 OA
HETATM   29  C   UNL     1       0.238   7.347 -26.460  1.00  0.00     0.210 C 
ENDBRANCH  23  28
ENDBRANCH  19  20
ENDBRANCH  18  19
ENDBRANCH  15  18
ENDBRANCH  13  14
ENDBRANCH  12  13
ENDBRANCH   2  12
BRANCH   1  30
HETATM   30  C   UNL     1      -7.065   1.588 -32.752  1.00  0.00     0.051 A 
HETATM   31  C   UNL     1      -6.972   1.413 -31.354  1.00  0.00    -0.035 A 
HETATM   32  C   UNL     1      -7.554   2.391 -30.369  1.00  0.00     0.050 C 
HETATM   33  C   UNL     1      -6.362   0.250 -30.850  1.00  0.00     0.011 A 
HETATM   34  C   UNL     1      -5.811  -0.700 -31.712  1.00  0.00     0.024 A 
HETATM   35  C   UNL     1      -5.885  -0.509 -33.087  1.00  0.00     0.036 A 
HETATM   36  C   UNL     1      -6.510   0.621 -33.609  1.00  0.00     0.054 A 
HETATM   37 CL   UNL     1      -5.177  -1.660 -34.151  1.00  0.00    -0.084 Cl
ENDBRANCH   1  30
BRANCH   6  38
HETATM   38  N   UNL     1      -9.794   1.743 -33.689  1.00  0.00    -0.384 N 
HETATM   39  H   UNL     1     -10.108   1.276 -34.526  1.00  0.00     0.157 HD
HETATM   40  H   UNL     1     -10.086   1.372 -32.793  1.00  0.00     0.157 HD
ENDBRANCH   6  38
TORSDOF 10
ENDMDL
MODEL 8
REMARK VINA RESULT:      -7.4      4.480      8.137
REMARK  10 active torsions:
REMARK  status: ('A' for Active; 'I' for Inactive)
REMARK    1  A    between atoms: C_3  and  N_4 
REMARK    2  A    between atoms: C_5  and  S_6 
REMARK    3  A    between atoms: S_6  and  C_7 
REMARK    4  A    between atoms: C_7  and  C_8 
REMARK       I    between atoms: C_8  and  N_9 
REMARK    5  A    between atoms: N_9  and  C_10 
REMARK    6  A    between atoms: C_10  and  C_11 
REMARK    7  A    between atoms: C_11  and  C_12 
REMARK    8  A    between atoms: C_14  and  O_15 
REMARK    9  A    between atoms: C_17  and  O_18 
REMARK   10  A    between atoms: C_26  and  N_27 
ROOT
HETATM    1  N   UNL     1      -3.156   7.312 -30.861  1.00  0.00    -0.275 N 
HETATM    2  C   UNL     1      -4.572   7.216 -30.891  1.00  0.00     0.177 A 
HETATM    3  N   UNL     1      -5.290   6.713 -31.867  1.00  0.00    -0.204 NA
HETATM    4  C   UNL     1      -4.549   6.219 -32.884  1.00  0.00     0.162 A 
HETATM    5  C   UNL     1      -3.191   6.193 -33.037  1.00  0.00     0.081 A 
HETATM    6  C   UNL     1      -2.408   6.775 -31.987  1.00  0.00     0.124 A 
HETATM    7  N   UNL     1      -5.048   5.609 -33.997  1.00  0.00    -0.260 N 
HETATM    8  H   UNL     1      -6.019   5.439 -34.228  1.00  0.00     0.191 HD
HETATM    9  N   UNL     1      -4.085   5.205 -34.855  1.00  0.00    -0.177 NA
HETATM   10  C   UNL     1      -2.933   5.557 -34.261  1.00  0.00     0.068 A 
HETATM   11  C   UNL     1      -1.646   5.249 -34.926  1.00  0.00     0.073 C 
ENDROOT
BRANCH   2  12
HETATM   12  S   UNL     1      -5.527   7.870 -29.545  1.00  0.00    -0.082 SA
BRANCH  12  13
HETATM   13  C   UNL     1      -6.451   6.386 -29.065  1.00  0.00     0.185 C 
BRANCH  13  14
HETATM   14  C   UNL     1      -5.616   5.435 -28.217  1.00  0.00     0.227 C 
HETATM   15  N   UNL     1      -5.315   4.208 -28.753  1.00  0.00    -0.360 N 
HETATM   16  H   UNL     1      -4.786   3.607 -28.128  1.00  0.00     0.162 HD
HETATM   17  O   UNL     1      -5.175   5.716 -27.100  1.00  0.00    -0.273 OA
BRANCH  15  18
HETATM   18  C   UNL     1      -5.722   3.687 -30.049  1.00  0.00     0.127 C 
BRANCH  18  19
HETATM   19  C   UNL     1      -4.549   3.178 -30.895  1.00  0.00     0.058 C 
BRANCH  19  20
HETATM   20  C   UNL     1      -4.926   2.085 -31.872  1.00  0.00    -0.054 A 
HETATM   21  C   UNL     1      -4.299   0.830 -31.833  1.00  0.00     0.046 A 
HETATM   22  C   UNL     1      -4.636  -0.174 -32.750  1.00  0.00     0.102 A 
HETATM   23  C   UNL     1      -5.646   0.064 -33.702  1.00  0.00     0.101 A 
HETATM   24  C   UNL     1      -6.289   1.304 -33.724  1.00  0.00     0.040 A 
HETATM   25  C   UNL     1      -5.931   2.306 -32.818  1.00  0.00     0.010 A 
BRANCH  22  26
HETATM   26  O   UNL     1      -4.054  -1.417 -32.782  1.00  0.00    -0.353 OA
HETATM   27  C   UNL     1      -2.991  -1.668 -31.875  1.00  0.00     0.210 C 
ENDBRANCH  22  26
BRANCH  23  28
HETATM   28  O   UNL     1      -5.922  -0.972 -34.560  1.00  0.00    -0.353 OA
HETATM   29  C   UNL     1      -7.034  -1.801 -34.255  1.00  0.00     0.210 C 
ENDBRANCH  23  28
ENDBRANCH  19  20
ENDBRANCH  18  19
ENDBRANCH  15  18
ENDBRANCH  13  14
ENDBRANCH  12  13
ENDBRANCH   2  12
BRANCH   1  30
HETATM   30  C   UNL     1      -2.464   7.831 -29.724  1.00  0.00     0.051 A 
HETATM   31  C   UNL     1      -2.109   9.194 -29.622  1.00  0.00    -0.035 A 
HETATM   32  C   UNL     1      -2.538  10.225 -30.630  1.00  0.00     0.050 C 
HETATM   33  C   UNL     1      -1.372   9.625 -28.505  1.00  0.00     0.011 A 
HETATM   34  C   UNL     1      -0.952   8.718 -27.530  1.00  0.00     0.024 A 
HETATM   35  C   UNL     1      -1.284   7.374 -27.650  1.00  0.00     0.036 A 
HETATM   36  C   UNL     1      -2.038   6.928 -28.733  1.00  0.00     0.054 A 
HETATM   37 CL   UNL     1      -0.739   6.249 -26.470  1.00  0.00    -0.084 Cl
ENDBRANCH   1  30
BRANCH   6  38
HETATM   38  N   UNL     1      -1.093   6.836 -32.066  1.00  0.00    -0.384 N 
HETATM   39  H   UNL     1      -0.578   6.344 -32.779  1.00  0.00     0.157 HD
HETATM   40  H   UNL     1      -0.577   7.397 -31.400  1.00  0.00     0.157 HD
ENDBRANCH   6  38
TORSDOF 10
ENDMDL
MODEL 9
REMARK VINA RESULT:      -7.4      3.797      8.272
REMARK  10 active torsions:
REMARK  status: ('A' for Active; 'I' for Inactive)
REMARK    1  A    between atoms: C_3  and  N_4 
REMARK    2  A    between atoms: C_5  and  S_6 
REMARK    3  A    between atoms: S_6  and  C_7 
REMARK    4  A    between atoms: C_7  and  C_8 
REMARK       I    between atoms: C_8  and  N_9 
REMARK    5  A    between atoms: N_9  and  C_10 
REMARK    6  A    between atoms: C_10  and  C_11 
REMARK    7  A    between atoms: C_11  and  C_12 
REMARK    8  A    between atoms: C_14  and  O_15 
REMARK    9  A    between atoms: C_17  and  O_18 
REMARK   10  A    between atoms: C_26  and  N_27 
ROOT
HETATM    1  N   UNL     1     -11.105   4.062 -33.592  1.00  0.00    -0.275 N 
HETATM    2  C   UNL     1      -9.993   3.284 -33.177  1.00  0.00     0.177 A 
HETATM    3  N   UNL     1      -9.990   1.987 -32.982  1.00  0.00    -0.204 NA
HETATM    4  C   UNL     1     -11.172   1.395 -33.262  1.00  0.00     0.162 A 
HETATM    5  C   UNL     1     -12.344   1.955 -33.690  1.00  0.00     0.081 A 
HETATM    6  C   UNL     1     -12.357   3.376 -33.869  1.00  0.00     0.124 A 
HETATM    7  N   UNL     1     -11.422   0.057 -33.180  1.00  0.00    -0.260 N 
HETATM    8  H   UNL     1     -10.782  -0.677 -32.903  1.00  0.00     0.191 HD
HETATM    9  N   UNL     1     -12.689  -0.267 -33.521  1.00  0.00    -0.177 NA
HETATM   10  C   UNL     1     -13.262   0.904 -33.846  1.00  0.00     0.068 A 
HETATM   11  C   UNL     1     -14.674   0.927 -34.291  1.00  0.00     0.073 C 
ENDROOT
BRANCH   2  12
HETATM   12  S   UNL     1      -8.448   4.080 -32.815  1.00  0.00    -0.082 SA
BRANCH  12  13
HETATM   13  C   UNL     1      -7.330   3.070 -33.824  1.00  0.00     0.185 C 
BRANCH  13  14
HETATM   14  C   UNL     1      -5.864   3.372 -33.538  1.00  0.00     0.227 C 
HETATM   15  N   UNL     1      -5.256   2.661 -32.534  1.00  0.00    -0.360 N 
HETATM   16  H   UNL     1      -4.290   2.930 -32.369  1.00  0.00     0.162 HD
HETATM   17  O   UNL     1      -5.194   4.189 -34.172  1.00  0.00    -0.273 OA
BRANCH  15  18
HETATM   18  C   UNL     1      -5.858   1.649 -31.679  1.00  0.00     0.127 C 
BRANCH  18  19
HETATM   19  C   UNL     1      -4.999   0.388 -31.532  1.00  0.00     0.058 C 
BRANCH  19  20
HETATM   20  C   UNL     1      -5.224  -0.639 -32.620  1.00  0.00    -0.054 A 
HETATM   21  C   UNL     1      -4.289  -1.657 -32.862  1.00  0.00     0.046 A 
HETATM   22  C   UNL     1      -4.492  -2.595 -33.882  1.00  0.00     0.102 A 
HETATM   23  C   UNL     1      -5.668  -2.542 -34.654  1.00  0.00     0.101 A 
HETATM   24  C   UNL     1      -6.612  -1.544 -34.397  1.00  0.00     0.040 A 
HETATM   25  C   UNL     1      -6.391  -0.600 -33.389  1.00  0.00     0.010 A 
BRANCH  22  26
HETATM   26  O   UNL     1      -3.613  -3.607 -34.186  1.00  0.00    -0.353 OA
HETATM   27  C   UNL     1      -3.449  -4.644 -33.229  1.00  0.00     0.210 C 
ENDBRANCH  22  26
BRANCH  23  28
HETATM   28  O   UNL     1      -5.794  -3.500 -35.629  1.00  0.00    -0.353 OA
HETATM   29  C   UNL     1      -6.611  -4.626 -35.344  1.00  0.00     0.210 C 
ENDBRANCH  23  28
ENDBRANCH  19  20
ENDBRANCH  18  19
ENDBRANCH  15  18
ENDBRANCH  13  14
ENDBRANCH  12  13
ENDBRANCH   2  12
BRANCH   1  30
HETATM   30  C   UNL     1     -10.991   5.467 -33.828  1.00  0.00     0.051 A 
HETATM   31  C   UNL     1     -11.313   6.420 -32.838  1.00  0.00    -0.035 A 
HETATM   32  C   UNL     1     -11.676   6.040 -31.428  1.00  0.00     0.050 C 
HETATM   33  C   UNL     1     -11.239   7.787 -33.158  1.00  0.00     0.011 A 
HETATM   34  C   UNL     1     -10.900   8.205 -34.446  1.00  0.00     0.024 A 
HETATM   35  C   UNL     1     -10.608   7.260 -35.422  1.00  0.00     0.036 A 
HETATM   36  C   UNL     1     -10.647   5.900 -35.121  1.00  0.00     0.054 A 
HETATM   37 CL   UNL     1     -10.224   7.769 -37.019  1.00  0.00    -0.084 Cl
ENDBRANCH   1  30
BRANCH   6  38
HETATM   38  N   UNL     1     -13.453   4.011 -34.237  1.00  0.00    -0.384 N 
HETATM   39  H   UNL     1     -13.883   4.713 -33.655  1.00  0.00     0.157 HD
HETATM   40  H   UNL     1     -13.878   3.800 -35.131  1.00  0.00     0.157 HD
ENDBRANCH   6  38
TORSDOF 10
ENDMDL
MODEL 10
REMARK VINA RESULT:      -7.4      4.857      8.940
REMARK  10 active torsions:
REMARK  status: ('A' for Active; 'I' for Inactive)
REMARK    1  A    between atoms: C_3  and  N_4 
REMARK    2  A    between atoms: C_5  and  S_6 
REMARK    3  A    between atoms: S_6  and  C_7 
REMARK    4  A    between atoms: C_7  and  C_8 
REMARK       I    between atoms: C_8  and  N_9 
REMARK    5  A    between atoms: N_9  and  C_10 
REMARK    6  A    between atoms: C_10  and  C_11 
REMARK    7  A    between atoms: C_11  and  C_12 
REMARK    8  A    between atoms: C_14  and  O_15 
REMARK    9  A    between atoms: C_17  and  O_18 
REMARK   10  A    between atoms: C_26  and  N_27 
ROOT
HETATM    1  N   UNL     1      -2.176   6.627 -30.116  1.00  0.00    -0.275 N 
HETATM    2  C   UNL     1      -3.339   7.056 -29.423  1.00  0.00     0.177 A 
HETATM    3  N   UNL     1      -3.361   7.755 -28.315  1.00  0.00    -0.204 NA
HETATM    4  C   UNL     1      -2.133   8.104 -27.870  1.00  0.00     0.162 A 
HETATM    5  C   UNL     1      -0.904   7.814 -28.395  1.00  0.00     0.081 A 
HETATM    6  C   UNL     1      -0.879   7.019 -29.587  1.00  0.00     0.124 A 
HETATM    7  N   UNL     1      -1.881   8.862 -26.765  1.00  0.00    -0.260 N 
HETATM    8  H   UNL     1      -2.554   9.266 -26.124  1.00  0.00     0.191 HD
HETATM    9  N   UNL     1      -0.562   9.063 -26.550  1.00  0.00    -0.177 NA
HETATM   10  C   UNL     1       0.047   8.424 -27.562  1.00  0.00     0.068 A 
HETATM   11  C   UNL     1       1.525   8.446 -27.655  1.00  0.00     0.073 C 
ENDROOT
BRANCH   2  12
HETATM   12  S   UNL     1      -4.942   6.589 -30.025  1.00  0.00    -0.082 SA
BRANCH  12  13
HETATM   13  C   UNL     1      -5.429   5.409 -28.737  1.00  0.00     0.185 C 
BRANCH  13  14
HETATM   14  C   UNL     1      -6.814   4.823 -28.985  1.00  0.00     0.227 C 
HETATM   15  N   UNL     1      -6.882   3.587 -29.576  1.00  0.00    -0.360 N 
HETATM   16  H   UNL     1      -7.831   3.266 -29.746  1.00  0.00     0.162 HD
HETATM   17  O   UNL     1      -7.864   5.381 -28.658  1.00  0.00    -0.273 OA
BRANCH  15  18
HETATM   18  C   UNL     1      -5.771   2.760 -30.024  1.00  0.00     0.127 C 
BRANCH  18  19
HETATM   19  C   UNL     1      -6.001   1.261 -29.802  1.00  0.00     0.058 C 
BRANCH  19  20
HETATM   20  C   UNL     1      -6.264   0.486 -31.075  1.00  0.00    -0.054 A 
HETATM   21  C   UNL     1      -7.463   0.645 -31.788  1.00  0.00     0.046 A 
HETATM   22  C   UNL     1      -7.710  -0.088 -32.955  1.00  0.00     0.102 A 
HETATM   23  C   UNL     1      -6.729  -0.970 -33.445  1.00  0.00     0.101 A 
HETATM   24  C   UNL     1      -5.524  -1.109 -32.751  1.00  0.00     0.040 A 
HETATM   25  C   UNL     1      -5.294  -0.388 -31.576  1.00  0.00     0.010 A 
BRANCH  22  26
HETATM   26  O   UNL     1      -8.865   0.004 -33.693  1.00  0.00    -0.353 OA
HETATM   27  C   UNL     1     -10.027   0.492 -33.038  1.00  0.00     0.210 C 
ENDBRANCH  22  26
BRANCH  23  28
HETATM   28  O   UNL     1      -7.045  -1.645 -34.598  1.00  0.00    -0.353 OA
HETATM   29  C   UNL     1      -6.779  -3.039 -34.639  1.00  0.00     0.210 C 
ENDBRANCH  23  28
ENDBRANCH  19  20
ENDBRANCH  18  19
ENDBRANCH  15  18
ENDBRANCH  13  14
ENDBRANCH  12  13
ENDBRANCH   2  12
BRANCH   1  30
HETATM   30  C   UNL     1      -2.259   5.911 -31.349  1.00  0.00     0.051 A 
HETATM   31  C   UNL     1      -2.146   6.558 -32.599  1.00  0.00    -0.035 A 
HETATM   32  C   UNL     1      -1.808   8.019 -32.733  1.00  0.00     0.050 C 
HETATM   33  C   UNL     1      -2.300   5.804 -33.775  1.00  0.00     0.011 A 
HETATM   34  C   UNL     1      -2.607   4.443 -33.718  1.00  0.00     0.024 A 
HETATM   35  C   UNL     1      -2.740   3.817 -32.484  1.00  0.00     0.036 A 
HETATM   36  C   UNL     1      -2.563   4.538 -31.306  1.00  0.00     0.054 A 
HETATM   37 CL   UNL     1      -3.151   2.149 -32.409  1.00  0.00    -0.084 Cl
ENDBRANCH   1  30
BRANCH   6  38
HETATM   38  N   UNL     1       0.260   6.653 -30.142  1.00  0.00    -0.384 N 
HETATM   39  H   UNL     1       1.121   7.147 -29.968  1.00  0.00     0.157 HD
HETATM   40  H   UNL     1       0.282   5.848 -30.756  1.00  0.00     0.157 HD
ENDBRANCH   6  38
TORSDOF 10
ENDMDL
