MODEL 1
REMARK VINA RESULT:      -8.2      0.000      0.000
REMARK  5 active torsions:
REMARK  status: ('A' for Active; 'I' for Inactive)
REMARK    1  A    between atoms: C_2  and  C_3 
REMARK    2  A    between atoms: C_4  and  C_5 
REMARK    3  A    between atoms: C_8  and  C_9 
REMARK       I    between atoms: C_9  and  N_10 
REMARK    4  A    between atoms: N_10  and  C_11 
REMARK    5  A    between atoms: C_13  and  C_14 
ROOT
HETATM    1  C   UNL     1      -9.516   0.491 -33.112  1.00  0.00     0.280 C 
HETATM    2  N   UNL     1      -8.625   0.095 -34.095  1.00  0.00    -0.321 N 
HETATM    3  O   UNL     1      -9.281   0.519 -31.909  1.00  0.00    -0.265 OA
HETATM    4  H   UNL     1      -8.994   0.150 -35.039  1.00  0.00     0.169 HD
ENDROOT
BRANCH   2   5
HETATM    5  C   UNL     1      -7.289  -0.323 -33.948  1.00  0.00     0.035 A 
HETATM    6  C   UNL     1      -6.852  -1.636 -34.158  1.00  0.00     0.042 A 
HETATM    7  C   UNL     1      -5.505  -1.998 -33.974  1.00  0.00    -0.021 A 
HETATM    8  C   UNL     1      -4.595  -1.009 -33.575  1.00  0.00     0.012 A 
HETATM    9  C   UNL     1      -5.018   0.304 -33.371  1.00  0.00     0.003 A 
HETATM   10  C   UNL     1      -6.358   0.645 -33.558  1.00  0.00     0.029 A 
BRANCH   7  11
HETATM   11  C   UNL     1      -5.085  -3.377 -34.187  1.00  0.00     0.010 A 
HETATM   12  C   UNL     1      -5.747  -4.459 -34.822  1.00  0.00     0.152 A 
HETATM   13  N   UNL     1      -5.027  -5.584 -34.823  1.00  0.00    -0.187 NA
HETATM   14  N   UNL     1      -3.896  -5.230 -34.196  1.00  0.00    -0.289 N 
HETATM   15  H   UNL     1      -3.173  -5.932 -34.077  1.00  0.00     0.188 HD
HETATM   16  C   UNL     1      -3.880  -3.924 -33.796  1.00  0.00     0.123 A 
ENDBRANCH   7  11
ENDBRANCH   2   5
BRANCH   1  17
HETATM   17  C   UNL     1     -10.797   0.907 -33.652  1.00  0.00     0.144 A 
HETATM   18  O   UNL     1     -10.864   1.987 -34.492  1.00  0.00    -0.309 OA
HETATM   19  C   UNL     1     -12.173   2.158 -34.829  1.00  0.00     0.060 A 
HETATM   20  C   UNL     1     -12.968   1.204 -34.214  1.00  0.00    -0.026 A 
HETATM   21  C   UNL     1     -12.065   0.393 -33.467  1.00  0.00     0.052 A 
BRANCH  19  22
HETATM   22  C   UNL     1     -12.468   3.289 -35.748  1.00  0.00     0.061 C 
HETATM   23  C   UNL     1     -12.802   4.559 -34.982  1.00  0.00     0.012 C 
ENDBRANCH  19  22
BRANCH  20  24
HETATM   24  C   UNL     1     -14.454   1.076 -34.336  1.00  0.00     0.036 C 
HETATM   25  C   UNL     1     -15.245   1.691 -33.192  1.00  0.00     0.010 C 
ENDBRANCH  20  24
ENDBRANCH   1  17
TORSDOF 5
ENDMDL
MODEL 2
REMARK VINA RESULT:      -8.2      4.459      7.915
REMARK  5 active torsions:
REMARK  status: ('A' for Active; 'I' for Inactive)
REMARK    1  A    between atoms: C_2  and  C_3 
REMARK    2  A    between atoms: C_4  and  C_5 
REMARK    3  A    between atoms: C_8  and  C_9 
REMARK       I    between atoms: C_9  and  N_10 
REMARK    4  A    between atoms: N_10  and  C_11 
REMARK    5  A    between atoms: C_13  and  C_14 
ROOT
HETATM    1  C   UNL     1      -3.786   2.027 -32.122  1.00  0.00     0.280 C 
HETATM    2  N   UNL     1      -4.754   1.923 -33.106  1.00  0.00    -0.321 N 
HETATM    3  O   UNL     1      -3.613   1.228 -31.208  1.00  0.00    -0.265 OA
HETATM    4  H   UNL     1      -4.738   2.675 -33.787  1.00  0.00     0.169 HD
ENDROOT
BRANCH   2   5
HETATM    5  C   UNL     1      -5.705   0.902 -33.294  1.00  0.00     0.035 A 
HETATM    6  C   UNL     1      -5.385  -0.402 -33.684  1.00  0.00     0.042 A 
HETATM    7  C   UNL     1      -6.383  -1.375 -33.877  1.00  0.00    -0.021 A 
HETATM    8  C   UNL     1      -7.720  -1.013 -33.666  1.00  0.00     0.012 A 
HETATM    9  C   UNL     1      -8.049   0.283 -33.268  1.00  0.00     0.003 A 
HETATM   10  C   UNL     1      -7.047   1.235 -33.082  1.00  0.00     0.029 A 
BRANCH   7  11
HETATM   11  C   UNL     1      -6.016  -2.722 -34.298  1.00  0.00     0.010 A 
HETATM   12  C   UNL     1      -6.806  -3.770 -34.835  1.00  0.00     0.152 A 
HETATM   13  N   UNL     1      -6.098  -4.870 -35.107  1.00  0.00    -0.187 NA
HETATM   14  N   UNL     1      -4.850  -4.532 -34.752  1.00  0.00    -0.289 N 
HETATM   15  H   UNL     1      -4.114  -5.221 -34.873  1.00  0.00     0.188 HD
HETATM   16  C   UNL     1      -4.747  -3.262 -34.263  1.00  0.00     0.123 A 
ENDBRANCH   7  11
ENDBRANCH   2   5
BRANCH   1  17
HETATM   17  C   UNL     1      -2.948   3.201 -32.282  1.00  0.00     0.144 A 
HETATM   18  O   UNL     1      -2.221   3.667 -31.219  1.00  0.00    -0.309 OA
HETATM   19  C   UNL     1      -1.547   4.773 -31.643  1.00  0.00     0.060 A 
HETATM   20  C   UNL     1      -1.830   5.041 -32.974  1.00  0.00    -0.026 A 
HETATM   21  C   UNL     1      -2.725   4.009 -33.378  1.00  0.00     0.052 A 
BRANCH  19  22
HETATM   22  C   UNL     1      -0.684   5.440 -30.632  1.00  0.00     0.061 C 
HETATM   23  C   UNL     1       0.787   5.133 -30.863  1.00  0.00     0.012 C 
ENDBRANCH  19  22
BRANCH  20  24
HETATM   24  C   UNL     1      -1.286   6.175 -33.784  1.00  0.00     0.036 C 
HETATM   25  C   UNL     1      -1.762   7.555 -33.354  1.00  0.00     0.010 C 
ENDBRANCH  20  24
ENDBRANCH   1  17
TORSDOF 5
ENDMDL
MODEL 3
REMARK VINA RESULT:      -8.1      2.637      8.359
REMARK  5 active torsions:
REMARK  status: ('A' for Active; 'I' for Inactive)
REMARK    1  A    between atoms: C_2  and  C_3 
REMARK    2  A    between atoms: C_4  and  C_5 
REMARK    3  A    between atoms: C_8  and  C_9 
REMARK       I    between atoms: C_9  and  N_10 
REMARK    4  A    between atoms: N_10  and  C_11 
REMARK    5  A    between atoms: C_13  and  C_14 
ROOT
HETATM    1  C   UNL     1      -7.019  -0.126 -34.316  1.00  0.00     0.280 C 
HETATM    2  N   UNL     1      -7.886   0.089 -33.258  1.00  0.00    -0.321 N 
HETATM    3  O   UNL     1      -7.108   0.391 -35.424  1.00  0.00    -0.265 OA
HETATM    4  H   UNL     1      -7.645  -0.418 -32.412  1.00  0.00     0.169 HD
ENDROOT
BRANCH   2   5
HETATM    5  C   UNL     1      -9.006   0.939 -33.204  1.00  0.00     0.035 A 
HETATM    6  C   UNL     1     -10.309   0.537 -33.516  1.00  0.00     0.042 A 
HETATM    7  C   UNL     1     -11.387   1.439 -33.464  1.00  0.00    -0.021 A 
HETATM    8  C   UNL     1     -11.132   2.765 -33.086  1.00  0.00     0.012 A 
HETATM    9  C   UNL     1      -9.838   3.174 -32.764  1.00  0.00     0.003 A 
HETATM   10  C   UNL     1      -8.782   2.266 -32.821  1.00  0.00     0.029 A 
BRANCH   7  11
HETATM   11  C   UNL     1     -12.731   0.992 -33.810  1.00  0.00     0.010 A 
HETATM   12  C   UNL     1     -13.795   1.671 -34.456  1.00  0.00     0.152 A 
HETATM   13  N   UNL     1     -14.885   0.913 -34.602  1.00  0.00    -0.187 NA
HETATM   14  N   UNL     1     -14.525  -0.258 -34.058  1.00  0.00    -0.289 N 
HETATM   15  H   UNL     1     -15.202  -1.014 -34.056  1.00  0.00     0.188 HD
HETATM   16  C   UNL     1     -13.250  -0.264 -33.571  1.00  0.00     0.123 A 
ENDBRANCH   7  11
ENDBRANCH   2   5
BRANCH   1  17
HETATM   17  C   UNL     1      -5.942  -1.039 -33.980  1.00  0.00     0.144 A 
HETATM   18  O   UNL     1      -5.050  -0.706 -32.995  1.00  0.00    -0.309 OA
HETATM   19  C   UNL     1      -4.149  -1.723 -32.904  1.00  0.00     0.060 A 
HETATM   20  C   UNL     1      -4.436  -2.719 -33.824  1.00  0.00    -0.026 A 
HETATM   21  C   UNL     1      -5.605  -2.270 -34.504  1.00  0.00     0.052 A 
BRANCH  19  22
HETATM   22  C   UNL     1      -3.083  -1.562 -31.879  1.00  0.00     0.061 C 
HETATM   23  C   UNL     1      -3.069  -0.155 -31.304  1.00  0.00     0.012 C 
ENDBRANCH  19  22
BRANCH  20  24
HETATM   24  C   UNL     1      -3.667  -3.986 -34.028  1.00  0.00     0.036 C 
HETATM   25  C   UNL     1      -4.519  -5.240 -34.151  1.00  0.00     0.010 C 
ENDBRANCH  20  24
ENDBRANCH   1  17
TORSDOF 5
ENDMDL
MODEL 4
REMARK VINA RESULT:      -7.8      2.708      8.483
REMARK  5 active torsions:
REMARK  status: ('A' for Active; 'I' for Inactive)
REMARK    1  A    between atoms: C_2  and  C_3 
REMARK    2  A    between atoms: C_4  and  C_5 
REMARK    3  A    between atoms: C_8  and  C_9 
REMARK       I    between atoms: C_9  and  N_10 
REMARK    4  A    between atoms: N_10  and  C_11 
REMARK    5  A    between atoms: C_13  and  C_14 
ROOT
HETATM    1  C   UNL     1      -8.269   0.316 -32.912  1.00  0.00     0.280 C 
HETATM    2  N   UNL     1      -8.816   1.046 -33.954  1.00  0.00    -0.321 N 
HETATM    3  O   UNL     1      -8.616   0.384 -31.737  1.00  0.00    -0.265 OA
HETATM    4  H   UNL     1      -8.407   0.847 -34.861  1.00  0.00     0.169 HD
ENDROOT
BRANCH   2   5
HETATM    5  C   UNL     1      -9.873   1.974 -33.911  1.00  0.00     0.035 A 
HETATM    6  C   UNL     1     -11.210   1.628 -33.688  1.00  0.00     0.042 A 
HETATM    7  C   UNL     1     -12.226   2.600 -33.677  1.00  0.00    -0.021 A 
HETATM    8  C   UNL     1     -11.874   3.939 -33.894  1.00  0.00     0.012 A 
HETATM    9  C   UNL     1     -10.542   4.297 -34.109  1.00  0.00     0.003 A 
HETATM   10  C   UNL     1      -9.547   3.319 -34.116  1.00  0.00     0.029 A 
BRANCH   7  11
HETATM   11  C   UNL     1     -13.612   2.204 -33.456  1.00  0.00     0.010 A 
HETATM   12  C   UNL     1     -14.520   2.551 -32.425  1.00  0.00     0.152 A 
HETATM   13  N   UNL     1     -15.720   1.984 -32.573  1.00  0.00    -0.187 NA
HETATM   14  N   UNL     1     -15.591   1.275 -33.703  1.00  0.00    -0.289 N 
HETATM   15  H   UNL     1     -16.393   0.748 -34.033  1.00  0.00     0.188 HD
HETATM   16  C   UNL     1     -14.353   1.372 -34.270  1.00  0.00     0.123 A 
ENDBRANCH   7  11
ENDBRANCH   2   5
BRANCH   1  17
HETATM   17  C   UNL     1      -7.221  -0.587 -33.350  1.00  0.00     0.144 A 
HETATM   18  O   UNL     1      -5.935  -0.398 -32.917  1.00  0.00    -0.309 OA
HETATM   19  C   UNL     1      -5.168  -1.368 -33.488  1.00  0.00     0.060 A 
HETATM   20  C   UNL     1      -5.937  -2.189 -34.298  1.00  0.00    -0.026 A 
HETATM   21  C   UNL     1      -7.263  -1.682 -34.189  1.00  0.00     0.052 A 
BRANCH  19  22
HETATM   22  C   UNL     1      -3.722  -1.346 -33.142  1.00  0.00     0.061 C 
HETATM   23  C   UNL     1      -3.382  -2.393 -32.095  1.00  0.00     0.012 C 
ENDBRANCH  19  22
BRANCH  20  24
HETATM   24  C   UNL     1      -5.447  -3.356 -35.097  1.00  0.00     0.036 C 
HETATM   25  C   UNL     1      -6.438  -4.503 -35.228  1.00  0.00     0.010 C 
ENDBRANCH  20  24
ENDBRANCH   1  17
TORSDOF 5
ENDMDL
MODEL 5
REMARK VINA RESULT:      -7.7      4.118      7.230
REMARK  5 active torsions:
REMARK  status: ('A' for Active; 'I' for Inactive)
REMARK    1  A    between atoms: C_2  and  C_3 
REMARK    2  A    between atoms: C_4  and  C_5 
REMARK    3  A    between atoms: C_8  and  C_9 
REMARK       I    between atoms: C_9  and  N_10 
REMARK    4  A    between atoms: N_10  and  C_11 
REMARK    5  A    between atoms: C_13  and  C_14 
ROOT
HETATM    1  C   UNL     1      -4.752   2.066 -32.029  1.00  0.00     0.280 C 
HETATM    2  N   UNL     1      -5.188   1.853 -33.325  1.00  0.00    -0.321 N 
HETATM    3  O   UNL     1      -4.952   1.316 -31.079  1.00  0.00    -0.265 OA
HETATM    4  H   UNL     1      -4.917   2.578 -33.981  1.00  0.00     0.169 HD
ENDROOT
BRANCH   2   5
HETATM    5  C   UNL     1      -5.906   0.756 -33.838  1.00  0.00     0.035 A 
HETATM    6  C   UNL     1      -5.413  -0.553 -33.875  1.00  0.00     0.042 A 
HETATM    7  C   UNL     1      -6.171  -1.606 -34.420  1.00  0.00    -0.021 A 
HETATM    8  C   UNL     1      -7.445  -1.320 -34.928  1.00  0.00     0.012 A 
HETATM    9  C   UNL     1      -7.950  -0.020 -34.887  1.00  0.00     0.003 A 
HETATM   10  C   UNL     1      -7.185   1.012 -34.344  1.00  0.00     0.029 A 
BRANCH   7  11
HETATM   11  C   UNL     1      -5.622  -2.956 -34.457  1.00  0.00     0.010 A 
HETATM   12  C   UNL     1      -6.199  -4.178 -34.885  1.00  0.00     0.152 A 
HETATM   13  N   UNL     1      -5.367  -5.217 -34.770  1.00  0.00    -0.187 NA
HETATM   14  N   UNL     1      -4.249  -4.667 -34.276  1.00  0.00    -0.289 N 
HETATM   15  H   UNL     1      -3.453  -5.272 -34.104  1.00  0.00     0.188 HD
HETATM   16  C   UNL     1      -4.348  -3.321 -34.071  1.00  0.00     0.123 A 
ENDBRANCH   7  11
ENDBRANCH   2   5
BRANCH   1  17
HETATM   17  C   UNL     1      -3.992   3.294 -31.888  1.00  0.00     0.144 A 
HETATM   18  O   UNL     1      -2.896   3.510 -32.681  1.00  0.00    -0.309 OA
HETATM   19  C   UNL     1      -2.373   4.718 -32.329  1.00  0.00     0.060 A 
HETATM   20  C   UNL     1      -3.111   5.294 -31.307  1.00  0.00    -0.026 A 
HETATM   21  C   UNL     1      -4.162   4.370 -31.041  1.00  0.00     0.052 A 
BRANCH  19  22
HETATM   22  C   UNL     1      -1.165   5.151 -33.080  1.00  0.00     0.061 C 
HETATM   23  C   UNL     1      -1.502   5.519 -34.516  1.00  0.00     0.012 C 
ENDBRANCH  19  22
BRANCH  20  24
HETATM   24  C   UNL     1      -2.839   6.611 -30.651  1.00  0.00     0.036 C 
HETATM   25  C   UNL     1      -1.585   6.651 -29.790  1.00  0.00     0.010 C 
ENDBRANCH  20  24
ENDBRANCH   1  17
TORSDOF 5
ENDMDL
MODEL 6
REMARK VINA RESULT:      -7.6      6.599      9.497
REMARK  5 active torsions:
REMARK  status: ('A' for Active; 'I' for Inactive)
REMARK    1  A    between atoms: C_2  and  C_3 
REMARK    2  A    between atoms: C_4  and  C_5 
REMARK    3  A    between atoms: C_8  and  C_9 
REMARK       I    between atoms: C_9  and  N_10 
REMARK    4  A    between atoms: N_10  and  C_11 
REMARK    5  A    between atoms: C_13  and  C_14 
ROOT
HETATM    1  C   UNL     1      -4.082   3.118 -32.147  1.00  0.00     0.280 C 
HETATM    2  N   UNL     1      -2.870   3.433 -32.737  1.00  0.00    -0.321 N 
HETATM    3  O   UNL     1      -4.668   3.804 -31.316  1.00  0.00    -0.265 OA
HETATM    4  H   UNL     1      -2.545   2.749 -33.412  1.00  0.00     0.169 HD
ENDROOT
BRANCH   2   5
HETATM    5  C   UNL     1      -2.077   4.581 -32.548  1.00  0.00     0.035 A 
HETATM    6  C   UNL     1      -1.489   4.934 -31.328  1.00  0.00     0.042 A 
HETATM    7  C   UNL     1      -0.724   6.106 -31.197  1.00  0.00    -0.021 A 
HETATM    8  C   UNL     1      -0.554   6.925 -32.321  1.00  0.00     0.012 A 
HETATM    9  C   UNL     1      -1.128   6.578 -33.545  1.00  0.00     0.003 A 
HETATM   10  C   UNL     1      -1.884   5.411 -33.657  1.00  0.00     0.029 A 
BRANCH   7  11
HETATM   11  C   UNL     1      -0.138   6.453 -29.908  1.00  0.00     0.010 A 
HETATM   12  C   UNL     1      -0.075   7.693 -29.223  1.00  0.00     0.152 A 
HETATM   13  N   UNL     1       0.549   7.609 -28.045  1.00  0.00    -0.187 NA
HETATM   14  N   UNL     1       0.883   6.313 -27.963  1.00  0.00    -0.289 N 
HETATM   15  H   UNL     1       1.374   5.996 -27.133  1.00  0.00     0.188 HD
HETATM   16  C   UNL     1       0.497   5.580 -29.048  1.00  0.00     0.123 A 
ENDBRANCH   7  11
ENDBRANCH   2   5
BRANCH   1  17
HETATM   17  C   UNL     1      -4.631   1.865 -32.631  1.00  0.00     0.144 A 
HETATM   18  O   UNL     1      -3.875   0.724 -32.576  1.00  0.00    -0.309 OA
HETATM   19  C   UNL     1      -4.624  -0.285 -33.103  1.00  0.00     0.060 A 
HETATM   20  C   UNL     1      -5.863   0.184 -33.510  1.00  0.00    -0.026 A 
HETATM   21  C   UNL     1      -5.860   1.572 -33.186  1.00  0.00     0.052 A 
BRANCH  19  22
HETATM   22  C   UNL     1      -3.983  -1.626 -33.135  1.00  0.00     0.061 C 
HETATM   23  C   UNL     1      -3.115  -1.860 -31.909  1.00  0.00     0.012 C 
ENDBRANCH  19  22
BRANCH  20  24
HETATM   24  C   UNL     1      -6.953  -0.623 -34.143  1.00  0.00     0.036 C 
HETATM   25  C   UNL     1      -7.706   0.082 -35.260  1.00  0.00     0.010 C 
ENDBRANCH  20  24
ENDBRANCH   1  17
TORSDOF 5
ENDMDL
MODEL 7
REMARK VINA RESULT:      -7.6      7.527     10.485
REMARK  5 active torsions:
REMARK  status: ('A' for Active; 'I' for Inactive)
REMARK    1  A    between atoms: C_2  and  C_3 
REMARK    2  A    between atoms: C_4  and  C_5 
REMARK    3  A    between atoms: C_8  and  C_9 
REMARK       I    between atoms: C_9  and  N_10 
REMARK    4  A    between atoms: N_10  and  C_11 
REMARK    5  A    between atoms: C_13  and  C_14 
ROOT
HETATM    1  C   UNL     1      -1.341   5.266 -31.020  1.00  0.00     0.280 C 
HETATM    2  N   UNL     1      -2.641   4.867 -30.763  1.00  0.00    -0.321 N 
HETATM    3  O   UNL     1      -0.634   4.845 -31.929  1.00  0.00    -0.265 OA
HETATM    4  H   UNL     1      -3.073   5.336 -29.973  1.00  0.00     0.169 HD
ENDROOT
BRANCH   2   5
HETATM    5  C   UNL     1      -3.430   3.945 -31.477  1.00  0.00     0.035 A 
HETATM    6  C   UNL     1      -3.209   2.564 -31.479  1.00  0.00     0.042 A 
HETATM    7  C   UNL     1      -4.020   1.693 -32.229  1.00  0.00    -0.021 A 
HETATM    8  C   UNL     1      -5.068   2.238 -32.982  1.00  0.00     0.012 A 
HETATM    9  C   UNL     1      -5.304   3.613 -32.980  1.00  0.00     0.003 A 
HETATM   10  C   UNL     1      -4.490   4.462 -32.230  1.00  0.00     0.029 A 
BRANCH   7  11
HETATM   11  C   UNL     1      -3.753   0.260 -32.222  1.00  0.00     0.010 A 
HETATM   12  C   UNL     1      -4.224  -0.774 -33.070  1.00  0.00     0.152 A 
HETATM   13  N   UNL     1      -3.744  -1.977 -32.745  1.00  0.00    -0.187 NA
HETATM   14  N   UNL     1      -2.956  -1.722 -31.690  1.00  0.00    -0.289 N 
HETATM   15  H   UNL     1      -2.465  -2.498 -31.260  1.00  0.00     0.188 HD
HETATM   16  C   UNL     1      -2.926  -0.403 -31.338  1.00  0.00     0.123 A 
ENDBRANCH   7  11
ENDBRANCH   2   5
BRANCH   1  17
HETATM   17  C   UNL     1      -0.873   6.281 -30.094  1.00  0.00     0.144 A 
HETATM   18  O   UNL     1      -1.774   7.118 -29.489  1.00  0.00    -0.309 OA
HETATM   19  C   UNL     1      -1.067   7.969 -28.695  1.00  0.00     0.060 A 
HETATM   20  C   UNL     1       0.292   7.704 -28.776  1.00  0.00    -0.026 A 
HETATM   21  C   UNL     1       0.402   6.602 -29.673  1.00  0.00     0.052 A 
BRANCH  19  22
HETATM   22  C   UNL     1      -1.864   8.969 -27.936  1.00  0.00     0.061 C 
HETATM   23  C   UNL     1      -1.818  10.337 -28.597  1.00  0.00     0.012 C 
ENDBRANCH  19  22
BRANCH  20  24
HETATM   24  C   UNL     1       1.382   8.433 -28.056  1.00  0.00     0.036 C 
HETATM   25  C   UNL     1       1.667   7.930 -26.649  1.00  0.00     0.010 C 
ENDBRANCH  20  24
ENDBRANCH   1  17
TORSDOF 5
ENDMDL
MODEL 8
REMARK VINA RESULT:      -7.6      5.053      9.033
REMARK  5 active torsions:
REMARK  status: ('A' for Active; 'I' for Inactive)
REMARK    1  A    between atoms: C_2  and  C_3 
REMARK    2  A    between atoms: C_4  and  C_5 
REMARK    3  A    between atoms: C_8  and  C_9 
REMARK       I    between atoms: C_9  and  N_10 
REMARK    4  A    between atoms: N_10  and  C_11 
REMARK    5  A    between atoms: C_13  and  C_14 
ROOT
HETATM    1  C   UNL     1      -3.293   2.645 -31.862  1.00  0.00     0.280 C 
HETATM    2  N   UNL     1      -4.381   2.558 -32.714  1.00  0.00    -0.321 N 
HETATM    3  O   UNL     1      -2.930   1.772 -31.081  1.00  0.00    -0.265 OA
HETATM    4  H   UNL     1      -4.520   3.377 -33.297  1.00  0.00     0.169 HD
ENDROOT
BRANCH   2   5
HETATM    5  C   UNL     1      -5.268   1.480 -32.893  1.00  0.00     0.035 A 
HETATM    6  C   UNL     1      -6.653   1.621 -33.032  1.00  0.00     0.042 A 
HETATM    7  C   UNL     1      -7.491   0.501 -33.188  1.00  0.00    -0.021 A 
HETATM    8  C   UNL     1      -6.908  -0.773 -33.205  1.00  0.00     0.012 A 
HETATM    9  C   UNL     1      -5.527  -0.924 -33.076  1.00  0.00     0.003 A 
HETATM   10  C   UNL     1      -4.712   0.196 -32.923  1.00  0.00     0.029 A 
BRANCH   7  11
HETATM   11  C   UNL     1      -8.931   0.682 -33.315  1.00  0.00     0.010 A 
HETATM   12  C   UNL     1      -9.684   1.638 -34.043  1.00  0.00     0.152 A 
HETATM   13  N   UNL     1     -11.003   1.473 -33.913  1.00  0.00    -0.187 NA
HETATM   14  N   UNL     1     -11.105   0.406 -33.108  1.00  0.00    -0.289 N 
HETATM   15  H   UNL     1     -12.034   0.077 -32.863  1.00  0.00     0.188 HD
HETATM   16  C   UNL     1      -9.899  -0.104 -32.722  1.00  0.00     0.123 A 
ENDBRANCH   7  11
ENDBRANCH   2   5
BRANCH   1  17
HETATM   17  C   UNL     1      -2.579   3.902 -31.992  1.00  0.00     0.144 A 
HETATM   18  O   UNL     1      -1.377   4.071 -31.355  1.00  0.00    -0.309 OA
HETATM   19  C   UNL     1      -0.945   5.332 -31.635  1.00  0.00     0.060 A 
HETATM   20  C   UNL     1      -1.854   5.996 -32.443  1.00  0.00    -0.026 A 
HETATM   21  C   UNL     1      -2.898   5.056 -32.678  1.00  0.00     0.052 A 
BRANCH  19  22
HETATM   22  C   UNL     1       0.359   5.722 -31.036  1.00  0.00     0.061 C 
HETATM   23  C   UNL     1       0.526   5.150 -29.638  1.00  0.00     0.012 C 
ENDBRANCH  19  22
BRANCH  20  24
HETATM   24  C   UNL     1      -1.730   7.398 -32.951  1.00  0.00     0.036 C 
HETATM   25  C   UNL     1      -1.966   8.480 -31.907  1.00  0.00     0.010 C 
ENDBRANCH  20  24
ENDBRANCH   1  17
TORSDOF 5
ENDMDL
MODEL 9
REMARK VINA RESULT:      -7.5      6.479      9.398
REMARK  5 active torsions:
REMARK  status: ('A' for Active; 'I' for Inactive)
REMARK    1  A    between atoms: C_2  and  C_3 
REMARK    2  A    between atoms: C_4  and  C_5 
REMARK    3  A    between atoms: C_8  and  C_9 
REMARK       I    between atoms: C_9  and  N_10 
REMARK    4  A    between atoms: N_10  and  C_11 
REMARK    5  A    between atoms: C_13  and  C_14 
ROOT
HETATM    1  C   UNL     1      -4.110   2.973 -32.296  1.00  0.00     0.280 C 
HETATM    2  N   UNL     1      -2.801   3.235 -32.661  1.00  0.00    -0.321 N 
HETATM    3  O   UNL     1      -4.866   3.766 -31.743  1.00  0.00    -0.265 OA
HETATM    4  H   UNL     1      -2.333   2.460 -33.119  1.00  0.00     0.169 HD
ENDROOT
BRANCH   2   5
HETATM    5  C   UNL     1      -2.074   4.432 -32.515  1.00  0.00     0.035 A 
HETATM    6  C   UNL     1      -1.499   4.856 -31.312  1.00  0.00     0.042 A 
HETATM    7  C   UNL     1      -0.801   6.075 -31.224  1.00  0.00    -0.021 A 
HETATM    8  C   UNL     1      -0.688   6.866 -32.375  1.00  0.00     0.012 A 
HETATM    9  C   UNL     1      -1.250   6.448 -33.581  1.00  0.00     0.003 A 
HETATM   10  C   UNL     1      -1.938   5.237 -33.651  1.00  0.00     0.029 A 
BRANCH   7  11
HETATM   11  C   UNL     1      -0.226   6.495 -29.952  1.00  0.00     0.010 A 
HETATM   12  C   UNL     1      -0.224   7.759 -29.309  1.00  0.00     0.152 A 
HETATM   13  N   UNL     1       0.410   7.746 -28.134  1.00  0.00    -0.187 NA
HETATM   14  N   UNL     1       0.812   6.474 -28.011  1.00  0.00    -0.289 N 
HETATM   15  H   UNL     1       1.324   6.211 -27.175  1.00  0.00     0.188 HD
HETATM   16  C   UNL     1       0.458   5.685 -29.068  1.00  0.00     0.123 A 
ENDBRANCH   7  11
ENDBRANCH   2   5
BRANCH   1  17
HETATM   17  C   UNL     1      -4.535   1.633 -32.654  1.00  0.00     0.144 A 
HETATM   18  O   UNL     1      -5.799   1.427 -33.141  1.00  0.00    -0.309 OA
HETATM   19  C   UNL     1      -5.929   0.091 -33.376  1.00  0.00     0.060 A 
HETATM   20  C   UNL     1      -4.765  -0.583 -33.042  1.00  0.00    -0.026 A 
HETATM   21  C   UNL     1      -3.868   0.426 -32.590  1.00  0.00     0.052 A 
BRANCH  19  22
HETATM   22  C   UNL     1      -7.242  -0.351 -33.918  1.00  0.00     0.061 C 
HETATM   23  C   UNL     1      -7.454   0.142 -35.339  1.00  0.00     0.012 C 
ENDBRANCH  19  22
BRANCH  20  24
HETATM   24  C   UNL     1      -4.532  -2.057 -33.153  1.00  0.00     0.036 C 
HETATM   25  C   UNL     1      -4.529  -2.599 -34.575  1.00  0.00     0.010 C 
ENDBRANCH  20  24
ENDBRANCH   1  17
TORSDOF 5
ENDMDL
MODEL 10
REMARK VINA RESULT:      -7.5      2.200      2.928
REMARK  5 active torsions:
REMARK  status: ('A' for Active; 'I' for Inactive)
REMARK    1  A    between atoms: C_2  and  C_3 
REMARK    2  A    between atoms: C_4  and  C_5 
REMARK    3  A    between atoms: C_8  and  C_9 
REMARK       I    between atoms: C_9  and  N_10 
REMARK    4  A    between atoms: N_10  and  C_11 
REMARK    5  A    between atoms: C_13  and  C_14 
ROOT
HETATM    1  C   UNL     1      -8.923   1.316 -33.972  1.00  0.00     0.280 C 
HETATM    2  N   UNL     1      -8.708  -0.032 -33.741  1.00  0.00    -0.321 N 
HETATM    3  O   UNL     1      -8.053   2.141 -34.231  1.00  0.00    -0.265 OA
HETATM    4  H   UNL     1      -9.553  -0.563 -33.554  1.00  0.00     0.169 HD
ENDROOT
BRANCH   2   5
HETATM    5  C   UNL     1      -7.494  -0.743 -33.779  1.00  0.00     0.035 A 
HETATM    6  C   UNL     1      -6.376  -0.424 -33.000  1.00  0.00     0.042 A 
HETATM    7  C   UNL     1      -5.181  -1.160 -33.097  1.00  0.00    -0.021 A 
HETATM    8  C   UNL     1      -5.129  -2.235 -33.995  1.00  0.00     0.012 A 
HETATM    9  C   UNL     1      -6.241  -2.568 -34.769  1.00  0.00     0.003 A 
HETATM   10  C   UNL     1      -7.417  -1.827 -34.661  1.00  0.00     0.029 A 
BRANCH   7  11
HETATM   11  C   UNL     1      -4.030  -0.792 -32.283  1.00  0.00     0.010 A 
HETATM   12  C   UNL     1      -3.723   0.415 -31.605  1.00  0.00     0.152 A 
HETATM   13  N   UNL     1      -2.560   0.366 -30.951  1.00  0.00    -0.187 NA
HETATM   14  N   UNL     1      -2.116  -0.874 -31.198  1.00  0.00    -0.289 N 
HETATM   15  H   UNL     1      -1.230  -1.156 -30.793  1.00  0.00     0.188 HD
HETATM   16  C   UNL     1      -2.955  -1.606 -31.988  1.00  0.00     0.123 A 
ENDBRANCH   7  11
ENDBRANCH   2   5
BRANCH   1  17
HETATM   17  C   UNL     1     -10.326   1.680 -33.897  1.00  0.00     0.144 A 
HETATM   18  O   UNL     1     -10.701   2.984 -34.087  1.00  0.00    -0.309 OA
HETATM   19  C   UNL     1     -12.055   3.040 -33.947  1.00  0.00     0.060 A 
HETATM   20  C   UNL     1     -12.573   1.787 -33.660  1.00  0.00    -0.026 A 
HETATM   21  C   UNL     1     -11.446   0.915 -33.644  1.00  0.00     0.052 A 
BRANCH  19  22
HETATM   22  C   UNL     1     -12.675   4.381 -34.120  1.00  0.00     0.061 C 
HETATM   23  C   UNL     1     -12.725   4.788 -35.584  1.00  0.00     0.012 C 
ENDBRANCH  19  22
BRANCH  20  24
HETATM   24  C   UNL     1     -14.013   1.454 -33.430  1.00  0.00     0.036 C 
HETATM   25  C   UNL     1     -14.663   2.191 -32.269  1.00  0.00     0.010 C 
ENDBRANCH  20  24
ENDBRANCH   1  17
TORSDOF 5
ENDMDL
