MODEL 1
REMARK VINA RESULT:      -8.5      0.000      0.000
REMARK  7 active torsions:
REMARK  status: ('A' for Active; 'I' for Inactive)
REMARK    1  A    between atoms: O_2  and  C_3 
REMARK    2  A    between atoms: C_3  and  C_4 
REMARK    3  A    between atoms: C_8  and  C_9 
REMARK    4  A    between atoms: C_9  and  N_10 
REMARK    5  A    between atoms: C_13  and  C_14 
REMARK    6  A    between atoms: C_14  and  N_15 
REMARK       I    between atoms: N_15  and  C_16 
REMARK       I    between atoms: C_16  and  N_17 
REMARK    7  A    between atoms: N_17  and  C_18 
ROOT
HETATM    1  N   UNL     1      -6.980   2.167 -32.557  1.00  0.00    -0.067 N 
HETATM    2  H   UNL     1      -6.733   1.167 -32.393  1.00  0.00     0.280 HD
HETATM    3  C   UNL     1      -5.703   2.850 -32.969  1.00  0.00     0.241 C 
HETATM    4  C   UNL     1      -4.676   2.907 -31.831  1.00  0.00     0.029 C 
HETATM    5  C   UNL     1      -5.312   3.572 -30.602  1.00  0.00     0.009 C 
HETATM    6  C   UNL     1      -6.602   2.869 -30.183  1.00  0.00     0.028 C 
HETATM    7  C   UNL     1      -7.600   2.764 -31.325  1.00  0.00     0.235 C 
ENDROOT
BRANCH   4   8
HETATM    8  C   UNL     1      -4.025   1.568 -31.428  1.00  0.00     0.130 C 
BRANCH   8   9
HETATM    9  N   UNL     1      -3.779   0.662 -32.529  1.00  0.00    -0.342 N 
HETATM   10  C   UNL     1      -4.532  -0.495 -32.633  1.00  0.00     0.320 C 
HETATM   11  N   UNL     1      -4.055  -1.309 -33.629  1.00  0.00    -0.309 N 
HETATM   12  O   UNL     1      -5.517  -0.666 -31.922  1.00  0.00    -0.247 OA
HETATM   13  H   UNL     1      -3.372  -0.897 -34.251  1.00  0.00     0.170 HD
HETATM   14  H   UNL     1      -2.811   0.564 -32.814  1.00  0.00     0.164 HD
BRANCH  11  15
HETATM   15  C   UNL     1      -4.502  -2.601 -33.974  1.00  0.00     0.039 A 
HETATM   16  C   UNL     1      -5.666  -2.849 -34.697  1.00  0.00     0.071 A 
HETATM   17  C   UNL     1      -6.022  -4.160 -35.005  1.00  0.00     0.118 A 
HETATM   18  F   UNL     1      -7.123  -4.384 -35.735  1.00  0.00    -0.206 F 
HETATM   19  C   UNL     1      -5.250  -5.237 -34.588  1.00  0.00     0.042 A 
HETATM   20  C   UNL     1      -4.098  -4.999 -33.846  1.00  0.00     0.005 A 
HETATM   21  C   UNL     1      -3.725  -3.686 -33.542  1.00  0.00     0.030 A 
ENDBRANCH  11  15
ENDBRANCH   8   9
ENDBRANCH   4   8
BRANCH   1  22
HETATM   22  C   UNL     1      -8.003   2.130 -33.681  1.00  0.00     0.274 C 
BRANCH  22  23
HETATM   23  C   UNL     1      -9.194   1.281 -33.408  1.00  0.00    -0.015 A 
HETATM   24  C   UNL     1      -9.207   0.061 -32.758  1.00  0.00     0.097 A 
HETATM   25  N   UNL     1     -10.496  -0.404 -32.725  1.00  0.00    -0.360 N 
HETATM   26  C   UNL     1     -11.329   0.477 -33.375  1.00  0.00     0.108 A 
HETATM   27  H   UNL     1     -10.800  -1.289 -32.332  1.00  0.00     0.165 HD
HETATM   28  C   UNL     1     -10.548   1.556 -33.751  1.00  0.00     0.046 A 
BRANCH  26  29
HETATM   29  C   UNL     1     -12.737   0.264 -33.613  1.00  0.00     0.309 C 
HETATM   30  O   UNL     1     -13.317  -0.802 -33.468  1.00  0.00    -0.258 OA
BRANCH  29  31
HETATM   31  O   UNL     1     -13.319   1.436 -33.989  1.00  0.00    -0.321 OA
HETATM   32  C   UNL     1     -14.248   1.948 -33.033  1.00  0.00     0.213 C 
ENDBRANCH  29  31
ENDBRANCH  26  29
ENDBRANCH  22  23
ENDBRANCH   1  22
TORSDOF 7
ENDMDL
MODEL 2
REMARK VINA RESULT:      -8.0      4.036      7.628
REMARK  7 active torsions:
REMARK  status: ('A' for Active; 'I' for Inactive)
REMARK    1  A    between atoms: O_2  and  C_3 
REMARK    2  A    between atoms: C_3  and  C_4 
REMARK    3  A    between atoms: C_8  and  C_9 
REMARK    4  A    between atoms: C_9  and  N_10 
REMARK    5  A    between atoms: C_13  and  C_14 
REMARK    6  A    between atoms: C_14  and  N_15 
REMARK       I    between atoms: N_15  and  C_16 
REMARK       I    between atoms: C_16  and  N_17 
REMARK    7  A    between atoms: N_17  and  C_18 
ROOT
HETATM    1  N   UNL     1      -4.776   4.540 -33.627  1.00  0.00    -0.067 N 
HETATM    2  H   UNL     1      -5.433   4.074 -34.290  1.00  0.00     0.280 HD
HETATM    3  C   UNL     1      -4.425   3.506 -32.591  1.00  0.00     0.241 C 
HETATM    4  C   UNL     1      -5.624   3.126 -31.713  1.00  0.00     0.029 C 
HETATM    5  C   UNL     1      -6.215   4.394 -31.081  1.00  0.00     0.009 C 
HETATM    6  C   UNL     1      -6.579   5.435 -32.137  1.00  0.00     0.028 C 
HETATM    7  C   UNL     1      -5.406   5.774 -33.043  1.00  0.00     0.235 C 
ENDROOT
BRANCH   4   8
HETATM    8  C   UNL     1      -6.739   2.306 -32.393  1.00  0.00     0.130 C 
BRANCH   8   9
HETATM    9  N   UNL     1      -6.280   1.411 -33.434  1.00  0.00    -0.342 N 
HETATM   10  C   UNL     1      -6.399   0.044 -33.251  1.00  0.00     0.320 C 
HETATM   11  N   UNL     1      -5.766  -0.648 -34.253  1.00  0.00    -0.309 N 
HETATM   12  O   UNL     1      -7.051  -0.407 -32.313  1.00  0.00    -0.247 OA
HETATM   13  H   UNL     1      -5.476  -0.104 -35.054  1.00  0.00     0.170 HD
HETATM   14  H   UNL     1      -5.444   1.700 -33.930  1.00  0.00     0.164 HD
BRANCH  11  15
HETATM   15  C   UNL     1      -5.597  -2.043 -34.362  1.00  0.00     0.039 A 
HETATM   16  C   UNL     1      -4.397  -2.699 -34.099  1.00  0.00     0.071 A 
HETATM   17  C   UNL     1      -4.326  -4.086 -34.218  1.00  0.00     0.118 A 
HETATM   18  F   UNL     1      -3.177  -4.709 -33.926  1.00  0.00    -0.206 F 
HETATM   19  C   UNL     1      -5.427  -4.835 -34.615  1.00  0.00     0.042 A 
HETATM   20  C   UNL     1      -6.623  -4.185 -34.901  1.00  0.00     0.005 A 
HETATM   21  C   UNL     1      -6.708  -2.795 -34.773  1.00  0.00     0.030 A 
ENDBRANCH  11  15
ENDBRANCH   8   9
ENDBRANCH   4   8
BRANCH   1  22
HETATM   22  C   UNL     1      -3.581   4.930 -34.483  1.00  0.00     0.274 C 
BRANCH  22  23
HETATM   23  C   UNL     1      -2.518   5.678 -33.758  1.00  0.00    -0.015 A 
HETATM   24  C   UNL     1      -2.084   6.963 -34.026  1.00  0.00     0.097 A 
HETATM   25  N   UNL     1      -1.082   7.279 -33.146  1.00  0.00    -0.360 N 
HETATM   26  C   UNL     1      -0.824   6.206 -32.324  1.00  0.00     0.108 A 
HETATM   27  H   UNL     1      -0.559   8.149 -33.126  1.00  0.00     0.165 HD
HETATM   28  C   UNL     1      -1.747   5.227 -32.650  1.00  0.00     0.046 A 
BRANCH  26  29
HETATM   29  C   UNL     1       0.230   6.150 -31.339  1.00  0.00     0.309 C 
HETATM   30  O   UNL     1       0.800   7.125 -30.870  1.00  0.00    -0.258 OA
BRANCH  29  31
HETATM   31  O   UNL     1       0.464   4.855 -30.992  1.00  0.00    -0.321 OA
HETATM   32  C   UNL     1       0.925   4.694 -29.651  1.00  0.00     0.213 C 
ENDBRANCH  29  31
ENDBRANCH  26  29
ENDBRANCH  22  23
ENDBRANCH   1  22
TORSDOF 7
ENDMDL
MODEL 3
REMARK VINA RESULT:      -8.0      4.008      6.709
REMARK  7 active torsions:
REMARK  status: ('A' for Active; 'I' for Inactive)
REMARK    1  A    between atoms: O_2  and  C_3 
REMARK    2  A    between atoms: C_3  and  C_4 
REMARK    3  A    between atoms: C_8  and  C_9 
REMARK    4  A    between atoms: C_9  and  N_10 
REMARK    5  A    between atoms: C_13  and  C_14 
REMARK    6  A    between atoms: C_14  and  N_15 
REMARK       I    between atoms: N_15  and  C_16 
REMARK       I    between atoms: C_16  and  N_17 
REMARK    7  A    between atoms: N_17  and  C_18 
ROOT
HETATM    1  N   UNL     1      -7.068   0.319 -32.473  1.00  0.00    -0.067 N 
HETATM    2  H   UNL     1      -6.732   1.185 -32.947  1.00  0.00     0.280 HD
HETATM    3  C   UNL     1      -6.112   0.067 -31.337  1.00  0.00     0.241 C 
HETATM    4  C   UNL     1      -4.706  -0.303 -31.826  1.00  0.00     0.029 C 
HETATM    5  C   UNL     1      -4.797  -1.505 -32.776  1.00  0.00     0.009 C 
HETATM    6  C   UNL     1      -5.760  -1.241 -33.931  1.00  0.00     0.028 C 
HETATM    7  C   UNL     1      -7.139  -0.822 -33.449  1.00  0.00     0.235 C 
ENDROOT
BRANCH   4   8
HETATM    8  C   UNL     1      -3.889   0.828 -32.483  1.00  0.00     0.130 C 
BRANCH   8   9
HETATM    9  N   UNL     1      -3.438   1.855 -31.569  1.00  0.00    -0.342 N 
HETATM   10  C   UNL     1      -3.131   3.111 -32.061  1.00  0.00     0.320 C 
HETATM   11  N   UNL     1      -2.566   3.901 -31.091  1.00  0.00    -0.309 N 
HETATM   12  O   UNL     1      -3.411   3.416 -33.217  1.00  0.00    -0.247 OA
HETATM   13  H   UNL     1      -2.620   3.548 -30.145  1.00  0.00     0.170 HD
HETATM   14  H   UNL     1      -2.845   1.542 -30.808  1.00  0.00     0.164 HD
BRANCH  11  15
HETATM   15  C   UNL     1      -2.044   5.202 -31.235  1.00  0.00     0.039 A 
HETATM   16  C   UNL     1      -0.682   5.491 -31.258  1.00  0.00     0.071 A 
HETATM   17  C   UNL     1      -0.257   6.808 -31.420  1.00  0.00     0.118 A 
HETATM   18  F   UNL     1       1.056   7.069 -31.479  1.00  0.00    -0.206 F 
HETATM   19  C   UNL     1      -1.166   7.852 -31.542  1.00  0.00     0.042 A 
HETATM   20  C   UNL     1      -2.528   7.575 -31.498  1.00  0.00     0.005 A 
HETATM   21  C   UNL     1      -2.965   6.255 -31.347  1.00  0.00     0.030 A 
ENDBRANCH  11  15
ENDBRANCH   8   9
ENDBRANCH   4   8
BRANCH   1  22
HETATM   22  C   UNL     1      -8.466   0.665 -31.985  1.00  0.00     0.274 C 
BRANCH  22  23
HETATM   23  C   UNL     1      -9.390   1.152 -33.044  1.00  0.00    -0.015 A 
HETATM   24  C   UNL     1      -9.151   2.175 -33.942  1.00  0.00     0.097 A 
HETATM   25  N   UNL     1     -10.255   2.323 -34.740  1.00  0.00    -0.360 N 
HETATM   26  C   UNL     1     -11.233   1.434 -34.359  1.00  0.00     0.108 A 
HETATM   27  H   UNL     1     -10.372   3.017 -35.472  1.00  0.00     0.165 HD
HETATM   28  C   UNL     1     -10.691   0.658 -33.349  1.00  0.00     0.046 A 
BRANCH  26  29
HETATM   29  C   UNL     1     -12.562   1.372 -34.920  1.00  0.00     0.309 C 
HETATM   30  O   UNL     1     -12.955   2.045 -35.862  1.00  0.00    -0.258 OA
BRANCH  29  31
HETATM   31  O   UNL     1     -13.293   0.430 -34.262  1.00  0.00    -0.321 OA
HETATM   32  C   UNL     1     -14.698   0.679 -34.278  1.00  0.00     0.213 C 
ENDBRANCH  29  31
ENDBRANCH  26  29
ENDBRANCH  22  23
ENDBRANCH   1  22
TORSDOF 7
ENDMDL
MODEL 4
REMARK VINA RESULT:      -7.8      4.842      8.523
REMARK  7 active torsions:
REMARK  status: ('A' for Active; 'I' for Inactive)
REMARK    1  A    between atoms: O_2  and  C_3 
REMARK    2  A    between atoms: C_3  and  C_4 
REMARK    3  A    between atoms: C_8  and  C_9 
REMARK    4  A    between atoms: C_9  and  N_10 
REMARK    5  A    between atoms: C_13  and  C_14 
REMARK    6  A    between atoms: C_14  and  N_15 
REMARK       I    between atoms: N_15  and  C_16 
REMARK       I    between atoms: C_16  and  N_17 
REMARK    7  A    between atoms: N_17  and  C_18 
ROOT
HETATM    1  N   UNL     1      -2.099   5.717 -32.505  1.00  0.00    -0.067 N 
HETATM    2  H   UNL     1      -1.543   4.836 -32.525  1.00  0.00     0.280 HD
HETATM    3  C   UNL     1      -3.316   5.424 -31.667  1.00  0.00     0.241 C 
HETATM    4  C   UNL     1      -4.256   4.412 -32.335  1.00  0.00     0.029 C 
HETATM    5  C   UNL     1      -4.631   4.911 -33.737  1.00  0.00     0.009 C 
HETATM    6  C   UNL     1      -3.393   5.197 -34.585  1.00  0.00     0.028 C 
HETATM    7  C   UNL     1      -2.435   6.159 -33.902  1.00  0.00     0.235 C 
ENDROOT
BRANCH   4   8
HETATM    8  C   UNL     1      -3.753   2.956 -32.410  1.00  0.00     0.130 C 
BRANCH   8   9
HETATM    9  N   UNL     1      -4.778   1.979 -32.707  1.00  0.00    -0.342 N 
HETATM   10  C   UNL     1      -4.410   0.670 -32.966  1.00  0.00     0.320 C 
HETATM   11  N   UNL     1      -5.483  -0.074 -33.388  1.00  0.00    -0.309 N 
HETATM   12  O   UNL     1      -3.259   0.293 -32.766  1.00  0.00    -0.247 OA
HETATM   13  H   UNL     1      -6.392   0.356 -33.278  1.00  0.00     0.170 HD
HETATM   14  H   UNL     1      -5.564   2.313 -33.253  1.00  0.00     0.164 HD
BRANCH  11  15
HETATM   15  C   UNL     1      -5.483  -1.413 -33.827  1.00  0.00     0.039 A 
HETATM   16  C   UNL     1      -4.358  -2.234 -33.807  1.00  0.00     0.071 A 
HETATM   17  C   UNL     1      -4.456  -3.552 -34.247  1.00  0.00     0.118 A 
HETATM   18  F   UNL     1      -3.377  -4.343 -34.187  1.00  0.00    -0.206 F 
HETATM   19  C   UNL     1      -5.653  -4.067 -34.729  1.00  0.00     0.042 A 
HETATM   20  C   UNL     1      -6.776  -3.248 -34.773  1.00  0.00     0.005 A 
HETATM   21  C   UNL     1      -6.691  -1.926 -34.323  1.00  0.00     0.030 A 
ENDBRANCH  11  15
ENDBRANCH   8   9
ENDBRANCH   4   8
BRANCH   1  22
HETATM   22  C   UNL     1      -1.180   6.737 -31.851  1.00  0.00     0.274 C 
BRANCH  22  23
HETATM   23  C   UNL     1      -0.605   6.307 -30.547  1.00  0.00    -0.015 A 
HETATM   24  C   UNL     1       0.028   5.107 -30.279  1.00  0.00     0.097 A 
HETATM   25  N   UNL     1       0.397   5.093 -28.959  1.00  0.00    -0.360 N 
HETATM   26  C   UNL     1      -0.015   6.252 -28.344  1.00  0.00     0.108 A 
HETATM   27  H   UNL     1       0.856   4.326 -28.478  1.00  0.00     0.165 HD
HETATM   28  C   UNL     1      -0.583   7.043 -29.328  1.00  0.00     0.046 A 
BRANCH  26  29
HETATM   29  C   UNL     1       0.123   6.538 -26.936  1.00  0.00     0.309 C 
HETATM   30  O   UNL     1       0.918   7.334 -26.459  1.00  0.00    -0.258 OA
BRANCH  29  31
HETATM   31  O   UNL     1      -0.786   5.810 -26.231  1.00  0.00    -0.321 OA
HETATM   32  C   UNL     1      -1.957   6.545 -25.873  1.00  0.00     0.213 C 
ENDBRANCH  29  31
ENDBRANCH  26  29
ENDBRANCH  22  23
ENDBRANCH   1  22
TORSDOF 7
ENDMDL
MODEL 5
REMARK VINA RESULT:      -7.8      1.452      1.895
REMARK  7 active torsions:
REMARK  status: ('A' for Active; 'I' for Inactive)
REMARK    1  A    between atoms: O_2  and  C_3 
REMARK    2  A    between atoms: C_3  and  C_4 
REMARK    3  A    between atoms: C_8  and  C_9 
REMARK    4  A    between atoms: C_9  and  N_10 
REMARK    5  A    between atoms: C_13  and  C_14 
REMARK    6  A    between atoms: C_14  and  N_15 
REMARK       I    between atoms: N_15  and  C_16 
REMARK       I    between atoms: C_16  and  N_17 
REMARK    7  A    between atoms: N_17  and  C_18 
ROOT
HETATM    1  N   UNL     1      -7.016   3.406 -32.385  1.00  0.00    -0.067 N 
HETATM    2  H   UNL     1      -6.828   2.403 -32.597  1.00  0.00     0.280 HD
HETATM    3  C   UNL     1      -5.675   4.092 -32.391  1.00  0.00     0.241 C 
HETATM    4  C   UNL     1      -4.778   3.633 -31.234  1.00  0.00     0.029 C 
HETATM    5  C   UNL     1      -5.518   3.833 -29.904  1.00  0.00     0.009 C 
HETATM    6  C   UNL     1      -6.873   3.128 -29.900  1.00  0.00     0.028 C 
HETATM    7  C   UNL     1      -7.743   3.541 -31.076  1.00  0.00     0.235 C 
ENDROOT
BRANCH   4   8
HETATM    8  C   UNL     1      -4.229   2.195 -31.321  1.00  0.00     0.130 C 
BRANCH   8   9
HETATM    9  N   UNL     1      -4.595   1.481 -32.526  1.00  0.00    -0.342 N 
HETATM   10  C   UNL     1      -4.873   0.128 -32.453  1.00  0.00     0.320 C 
HETATM   11  N   UNL     1      -5.035  -0.415 -33.703  1.00  0.00    -0.309 N 
HETATM   12  O   UNL     1      -4.995  -0.427 -31.365  1.00  0.00    -0.247 OA
HETATM   13  H   UNL     1      -5.116   0.244 -34.466  1.00  0.00     0.170 HD
HETATM   14  H   UNL     1      -4.119   1.770 -33.374  1.00  0.00     0.164 HD
BRANCH  11  15
HETATM   15  C   UNL     1      -5.240  -1.769 -34.034  1.00  0.00     0.039 A 
HETATM   16  C   UNL     1      -4.245  -2.742 -33.962  1.00  0.00     0.071 A 
HETATM   17  C   UNL     1      -4.543  -4.062 -34.295  1.00  0.00     0.118 A 
HETATM   18  F   UNL     1      -3.589  -4.995 -34.185  1.00  0.00    -0.206 F 
HETATM   19  C   UNL     1      -5.813  -4.432 -34.720  1.00  0.00     0.042 A 
HETATM   20  C   UNL     1      -6.806  -3.462 -34.816  1.00  0.00     0.005 A 
HETATM   21  C   UNL     1      -6.520  -2.137 -34.473  1.00  0.00     0.030 A 
ENDBRANCH  11  15
ENDBRANCH   8   9
ENDBRANCH   4   8
BRANCH   1  22
HETATM   22  C   UNL     1      -7.910   3.878 -33.520  1.00  0.00     0.274 C 
BRANCH  22  23
HETATM   23  C   UNL     1      -8.949   2.898 -33.939  1.00  0.00    -0.015 A 
HETATM   24  C   UNL     1      -8.741   1.585 -34.316  1.00  0.00     0.097 A 
HETATM   25  N   UNL     1      -9.950   1.027 -34.644  1.00  0.00    -0.360 N 
HETATM   26  C   UNL     1     -10.948   1.966 -34.522  1.00  0.00     0.108 A 
HETATM   27  H   UNL     1     -10.097   0.081 -34.982  1.00  0.00     0.165 HD
HETATM   28  C   UNL     1     -10.354   3.114 -34.027  1.00  0.00     0.046 A 
BRANCH  26  29
HETATM   29  C   UNL     1     -12.332   1.755 -34.873  1.00  0.00     0.309 C 
HETATM   30  O   UNL     1     -12.856   2.136 -35.910  1.00  0.00    -0.258 OA
BRANCH  29  31
HETATM   31  O   UNL     1     -12.949   1.040 -33.892  1.00  0.00    -0.321 OA
HETATM   32  C   UNL     1     -14.279   0.640 -34.222  1.00  0.00     0.213 C 
ENDBRANCH  29  31
ENDBRANCH  26  29
ENDBRANCH  22  23
ENDBRANCH   1  22
TORSDOF 7
ENDMDL
MODEL 6
REMARK VINA RESULT:      -7.8      2.885      6.497
REMARK  7 active torsions:
REMARK  status: ('A' for Active; 'I' for Inactive)
REMARK    1  A    between atoms: O_2  and  C_3 
REMARK    2  A    between atoms: C_3  and  C_4 
REMARK    3  A    between atoms: C_8  and  C_9 
REMARK    4  A    between atoms: C_9  and  N_10 
REMARK    5  A    between atoms: C_13  and  C_14 
REMARK    6  A    between atoms: C_14  and  N_15 
REMARK       I    between atoms: N_15  and  C_16 
REMARK       I    between atoms: C_16  and  N_17 
REMARK    7  A    between atoms: N_17  and  C_18 
ROOT
HETATM    1  N   UNL     1      -9.974   3.852 -33.620  1.00  0.00    -0.067 N 
HETATM    2  H   UNL     1      -9.481   2.973 -33.889  1.00  0.00     0.280 HD
HETATM    3  C   UNL     1     -11.063   3.444 -32.663  1.00  0.00     0.241 C 
HETATM    4  C   UNL     1     -12.152   2.605 -33.342  1.00  0.00     0.029 C 
HETATM    5  C   UNL     1     -12.708   3.370 -34.551  1.00  0.00     0.009 C 
HETATM    6  C   UNL     1     -11.600   3.773 -35.522  1.00  0.00     0.028 C 
HETATM    7  C   UNL     1     -10.492   4.559 -34.841  1.00  0.00     0.235 C 
ENDROOT
BRANCH   4   8
HETATM    8  C   UNL     1     -11.755   1.174 -33.760  1.00  0.00     0.130 C 
BRANCH   8   9
HETATM    9  N   UNL     1     -10.665   0.604 -32.997  1.00  0.00    -0.342 N 
HETATM   10  C   UNL     1      -9.437   0.420 -33.607  1.00  0.00     0.320 C 
HETATM   11  N   UNL     1      -8.579  -0.279 -32.795  1.00  0.00    -0.309 N 
HETATM   12  O   UNL     1      -9.210   0.900 -34.713  1.00  0.00    -0.247 OA
HETATM   13  H   UNL     1      -8.873  -0.396 -31.834  1.00  0.00     0.170 HD
HETATM   14  H   UNL     1     -10.920  -0.118 -32.332  1.00  0.00     0.164 HD
BRANCH  11  15
HETATM   15  C   UNL     1      -7.280  -0.732 -33.101  1.00  0.00     0.039 A 
HETATM   16  C   UNL     1      -6.990  -1.586 -34.163  1.00  0.00     0.071 A 
HETATM   17  C   UNL     1      -5.671  -1.970 -34.400  1.00  0.00     0.118 A 
HETATM   18  F   UNL     1      -5.399  -2.760 -35.447  1.00  0.00    -0.206 F 
HETATM   19  C   UNL     1      -4.633  -1.535 -33.586  1.00  0.00     0.042 A 
HETATM   20  C   UNL     1      -4.918  -0.701 -32.510  1.00  0.00     0.005 A 
HETATM   21  C   UNL     1      -6.236  -0.300 -32.270  1.00  0.00     0.030 A 
ENDBRANCH  11  15
ENDBRANCH   8   9
ENDBRANCH   4   8
BRANCH   1  22
HETATM   22  C   UNL     1      -8.905   4.702 -32.950  1.00  0.00     0.274 C 
BRANCH  22  23
HETATM   23  C   UNL     1      -7.507   4.324 -33.292  1.00  0.00    -0.015 A 
HETATM   24  C   UNL     1      -6.938   3.070 -33.173  1.00  0.00     0.097 A 
HETATM   25  N   UNL     1      -5.630   3.144 -33.575  1.00  0.00    -0.360 N 
HETATM   26  C   UNL     1      -5.319   4.437 -33.926  1.00  0.00     0.108 A 
HETATM   27  H   UNL     1      -4.961   2.380 -33.569  1.00  0.00     0.165 HD
HETATM   28  C   UNL     1      -6.488   5.170 -33.815  1.00  0.00     0.046 A 
BRANCH  26  29
HETATM   29  C   UNL     1      -4.006   4.899 -34.311  1.00  0.00     0.309 C 
HETATM   30  O   UNL     1      -3.765   5.573 -35.302  1.00  0.00    -0.258 OA
BRANCH  29  31
HETATM   31  O   UNL     1      -3.091   4.498 -33.386  1.00  0.00    -0.321 OA
HETATM   32  C   UNL     1      -1.810   5.108 -33.543  1.00  0.00     0.213 C 
ENDBRANCH  29  31
ENDBRANCH  26  29
ENDBRANCH  22  23
ENDBRANCH   1  22
TORSDOF 7
ENDMDL
MODEL 7
REMARK VINA RESULT:      -7.8      3.642      6.201
REMARK  7 active torsions:
REMARK  status: ('A' for Active; 'I' for Inactive)
REMARK    1  A    between atoms: O_2  and  C_3 
REMARK    2  A    between atoms: C_3  and  C_4 
REMARK    3  A    between atoms: C_8  and  C_9 
REMARK    4  A    between atoms: C_9  and  N_10 
REMARK    5  A    between atoms: C_13  and  C_14 
REMARK    6  A    between atoms: C_14  and  N_15 
REMARK       I    between atoms: N_15  and  C_16 
REMARK       I    between atoms: C_16  and  N_17 
REMARK    7  A    between atoms: N_17  and  C_18 
ROOT
HETATM    1  N   UNL     1      -6.710   0.208 -32.599  1.00  0.00    -0.067 N 
HETATM    2  H   UNL     1      -6.953   1.210 -32.756  1.00  0.00     0.280 HD
HETATM    3  C   UNL     1      -6.858  -0.030 -31.119  1.00  0.00     0.241 C 
HETATM    4  C   UNL     1      -5.813   0.736 -30.297  1.00  0.00     0.029 C 
HETATM    5  C   UNL     1      -4.407   0.378 -30.798  1.00  0.00     0.009 C 
HETATM    6  C   UNL     1      -4.261   0.629 -32.297  1.00  0.00     0.028 C 
HETATM    7  C   UNL     1      -5.327  -0.085 -33.110  1.00  0.00     0.235 C 
ENDROOT
BRANCH   4   8
HETATM    8  C   UNL     1      -5.978   2.268 -30.236  1.00  0.00     0.130 C 
BRANCH   8   9
HETATM    9  N   UNL     1      -4.734   3.007 -30.200  1.00  0.00    -0.342 N 
HETATM   10  C   UNL     1      -4.449   3.901 -31.217  1.00  0.00     0.320 C 
HETATM   11  N   UNL     1      -3.168   4.382 -31.112  1.00  0.00    -0.309 N 
HETATM   12  O   UNL     1      -5.309   4.210 -32.037  1.00  0.00    -0.247 OA
HETATM   13  H   UNL     1      -2.688   4.180 -30.245  1.00  0.00     0.170 HD
HETATM   14  H   UNL     1      -3.929   2.504 -29.842  1.00  0.00     0.164 HD
BRANCH  11  15
HETATM   15  C   UNL     1      -2.493   5.237 -32.006  1.00  0.00     0.039 A 
HETATM   16  C   UNL     1      -1.980   4.824 -33.233  1.00  0.00     0.071 A 
HETATM   17  C   UNL     1      -1.339   5.744 -34.060  1.00  0.00     0.118 A 
HETATM   18  F   UNL     1      -0.883   5.344 -35.255  1.00  0.00    -0.206 F 
HETATM   19  C   UNL     1      -1.181   7.071 -33.680  1.00  0.00     0.042 A 
HETATM   20  C   UNL     1      -1.670   7.487 -32.446  1.00  0.00     0.005 A 
HETATM   21  C   UNL     1      -2.325   6.574 -31.614  1.00  0.00     0.030 A 
ENDBRANCH  11  15
ENDBRANCH   8   9
ENDBRANCH   4   8
BRANCH   1  22
HETATM   22  C   UNL     1      -7.734  -0.568 -33.413  1.00  0.00     0.274 C 
BRANCH  22  23
HETATM   23  C   UNL     1      -9.080   0.063 -33.481  1.00  0.00    -0.015 A 
HETATM   24  C   UNL     1     -10.179  -0.251 -32.704  1.00  0.00     0.097 A 
HETATM   25  N   UNL     1     -11.227   0.545 -33.087  1.00  0.00    -0.360 N 
HETATM   26  C   UNL     1     -10.844   1.355 -34.131  1.00  0.00     0.108 A 
HETATM   27  H   UNL     1     -12.168   0.515 -32.706  1.00  0.00     0.165 HD
HETATM   28  C   UNL     1      -9.498   1.112 -34.347  1.00  0.00     0.046 A 
BRANCH  26  29
HETATM   29  C   UNL     1     -11.717   2.255 -34.846  1.00  0.00     0.309 C 
HETATM   30  O   UNL     1     -12.534   1.913 -35.689  1.00  0.00    -0.258 OA
BRANCH  29  31
HETATM   31  O   UNL     1     -11.514   3.529 -34.413  1.00  0.00    -0.321 OA
HETATM   32  C   UNL     1     -11.023   4.408 -35.426  1.00  0.00     0.213 C 
ENDBRANCH  29  31
ENDBRANCH  26  29
ENDBRANCH  22  23
ENDBRANCH   1  22
TORSDOF 7
ENDMDL
MODEL 8
REMARK VINA RESULT:      -7.7      3.525      6.587
REMARK  7 active torsions:
REMARK  status: ('A' for Active; 'I' for Inactive)
REMARK    1  A    between atoms: O_2  and  C_3 
REMARK    2  A    between atoms: C_3  and  C_4 
REMARK    3  A    between atoms: C_8  and  C_9 
REMARK    4  A    between atoms: C_9  and  N_10 
REMARK    5  A    between atoms: C_13  and  C_14 
REMARK    6  A    between atoms: C_14  and  N_15 
REMARK       I    between atoms: N_15  and  C_16 
REMARK       I    between atoms: C_16  and  N_17 
REMARK    7  A    between atoms: N_17  and  C_18 
ROOT
HETATM    1  N   UNL     1      -6.501   3.829 -32.586  1.00  0.00    -0.067 N 
HETATM    2  H   UNL     1      -6.024   2.956 -32.899  1.00  0.00     0.280 HD
HETATM    3  C   UNL     1      -5.731   4.318 -31.388  1.00  0.00     0.241 C 
HETATM    4  C   UNL     1      -5.864   3.377 -30.184  1.00  0.00     0.029 C 
HETATM    5  C   UNL     1      -7.350   3.163 -29.864  1.00  0.00     0.009 C 
HETATM    6  C   UNL     1      -8.123   2.658 -31.080  1.00  0.00     0.028 C 
HETATM    7  C   UNL     1      -7.950   3.561 -32.290  1.00  0.00     0.235 C 
ENDROOT
BRANCH   4   8
HETATM    8  C   UNL     1      -5.147   2.016 -30.296  1.00  0.00     0.130 C 
BRANCH   8   9
HETATM    9  N   UNL     1      -5.087   1.475 -31.637  1.00  0.00    -0.342 N 
HETATM   10  C   UNL     1      -5.438   0.153 -31.850  1.00  0.00     0.320 C 
HETATM   11  N   UNL     1      -5.163  -0.233 -33.137  1.00  0.00    -0.309 N 
HETATM   12  O   UNL     1      -5.972  -0.502 -30.960  1.00  0.00    -0.247 OA
HETATM   13  H   UNL     1      -4.931   0.509 -33.783  1.00  0.00     0.170 HD
HETATM   14  H   UNL     1      -4.323   1.808 -32.215  1.00  0.00     0.164 HD
BRANCH  11  15
HETATM   15  C   UNL     1      -5.300  -1.519 -33.699  1.00  0.00     0.039 A 
HETATM   16  C   UNL     1      -4.267  -2.451 -33.756  1.00  0.00     0.071 A 
HETATM   17  C   UNL     1      -4.498  -3.706 -34.317  1.00  0.00     0.118 A 
HETATM   18  F   UNL     1      -3.508  -4.608 -34.331  1.00  0.00    -0.206 F 
HETATM   19  C   UNL     1      -5.739  -4.046 -34.843  1.00  0.00     0.042 A 
HETATM   20  C   UNL     1      -6.769  -3.112 -34.810  1.00  0.00     0.005 A 
HETATM   21  C   UNL     1      -6.550  -1.854 -34.238  1.00  0.00     0.030 A 
ENDBRANCH  11  15
ENDBRANCH   8   9
ENDBRANCH   4   8
BRANCH   1  22
HETATM   22  C   UNL     1      -6.385   4.774 -33.771  1.00  0.00     0.274 C 
BRANCH  22  23
HETATM   23  C   UNL     1      -5.000   5.229 -34.070  1.00  0.00    -0.015 A 
HETATM   24  C   UNL     1      -4.227   4.864 -35.157  1.00  0.00     0.097 A 
HETATM   25  N   UNL     1      -3.010   5.485 -35.056  1.00  0.00    -0.360 N 
HETATM   26  C   UNL     1      -2.956   6.228 -33.899  1.00  0.00     0.108 A 
HETATM   27  H   UNL     1      -2.233   5.380 -35.701  1.00  0.00     0.165 HD
HETATM   28  C   UNL     1      -4.203   6.129 -33.307  1.00  0.00     0.046 A 
BRANCH  26  29
HETATM   29  C   UNL     1      -1.793   6.940 -33.425  1.00  0.00     0.309 C 
HETATM   30  O   UNL     1      -1.601   8.139 -33.570  1.00  0.00    -0.258 OA
BRANCH  29  31
HETATM   31  O   UNL     1      -0.967   6.081 -32.767  1.00  0.00    -0.321 OA
HETATM   32  C   UNL     1      -0.313   6.663 -31.640  1.00  0.00     0.213 C 
ENDBRANCH  29  31
ENDBRANCH  26  29
ENDBRANCH  22  23
ENDBRANCH   1  22
TORSDOF 7
ENDMDL
MODEL 9
REMARK VINA RESULT:      -7.6      2.337      6.077
REMARK  7 active torsions:
REMARK  status: ('A' for Active; 'I' for Inactive)
REMARK    1  A    between atoms: O_2  and  C_3 
REMARK    2  A    between atoms: C_3  and  C_4 
REMARK    3  A    between atoms: C_8  and  C_9 
REMARK    4  A    between atoms: C_9  and  N_10 
REMARK    5  A    between atoms: C_13  and  C_14 
REMARK    6  A    between atoms: C_14  and  N_15 
REMARK       I    between atoms: N_15  and  C_16 
REMARK       I    between atoms: C_16  and  N_17 
REMARK    7  A    between atoms: N_17  and  C_18 
ROOT
HETATM    1  N   UNL     1      -9.741   3.926 -34.241  1.00  0.00    -0.067 N 
HETATM    2  H   UNL     1      -9.340   3.006 -34.522  1.00  0.00     0.280 HD
HETATM    3  C   UNL     1     -10.566   3.663 -33.009  1.00  0.00     0.241 C 
HETATM    4  C   UNL     1     -11.799   2.801 -33.305  1.00  0.00     0.029 C 
HETATM    5  C   UNL     1     -12.626   3.456 -34.420  1.00  0.00     0.009 C 
HETATM    6  C   UNL     1     -11.786   3.712 -35.670  1.00  0.00     0.028 C 
HETATM    7  C   UNL     1     -10.535   4.521 -35.370  1.00  0.00     0.235 C 
ENDROOT
BRANCH   4   8
HETATM    8  C   UNL     1     -11.535   1.320 -33.646  1.00  0.00     0.130 C 
BRANCH   8   9
HETATM    9  N   UNL     1     -10.444   0.718 -32.910  1.00  0.00    -0.342 N 
HETATM   10  C   UNL     1      -9.253   0.451 -33.562  1.00  0.00     0.320 C 
HETATM   11  N   UNL     1      -8.398  -0.266 -32.763  1.00  0.00    -0.309 N 
HETATM   12  O   UNL     1      -9.049   0.884 -34.693  1.00  0.00    -0.247 OA
HETATM   13  H   UNL     1      -8.657  -0.338 -31.789  1.00  0.00     0.170 HD
HETATM   14  H   UNL     1     -10.707   0.031 -32.211  1.00  0.00     0.164 HD
BRANCH  11  15
HETATM   15  C   UNL     1      -7.138  -0.796 -33.108  1.00  0.00     0.039 A 
HETATM   16  C   UNL     1      -6.923  -1.630 -34.202  1.00  0.00     0.071 A 
HETATM   17  C   UNL     1      -5.638  -2.095 -34.475  1.00  0.00     0.118 A 
HETATM   18  F   UNL     1      -5.436  -2.865 -35.552  1.00  0.00    -0.206 F 
HETATM   19  C   UNL     1      -4.560  -1.760 -33.664  1.00  0.00     0.042 A 
HETATM   20  C   UNL     1      -4.771  -0.945 -32.557  1.00  0.00     0.005 A 
HETATM   21  C   UNL     1      -6.055  -0.464 -32.281  1.00  0.00     0.030 A 
ENDBRANCH  11  15
ENDBRANCH   8   9
ENDBRANCH   4   8
BRANCH   1  22
HETATM   22  C   UNL     1      -8.530   4.799 -33.949  1.00  0.00     0.274 C 
BRANCH  22  23
HETATM   23  C   UNL     1      -7.339   4.060 -33.448  1.00  0.00    -0.015 A 
HETATM   24  C   UNL     1      -6.591   3.131 -34.145  1.00  0.00     0.097 A 
HETATM   25  N   UNL     1      -5.592   2.671 -33.327  1.00  0.00    -0.360 N 
HETATM   26  C   UNL     1      -5.692   3.261 -32.087  1.00  0.00     0.108 A 
HETATM   27  H   UNL     1      -4.906   1.962 -33.565  1.00  0.00     0.165 HD
HETATM   28  C   UNL     1      -6.733   4.170 -32.164  1.00  0.00     0.046 A 
BRANCH  26  29
HETATM   29  C   UNL     1      -4.862   2.944 -30.949  1.00  0.00     0.309 C 
HETATM   30  O   UNL     1      -5.266   2.822 -29.802  1.00  0.00    -0.258 OA
BRANCH  29  31
HETATM   31  O   UNL     1      -3.575   2.771 -31.357  1.00  0.00    -0.321 OA
HETATM   32  C   UNL     1      -2.876   3.995 -31.588  1.00  0.00     0.213 C 
ENDBRANCH  29  31
ENDBRANCH  26  29
ENDBRANCH  22  23
ENDBRANCH   1  22
TORSDOF 7
ENDMDL
MODEL 10
REMARK VINA RESULT:      -7.6      3.214      6.589
REMARK  7 active torsions:
REMARK  status: ('A' for Active; 'I' for Inactive)
REMARK    1  A    between atoms: O_2  and  C_3 
REMARK    2  A    between atoms: C_3  and  C_4 
REMARK    3  A    between atoms: C_8  and  C_9 
REMARK    4  A    between atoms: C_9  and  N_10 
REMARK    5  A    between atoms: C_13  and  C_14 
REMARK    6  A    between atoms: C_14  and  N_15 
REMARK       I    between atoms: N_15  and  C_16 
REMARK       I    between atoms: C_16  and  N_17 
REMARK    7  A    between atoms: N_17  and  C_18 
ROOT
HETATM    1  N   UNL     1      -7.655   4.236 -33.693  1.00  0.00    -0.067 N 
HETATM    2  H   UNL     1      -7.280   3.985 -34.633  1.00  0.00     0.280 HD
HETATM    3  C   UNL     1      -7.450   3.022 -32.825  1.00  0.00     0.241 C 
HETATM    4  C   UNL     1      -8.320   1.837 -33.263  1.00  0.00     0.029 C 
HETATM    5  C   UNL     1      -9.792   2.271 -33.305  1.00  0.00     0.009 C 
HETATM    6  C   UNL     1      -9.994   3.497 -34.194  1.00  0.00     0.028 C 
HETATM    7  C   UNL     1      -9.095   4.655 -33.795  1.00  0.00     0.235 C 
ENDROOT
BRANCH   4   8
HETATM    8  C   UNL     1      -7.933   1.157 -34.592  1.00  0.00     0.130 C 
BRANCH   8   9
HETATM    9  N   UNL     1      -6.594   0.608 -34.621  1.00  0.00    -0.342 N 
HETATM   10  C   UNL     1      -6.396  -0.711 -34.252  1.00  0.00     0.320 C 
HETATM   11  N   UNL     1      -5.059  -1.011 -34.178  1.00  0.00    -0.309 N 
HETATM   12  O   UNL     1      -7.351  -1.463 -34.085  1.00  0.00    -0.247 OA
HETATM   13  H   UNL     1      -4.427  -0.323 -34.567  1.00  0.00     0.170 HD
HETATM   14  H   UNL     1      -5.850   1.240 -34.347  1.00  0.00     0.164 HD
BRANCH  11  15
HETATM   15  C   UNL     1      -4.469  -2.218 -33.753  1.00  0.00     0.039 A 
HETATM   16  C   UNL     1      -3.740  -2.349 -32.573  1.00  0.00     0.071 A 
HETATM   17  C   UNL     1      -3.205  -3.587 -32.225  1.00  0.00     0.118 A 
HETATM   18  F   UNL     1      -2.538  -3.710 -31.070  1.00  0.00    -0.206 F 
HETATM   19  C   UNL     1      -3.365  -4.701 -33.041  1.00  0.00     0.042 A 
HETATM   20  C   UNL     1      -4.073  -4.573 -34.231  1.00  0.00     0.005 A 
HETATM   21  C   UNL     1      -4.624  -3.337 -34.584  1.00  0.00     0.030 A 
ENDBRANCH  11  15
ENDBRANCH   8   9
ENDBRANCH   4   8
BRANCH   1  22
HETATM   22  C   UNL     1      -6.807   5.416 -33.244  1.00  0.00     0.274 C 
BRANCH  22  23
HETATM   23  C   UNL     1      -5.340   5.219 -33.394  1.00  0.00    -0.015 A 
HETATM   24  C   UNL     1      -4.649   5.033 -34.576  1.00  0.00     0.097 A 
HETATM   25  N   UNL     1      -3.319   4.873 -34.285  1.00  0.00    -0.360 N 
HETATM   26  C   UNL     1      -3.129   4.916 -32.923  1.00  0.00     0.108 A 
HETATM   27  H   UNL     1      -2.579   4.693 -34.957  1.00  0.00     0.165 HD
HETATM   28  C   UNL     1      -4.363   5.191 -32.359  1.00  0.00     0.046 A 
BRANCH  26  29
HETATM   29  C   UNL     1      -1.869   4.692 -32.254  1.00  0.00     0.309 C 
HETATM   30  O   UNL     1      -1.701   3.922 -31.320  1.00  0.00    -0.258 OA
BRANCH  29  31
HETATM   31  O   UNL     1      -0.898   5.442 -32.845  1.00  0.00    -0.321 OA
HETATM   32  C   UNL     1      -0.851   6.791 -32.379  1.00  0.00     0.213 C 
ENDBRANCH  29  31
ENDBRANCH  26  29
ENDBRANCH  22  23
ENDBRANCH   1  22
TORSDOF 7
ENDMDL
