MODEL 1
REMARK VINA RESULT:      -9.7      0.000      0.000
REMARK  6 active torsions:
REMARK  status: ('A' for Active; 'I' for Inactive)
REMARK    1  A    between atoms: O_2  and  C_3 
REMARK    2  A    between atoms: C_5  and  C_6 
REMARK    3  A    between atoms: C_12  and  C_13 
REMARK       I    between atoms: C_13  and  N_14 
REMARK    4  A    between atoms: N_14  and  C_15 
REMARK    5  A    between atoms: C_17  and  O_18 
REMARK    6  A    between atoms: C_23  and  C_24 
ROOT
HETATM    1  C   UNL     1      -3.940   4.096 -31.537  1.00  0.00     0.118 C 
HETATM    2  N   UNL     1      -4.253   2.718 -31.923  1.00  0.00    -0.365 N 
HETATM    3  C   UNL     1      -5.457   2.404 -32.473  1.00  0.00     0.138 A 
HETATM    4  N   UNL     1      -6.492   3.304 -32.501  1.00  0.00    -0.240 N 
HETATM    5  N   UNL     1      -7.612   2.820 -33.059  1.00  0.00    -0.181 NA
HETATM    6  C   UNL     1      -7.249   1.604 -33.476  1.00  0.00     0.160 A 
HETATM    7  C   UNL     1      -5.924   1.268 -33.112  1.00  0.00     0.096 A 
HETATM    8  C   UNL     1      -6.431   4.657 -31.984  1.00  0.00     0.221 C 
HETATM    9  C   UNL     1      -5.204   4.836 -31.071  1.00  0.00     0.066 C 
HETATM   10  H   UNL     1      -3.422   2.209 -32.230  1.00  0.00     0.161 HD
ENDROOT
BRANCH   7  11
HETATM   11  C   UNL     1      -5.223   0.025 -33.382  1.00  0.00     0.261 C 
HETATM   12  N   UNL     1      -6.020  -0.917 -34.003  1.00  0.00    -0.323 N 
HETATM   13  H   UNL     1      -6.907  -0.569 -34.351  1.00  0.00     0.169 HD
HETATM   14  O   UNL     1      -4.040  -0.108 -33.093  1.00  0.00    -0.267 OA
BRANCH  12  15
HETATM   15  C   UNL     1      -5.727  -2.270 -34.256  1.00  0.00     0.037 A 
HETATM   16  C   UNL     1      -4.488  -2.856 -33.986  1.00  0.00     0.066 A 
HETATM   17  C   UNL     1      -4.301  -4.216 -34.226  1.00  0.00     0.067 A 
HETATM   18  C   UNL     1      -5.325  -5.003 -34.739  1.00  0.00     0.036 A 
HETATM   19  C   UNL     1      -6.560  -4.425 -35.014  1.00  0.00     0.005 A 
HETATM   20  C   UNL     1      -6.762  -3.065 -34.767  1.00  0.00     0.029 A 
BRANCH  17  21
HETATM   21  O   UNL     1      -3.109  -4.825 -33.958  1.00  0.00    -0.361 OA
HETATM   22  H   UNL     1      -2.618  -4.274 -33.324  1.00  0.00     0.217 HD
ENDBRANCH  17  21
ENDBRANCH  12  15
ENDBRANCH   7  11
BRANCH   1  23
HETATM   23  C   UNL     1      -3.095   4.815 -32.571  1.00  0.00    -0.033 A 
HETATM   24  C   UNL     1      -2.837   6.188 -32.402  1.00  0.00     0.046 A 
HETATM   25  C   UNL     1      -2.024   6.900 -33.292  1.00  0.00     0.068 A 
HETATM   26  C   UNL     1      -1.471   6.241 -34.386  1.00  0.00     0.037 A 
HETATM   27  C   UNL     1      -1.719   4.881 -34.578  1.00  0.00     0.003 A 
HETATM   28  C   UNL     1      -2.516   4.174 -33.676  1.00  0.00     0.009 A 
BRANCH  25  29
HETATM   29  O   UNL     1      -1.853   8.219 -32.977  1.00  0.00    -0.356 OA
HETATM   30  C   UNL     1      -2.056   8.583 -31.617  1.00  0.00     0.210 C 
ENDBRANCH  25  29
ENDBRANCH   1  23
BRANCH   8  31
HETATM   31  C   UNL     1      -6.502   5.665 -33.111  1.00  0.00     0.409 C 
HETATM   32  F   UNL     1      -5.869   5.273 -34.231  1.00  0.00    -0.169 F 
HETATM   33  F   UNL     1      -7.777   5.966 -33.449  1.00  0.00    -0.169 F 
HETATM   34  F   UNL     1      -5.932   6.836 -32.723  1.00  0.00    -0.169 F 
ENDBRANCH   8  31
TORSDOF 6
ENDMDL
MODEL 2
REMARK VINA RESULT:      -9.5      4.603      7.666
REMARK  6 active torsions:
REMARK  status: ('A' for Active; 'I' for Inactive)
REMARK    1  A    between atoms: O_2  and  C_3 
REMARK    2  A    between atoms: C_5  and  C_6 
REMARK    3  A    between atoms: C_12  and  C_13 
REMARK       I    between atoms: C_13  and  N_14 
REMARK    4  A    between atoms: N_14  and  C_15 
REMARK    5  A    between atoms: C_17  and  O_18 
REMARK    6  A    between atoms: C_23  and  C_24 
ROOT
HETATM    1  C   UNL     1      -6.792   0.375 -31.091  1.00  0.00     0.118 C 
HETATM    2  N   UNL     1      -8.157   0.722 -31.494  1.00  0.00    -0.365 N 
HETATM    3  C   UNL     1      -8.433   1.927 -32.061  1.00  0.00     0.138 A 
HETATM    4  N   UNL     1      -7.504   2.936 -32.093  1.00  0.00    -0.240 N 
HETATM    5  N   UNL     1      -7.951   4.062 -32.669  1.00  0.00    -0.181 NA
HETATM    6  C   UNL     1      -9.173   3.728 -33.093  1.00  0.00     0.160 A 
HETATM    7  C   UNL     1      -9.549   2.417 -32.716  1.00  0.00     0.096 A 
HETATM    8  C   UNL     1      -6.158   2.844 -31.563  1.00  0.00     0.221 C 
HETATM    9  C   UNL     1      -6.021   1.623 -30.634  1.00  0.00     0.066 C 
HETATM   10  H   UNL     1      -8.686  -0.099 -31.795  1.00  0.00     0.161 HD
ENDROOT
BRANCH   7  11
HETATM   11  C   UNL     1     -10.808   1.748 -32.989  1.00  0.00     0.261 C 
HETATM   12  N   UNL     1     -11.884   2.615 -33.013  1.00  0.00    -0.323 N 
HETATM   13  H   UNL     1     -11.643   3.601 -33.024  1.00  0.00     0.169 HD
HETATM   14  O   UNL     1     -10.850   0.542 -33.197  1.00  0.00    -0.267 OA
BRANCH  12  15
HETATM   15  C   UNL     1     -13.253   2.297 -33.078  1.00  0.00     0.037 A 
HETATM   16  C   UNL     1     -13.812   1.484 -34.067  1.00  0.00     0.066 A 
HETATM   17  C   UNL     1     -15.173   1.184 -34.027  1.00  0.00     0.067 A 
HETATM   18  C   UNL     1     -15.990   1.687 -33.023  1.00  0.00     0.036 A 
HETATM   19  C   UNL     1     -15.441   2.502 -32.037  1.00  0.00     0.005 A 
HETATM   20  C   UNL     1     -14.076   2.800 -32.061  1.00  0.00     0.029 A 
BRANCH  17  21
HETATM   21  O   UNL     1     -15.748   0.379 -34.967  1.00  0.00    -0.361 OA
HETATM   22  H   UNL     1     -15.612   0.782 -35.842  1.00  0.00     0.217 HD
ENDBRANCH  17  21
ENDBRANCH  12  15
ENDBRANCH   7  11
BRANCH   1  23
HETATM   23  C   UNL     1      -6.087  -0.503 -32.108  1.00  0.00    -0.033 A 
HETATM   24  C   UNL     1      -4.813  -1.013 -31.798  1.00  0.00     0.046 A 
HETATM   25  C   UNL     1      -4.131  -1.869 -32.670  1.00  0.00     0.068 A 
HETATM   26  C   UNL     1      -4.715  -2.209 -33.888  1.00  0.00     0.037 A 
HETATM   27  C   UNL     1      -5.974  -1.709 -34.220  1.00  0.00     0.003 A 
HETATM   28  C   UNL     1      -6.656  -0.871 -33.337  1.00  0.00     0.009 A 
BRANCH  25  29
HETATM   29  O   UNL     1      -2.915  -2.297 -32.215  1.00  0.00    -0.356 OA
HETATM   30  C   UNL     1      -2.861  -3.615 -31.683  1.00  0.00     0.210 C 
ENDBRANCH  25  29
ENDBRANCH   1  23
BRANCH   8  31
HETATM   31  C   UNL     1      -5.138   2.873 -32.682  1.00  0.00     0.409 C 
HETATM   32  F   UNL     1      -4.730   4.111 -33.012  1.00  0.00    -0.169 F 
HETATM   33  F   UNL     1      -4.035   2.146 -32.388  1.00  0.00    -0.169 F 
HETATM   34  F   UNL     1      -5.665   2.315 -33.803  1.00  0.00    -0.169 F 
ENDBRANCH   8  31
TORSDOF 6
ENDMDL
MODEL 3
REMARK VINA RESULT:      -9.3      4.472      7.622
REMARK  6 active torsions:
REMARK  status: ('A' for Active; 'I' for Inactive)
REMARK    1  A    between atoms: O_2  and  C_3 
REMARK    2  A    between atoms: C_5  and  C_6 
REMARK    3  A    between atoms: C_12  and  C_13 
REMARK       I    between atoms: C_13  and  N_14 
REMARK    4  A    between atoms: N_14  and  C_15 
REMARK    5  A    between atoms: C_17  and  O_18 
REMARK    6  A    between atoms: C_23  and  C_24 
ROOT
HETATM    1  C   UNL     1      -6.533   0.583 -30.789  1.00  0.00     0.118 C 
HETATM    2  N   UNL     1      -7.891   0.892 -31.242  1.00  0.00    -0.365 N 
HETATM    3  C   UNL     1      -8.167   2.064 -31.875  1.00  0.00     0.138 A 
HETATM    4  N   UNL     1      -7.249   3.081 -31.934  1.00  0.00    -0.240 N 
HETATM    5  N   UNL     1      -7.695   4.172 -32.577  1.00  0.00    -0.181 NA
HETATM    6  C   UNL     1      -8.903   3.802 -33.013  1.00  0.00     0.160 A 
HETATM    7  C   UNL     1      -9.272   2.506 -32.580  1.00  0.00     0.096 A 
HETATM    8  C   UNL     1      -5.916   3.033 -31.368  1.00  0.00     0.221 C 
HETATM    9  C   UNL     1      -5.788   1.862 -30.376  1.00  0.00     0.066 C 
HETATM   10  H   UNL     1      -8.404   0.050 -31.514  1.00  0.00     0.161 HD
ENDROOT
BRANCH   7  11
HETATM   11  C   UNL     1     -10.517   1.808 -32.850  1.00  0.00     0.261 C 
HETATM   12  N   UNL     1     -11.602   2.659 -32.936  1.00  0.00    -0.323 N 
HETATM   13  H   UNL     1     -11.374   3.646 -32.987  1.00  0.00     0.169 HD
HETATM   14  O   UNL     1     -10.539   0.594 -33.005  1.00  0.00    -0.267 OA
BRANCH  12  15
HETATM   15  C   UNL     1     -12.965   2.319 -33.017  1.00  0.00     0.037 A 
HETATM   16  C   UNL     1     -13.494   1.465 -33.987  1.00  0.00     0.066 A 
HETATM   17  C   UNL     1     -14.851   1.148 -33.963  1.00  0.00     0.067 A 
HETATM   18  C   UNL     1     -15.695   1.673 -32.993  1.00  0.00     0.036 A 
HETATM   19  C   UNL     1     -15.176   2.529 -32.025  1.00  0.00     0.005 A 
HETATM   20  C   UNL     1     -13.815   2.846 -32.034  1.00  0.00     0.029 A 
BRANCH  17  21
HETATM   21  O   UNL     1     -15.397   0.303 -34.885  1.00  0.00    -0.361 OA
HETATM   22  H   UNL     1     -15.458   0.773 -35.734  1.00  0.00     0.217 HD
ENDBRANCH  17  21
ENDBRANCH  12  15
ENDBRANCH   7  11
BRANCH   1  23
HETATM   23  C   UNL     1      -5.793  -0.335 -31.743  1.00  0.00    -0.033 A 
HETATM   24  C   UNL     1      -6.501  -0.918 -32.811  1.00  0.00     0.046 A 
HETATM   25  C   UNL     1      -5.868  -1.734 -33.755  1.00  0.00     0.068 A 
HETATM   26  C   UNL     1      -4.507  -1.997 -33.626  1.00  0.00     0.037 A 
HETATM   27  C   UNL     1      -3.786  -1.437 -32.572  1.00  0.00     0.003 A 
HETATM   28  C   UNL     1      -4.421  -0.609 -31.644  1.00  0.00     0.009 A 
BRANCH  25  29
HETATM   29  O   UNL     1      -6.687  -2.203 -34.744  1.00  0.00    -0.356 OA
HETATM   30  C   UNL     1      -6.776  -3.616 -34.883  1.00  0.00     0.210 C 
ENDBRANCH  25  29
ENDBRANCH   1  23
BRANCH   8  31
HETATM   31  C   UNL     1      -4.869   3.019 -32.462  1.00  0.00     0.409 C 
HETATM   32  F   UNL     1      -4.561   4.240 -32.934  1.00  0.00    -0.169 F 
HETATM   33  F   UNL     1      -3.716   2.437 -32.059  1.00  0.00    -0.169 F 
HETATM   34  F   UNL     1      -5.310   2.284 -33.516  1.00  0.00    -0.169 F 
ENDBRANCH   8  31
TORSDOF 6
ENDMDL
MODEL 4
REMARK VINA RESULT:      -9.3      3.913      6.889
REMARK  6 active torsions:
REMARK  status: ('A' for Active; 'I' for Inactive)
REMARK    1  A    between atoms: O_2  and  C_3 
REMARK    2  A    between atoms: C_5  and  C_6 
REMARK    3  A    between atoms: C_12  and  C_13 
REMARK       I    between atoms: C_13  and  N_14 
REMARK    4  A    between atoms: N_14  and  C_15 
REMARK    5  A    between atoms: C_17  and  O_18 
REMARK    6  A    between atoms: C_23  and  C_24 
ROOT
HETATM    1  C   UNL     1      -6.097   0.377 -30.565  1.00  0.00     0.118 C 
HETATM    2  N   UNL     1      -7.359   1.092 -30.772  1.00  0.00    -0.365 N 
HETATM    3  C   UNL     1      -7.368   2.404 -31.129  1.00  0.00     0.138 A 
HETATM    4  N   UNL     1      -6.224   3.161 -31.112  1.00  0.00    -0.240 N 
HETATM    5  N   UNL     1      -6.419   4.440 -31.472  1.00  0.00    -0.181 NA
HETATM    6  C   UNL     1      -7.711   4.472 -31.811  1.00  0.00     0.160 A 
HETATM    7  C   UNL     1      -8.370   3.239 -31.589  1.00  0.00     0.096 A 
HETATM    8  C   UNL     1      -4.910   2.674 -30.742  1.00  0.00     0.221 C 
HETATM    9  C   UNL     1      -5.015   1.321 -30.016  1.00  0.00     0.066 C 
HETATM   10  H   UNL     1      -8.091   0.476 -31.131  1.00  0.00     0.161 HD
ENDROOT
BRANCH   7  11
HETATM   11  C   UNL     1      -9.771   2.934 -31.824  1.00  0.00     0.261 C 
HETATM   12  N   UNL     1      -9.958   2.023 -32.846  1.00  0.00    -0.323 N 
HETATM   13  H   UNL     1      -9.116   1.555 -33.166  1.00  0.00     0.169 HD
HETATM   14  O   UNL     1     -10.651   3.439 -31.138  1.00  0.00    -0.267 OA
BRANCH  12  15
HETATM   15  C   UNL     1     -11.168   1.633 -33.448  1.00  0.00     0.037 A 
HETATM   16  C   UNL     1     -11.779   0.396 -33.227  1.00  0.00     0.066 A 
HETATM   17  C   UNL     1     -13.003   0.113 -33.832  1.00  0.00     0.067 A 
HETATM   18  C   UNL     1     -13.626   1.037 -34.661  1.00  0.00     0.036 A 
HETATM   19  C   UNL     1     -13.020   2.270 -34.889  1.00  0.00     0.005 A 
HETATM   20  C   UNL     1     -11.799   2.568 -34.280  1.00  0.00     0.029 A 
BRANCH  17  21
HETATM   21  O   UNL     1     -13.636  -1.078 -33.623  1.00  0.00    -0.361 OA
HETATM   22  H   UNL     1     -14.454  -1.087 -34.149  1.00  0.00     0.217 HD
ENDBRANCH  17  21
ENDBRANCH  12  15
ENDBRANCH   7  11
BRANCH   1  23
HETATM   23  C   UNL     1      -5.697  -0.462 -31.764  1.00  0.00    -0.033 A 
HETATM   24  C   UNL     1      -6.572  -0.537 -32.863  1.00  0.00     0.046 A 
HETATM   25  C   UNL     1      -6.242  -1.252 -34.020  1.00  0.00     0.068 A 
HETATM   26  C   UNL     1      -5.026  -1.927 -34.081  1.00  0.00     0.037 A 
HETATM   27  C   UNL     1      -4.145  -1.873 -33.001  1.00  0.00     0.003 A 
HETATM   28  C   UNL     1      -4.473  -1.142 -31.857  1.00  0.00     0.009 A 
BRANCH  25  29
HETATM   29  O   UNL     1      -7.188  -1.210 -35.006  1.00  0.00    -0.356 OA
HETATM   30  C   UNL     1      -7.813   0.047 -35.238  1.00  0.00     0.210 C 
ENDBRANCH  25  29
ENDBRANCH   1  23
BRANCH   8  31
HETATM   31  C   UNL     1      -3.989   2.649 -31.944  1.00  0.00     0.409 C 
HETATM   32  F   UNL     1      -3.372   3.820 -32.180  1.00  0.00    -0.169 F 
HETATM   33  F   UNL     1      -3.032   1.700 -31.835  1.00  0.00    -0.169 F 
HETATM   34  F   UNL     1      -4.697   2.340 -33.062  1.00  0.00    -0.169 F 
ENDBRANCH   8  31
TORSDOF 6
ENDMDL
MODEL 5
REMARK VINA RESULT:      -9.3      2.618      7.770
REMARK  6 active torsions:
REMARK  status: ('A' for Active; 'I' for Inactive)
REMARK    1  A    between atoms: O_2  and  C_3 
REMARK    2  A    between atoms: C_5  and  C_6 
REMARK    3  A    between atoms: C_12  and  C_13 
REMARK       I    between atoms: C_13  and  N_14 
REMARK    4  A    between atoms: N_14  and  C_15 
REMARK    5  A    between atoms: C_17  and  O_18 
REMARK    6  A    between atoms: C_23  and  C_24 
ROOT
HETATM    1  C   UNL     1      -7.166   0.683 -35.157  1.00  0.00     0.118 C 
HETATM    2  N   UNL     1      -6.527   1.972 -34.880  1.00  0.00    -0.365 N 
HETATM    3  C   UNL     1      -6.893   2.714 -33.799  1.00  0.00     0.138 A 
HETATM    4  N   UNL     1      -7.997   2.397 -33.050  1.00  0.00    -0.240 N 
HETATM    5  N   UNL     1      -8.222   3.247 -32.036  1.00  0.00    -0.181 NA
HETATM    6  C   UNL     1      -7.179   4.080 -32.094  1.00  0.00     0.160 A 
HETATM    7  C   UNL     1      -6.327   3.822 -33.194  1.00  0.00     0.096 A 
HETATM    8  C   UNL     1      -8.870   1.266 -33.293  1.00  0.00     0.221 C 
HETATM    9  C   UNL     1      -8.633   0.688 -34.701  1.00  0.00     0.066 C 
HETATM   10  H   UNL     1      -5.552   1.988 -35.184  1.00  0.00     0.161 HD
ENDROOT
BRANCH   7  11
HETATM   11  C   UNL     1      -5.124   4.546 -33.566  1.00  0.00     0.261 C 
HETATM   12  N   UNL     1      -4.252   4.719 -32.508  1.00  0.00    -0.323 N 
HETATM   13  H   UNL     1      -4.466   4.174 -31.679  1.00  0.00     0.169 HD
HETATM   14  O   UNL     1      -4.941   4.915 -34.719  1.00  0.00    -0.267 OA
BRANCH  12  15
HETATM   15  C   UNL     1      -3.088   5.508 -32.465  1.00  0.00     0.037 A 
HETATM   16  C   UNL     1      -3.099   6.905 -32.459  1.00  0.00     0.066 A 
HETATM   17  C   UNL     1      -1.897   7.604 -32.369  1.00  0.00     0.067 A 
HETATM   18  C   UNL     1      -0.680   6.937 -32.293  1.00  0.00     0.036 A 
HETATM   19  C   UNL     1      -0.662   5.545 -32.303  1.00  0.00     0.005 A 
HETATM   20  C   UNL     1      -1.861   4.834 -32.383  1.00  0.00     0.029 A 
BRANCH  17  21
HETATM   21  O   UNL     1      -1.873   8.969 -32.343  1.00  0.00    -0.361 OA
HETATM   22  H   UNL     1      -1.030   9.254 -31.949  1.00  0.00     0.217 HD
ENDBRANCH  17  21
ENDBRANCH  12  15
ENDBRANCH   7  11
BRANCH   1  23
HETATM   23  C   UNL     1      -6.331  -0.495 -34.691  1.00  0.00    -0.033 A 
HETATM   24  C   UNL     1      -5.206  -0.253 -33.882  1.00  0.00     0.046 A 
HETATM   25  C   UNL     1      -4.423  -1.297 -33.378  1.00  0.00     0.068 A 
HETATM   26  C   UNL     1      -4.749  -2.611 -33.701  1.00  0.00     0.037 A 
HETATM   27  C   UNL     1      -5.856  -2.876 -34.508  1.00  0.00     0.003 A 
HETATM   28  C   UNL     1      -6.643  -1.830 -34.992  1.00  0.00     0.009 A 
BRANCH  25  29
HETATM   29  O   UNL     1      -3.380  -0.899 -32.590  1.00  0.00    -0.356 OA
HETATM   30  C   UNL     1      -3.712  -0.210 -31.390  1.00  0.00     0.210 C 
ENDBRANCH  25  29
ENDBRANCH   1  23
BRANCH   8  31
HETATM   31  C   UNL     1      -8.741   0.241 -32.186  1.00  0.00     0.409 C 
HETATM   32  F   UNL     1      -7.515   0.189 -31.635  1.00  0.00    -0.169 F 
HETATM   33  F   UNL     1      -9.627   0.453 -31.186  1.00  0.00    -0.169 F 
HETATM   34  F   UNL     1      -9.012  -1.000 -32.669  1.00  0.00    -0.169 F 
ENDBRANCH   8  31
TORSDOF 6
ENDMDL
MODEL 6
REMARK VINA RESULT:      -9.2      2.589      8.198
REMARK  6 active torsions:
REMARK  status: ('A' for Active; 'I' for Inactive)
REMARK    1  A    between atoms: O_2  and  C_3 
REMARK    2  A    between atoms: C_5  and  C_6 
REMARK    3  A    between atoms: C_12  and  C_13 
REMARK       I    between atoms: C_13  and  N_14 
REMARK    4  A    between atoms: N_14  and  C_15 
REMARK    5  A    between atoms: C_17  and  O_18 
REMARK    6  A    between atoms: C_23  and  C_24 
ROOT
HETATM    1  C   UNL     1      -6.892   0.659 -35.037  1.00  0.00     0.118 C 
HETATM    2  N   UNL     1      -6.360   2.005 -34.811  1.00  0.00    -0.365 N 
HETATM    3  C   UNL     1      -6.854   2.794 -33.819  1.00  0.00     0.138 A 
HETATM    4  N   UNL     1      -7.990   2.455 -33.130  1.00  0.00    -0.240 N 
HETATM    5  N   UNL     1      -8.346   3.357 -32.202  1.00  0.00    -0.181 NA
HETATM    6  C   UNL     1      -7.356   4.253 -32.246  1.00  0.00     0.160 A 
HETATM    7  C   UNL     1      -6.407   3.978 -33.259  1.00  0.00     0.096 A 
HETATM    8  C   UNL     1      -8.769   1.252 -33.350  1.00  0.00     0.221 C 
HETATM    9  C   UNL     1      -8.388   0.595 -34.689  1.00  0.00     0.066 C 
HETATM   10  H   UNL     1      -5.367   2.067 -35.044  1.00  0.00     0.161 HD
ENDROOT
BRANCH   7  11
HETATM   11  C   UNL     1      -5.228   4.755 -33.597  1.00  0.00     0.261 C 
HETATM   12  N   UNL     1      -4.311   4.816 -32.564  1.00  0.00    -0.323 N 
HETATM   13  H   UNL     1      -4.484   4.177 -31.795  1.00  0.00     0.169 HD
HETATM   14  O   UNL     1      -5.099   5.257 -34.706  1.00  0.00    -0.267 OA
BRANCH  12  15
HETATM   15  C   UNL     1      -3.152   5.609 -32.480  1.00  0.00     0.037 A 
HETATM   16  C   UNL     1      -3.173   7.004 -32.398  1.00  0.00     0.066 A 
HETATM   17  C   UNL     1      -1.975   7.705 -32.272  1.00  0.00     0.067 A 
HETATM   18  C   UNL     1      -0.754   7.044 -32.235  1.00  0.00     0.036 A 
HETATM   19  C   UNL     1      -0.726   5.655 -32.322  1.00  0.00     0.005 A 
HETATM   20  C   UNL     1      -1.920   4.940 -32.438  1.00  0.00     0.029 A 
BRANCH  17  21
HETATM   21  O   UNL     1      -1.960   9.067 -32.171  1.00  0.00    -0.361 OA
HETATM   22  H   UNL     1      -1.053   9.377 -32.336  1.00  0.00     0.217 HD
ENDBRANCH  17  21
ENDBRANCH  12  15
ENDBRANCH   7  11
BRANCH   1  23
HETATM   23  C   UNL     1      -6.023  -0.423 -34.425  1.00  0.00    -0.033 A 
HETATM   24  C   UNL     1      -6.107  -1.731 -34.936  1.00  0.00     0.046 A 
HETATM   25  C   UNL     1      -5.297  -2.765 -34.450  1.00  0.00     0.068 A 
HETATM   26  C   UNL     1      -4.400  -2.501 -33.419  1.00  0.00     0.037 A 
HETATM   27  C   UNL     1      -4.305  -1.213 -32.891  1.00  0.00     0.003 A 
HETATM   28  C   UNL     1      -5.103  -0.183 -33.393  1.00  0.00     0.009 A 
BRANCH  25  29
HETATM   29  O   UNL     1      -5.481  -3.971 -35.066  1.00  0.00    -0.356 OA
HETATM   30  C   UNL     1      -6.817  -4.455 -35.138  1.00  0.00     0.210 C 
ENDBRANCH  25  29
ENDBRANCH   1  23
BRANCH   8  31
HETATM   31  C   UNL     1      -8.660   0.319 -32.162  1.00  0.00     0.409 C 
HETATM   32  F   UNL     1      -7.522   0.462 -31.461  1.00  0.00    -0.169 F 
HETATM   33  F   UNL     1      -9.691   0.468 -31.299  1.00  0.00    -0.169 F 
HETATM   34  F   UNL     1      -8.709  -0.973 -32.582  1.00  0.00    -0.169 F 
ENDBRANCH   8  31
TORSDOF 6
ENDMDL
MODEL 7
REMARK VINA RESULT:      -9.2      2.839      7.854
REMARK  6 active torsions:
REMARK  status: ('A' for Active; 'I' for Inactive)
REMARK    1  A    between atoms: O_2  and  C_3 
REMARK    2  A    between atoms: C_5  and  C_6 
REMARK    3  A    between atoms: C_12  and  C_13 
REMARK       I    between atoms: C_13  and  N_14 
REMARK    4  A    between atoms: N_14  and  C_15 
REMARK    5  A    between atoms: C_17  and  O_18 
REMARK    6  A    between atoms: C_23  and  C_24 
ROOT
HETATM    1  C   UNL     1      -6.444   1.544 -34.263  1.00  0.00     0.118 C 
HETATM    2  N   UNL     1      -5.496   2.348 -33.488  1.00  0.00    -0.365 N 
HETATM    3  C   UNL     1      -5.785   2.736 -32.216  1.00  0.00     0.138 A 
HETATM    4  N   UNL     1      -7.038   2.573 -31.683  1.00  0.00    -0.240 N 
HETATM    5  N   UNL     1      -7.152   3.031 -30.426  1.00  0.00    -0.181 NA
HETATM    6  C   UNL     1      -5.910   3.418 -30.124  1.00  0.00     0.160 A 
HETATM    7  C   UNL     1      -5.013   3.292 -31.212  1.00  0.00     0.096 A 
HETATM    8  C   UNL     1      -8.164   1.975 -32.373  1.00  0.00     0.221 C 
HETATM    9  C   UNL     1      -7.893   1.889 -33.886  1.00  0.00     0.066 C 
HETATM   10  H   UNL     1      -4.526   2.136 -33.731  1.00  0.00     0.161 HD
ENDROOT
BRANCH   7  11
HETATM   11  C   UNL     1      -3.603   3.641 -31.237  1.00  0.00     0.261 C 
HETATM   12  N   UNL     1      -3.373   4.968 -30.929  1.00  0.00    -0.323 N 
HETATM   13  H   UNL     1      -4.171   5.468 -30.552  1.00  0.00     0.169 HD
HETATM   14  O   UNL     1      -2.749   2.799 -31.484  1.00  0.00    -0.267 OA
BRANCH  12  15
HETATM   15  C   UNL     1      -2.164   5.682 -31.023  1.00  0.00     0.037 A 
HETATM   16  C   UNL     1      -1.404   6.066 -29.915  1.00  0.00     0.066 A 
HETATM   17  C   UNL     1      -0.195   6.732 -30.106  1.00  0.00     0.067 A 
HETATM   18  C   UNL     1       0.269   7.031 -31.381  1.00  0.00     0.036 A 
HETATM   19  C   UNL     1      -0.486   6.655 -32.489  1.00  0.00     0.005 A 
HETATM   20  C   UNL     1      -1.694   5.978 -32.310  1.00  0.00     0.029 A 
BRANCH  17  21
HETATM   21  O   UNL     1       0.581   7.106 -29.047  1.00  0.00    -0.361 OA
HETATM   22  H   UNL     1       1.485   6.781 -29.198  1.00  0.00     0.217 HD
ENDBRANCH  17  21
ENDBRANCH  12  15
ENDBRANCH   7  11
BRANCH   1  23
HETATM   23  C   UNL     1      -6.094   0.068 -34.264  1.00  0.00    -0.033 A 
HETATM   24  C   UNL     1      -4.986  -0.368 -33.514  1.00  0.00     0.046 A 
HETATM   25  C   UNL     1      -4.639  -1.721 -33.433  1.00  0.00     0.068 A 
HETATM   26  C   UNL     1      -5.393  -2.662 -34.129  1.00  0.00     0.037 A 
HETATM   27  C   UNL     1      -6.491  -2.253 -34.885  1.00  0.00     0.003 A 
HETATM   28  C   UNL     1      -6.843  -0.903 -34.947  1.00  0.00     0.009 A 
BRANCH  25  29
HETATM   29  O   UNL     1      -3.553  -1.986 -32.645  1.00  0.00    -0.356 OA
HETATM   30  C   UNL     1      -2.891  -0.864 -32.073  1.00  0.00     0.210 C 
ENDBRANCH  25  29
ENDBRANCH   1  23
BRANCH   8  31
HETATM   31  C   UNL     1      -8.532   0.646 -31.745  1.00  0.00     0.409 C 
HETATM   32  F   UNL     1      -7.489  -0.004 -31.199  1.00  0.00    -0.169 F 
HETATM   33  F   UNL     1      -9.477   0.778 -30.786  1.00  0.00    -0.169 F 
HETATM   34  F   UNL     1      -9.066  -0.178 -32.685  1.00  0.00    -0.169 F 
ENDBRANCH   8  31
TORSDOF 6
ENDMDL
MODEL 8
REMARK VINA RESULT:      -8.7      3.480      8.305
REMARK  6 active torsions:
REMARK  status: ('A' for Active; 'I' for Inactive)
REMARK    1  A    between atoms: O_2  and  C_3 
REMARK    2  A    between atoms: C_5  and  C_6 
REMARK    3  A    between atoms: C_12  and  C_13 
REMARK       I    between atoms: C_13  and  N_14 
REMARK    4  A    between atoms: N_14  and  C_15 
REMARK    5  A    between atoms: C_17  and  O_18 
REMARK    6  A    between atoms: C_23  and  C_24 
ROOT
HETATM    1  C   UNL     1      -7.832   1.427 -31.285  1.00  0.00     0.118 C 
HETATM    2  N   UNL     1      -6.580   2.170 -31.124  1.00  0.00    -0.365 N 
HETATM    3  C   UNL     1      -5.411   1.686 -31.625  1.00  0.00     0.138 A 
HETATM    4  N   UNL     1      -5.313   0.408 -32.113  1.00  0.00    -0.240 N 
HETATM    5  N   UNL     1      -4.083   0.090 -32.546  1.00  0.00    -0.181 NA
HETATM    6  C   UNL     1      -3.401   1.231 -32.407  1.00  0.00     0.160 A 
HETATM    7  C   UNL     1      -4.165   2.260 -31.805  1.00  0.00     0.096 A 
HETATM    8  C   UNL     1      -6.403  -0.546 -32.171  1.00  0.00     0.221 C 
HETATM    9  C   UNL     1      -7.575  -0.088 -31.283  1.00  0.00     0.066 C 
HETATM   10  H   UNL     1      -6.734   3.181 -31.116  1.00  0.00     0.161 HD
ENDROOT
BRANCH   7  11
HETATM   11  C   UNL     1      -3.731   3.609 -31.487  1.00  0.00     0.261 C 
HETATM   12  N   UNL     1      -2.581   3.976 -32.160  1.00  0.00    -0.323 N 
HETATM   13  H   UNL     1      -2.300   3.350 -32.907  1.00  0.00     0.169 HD
HETATM   14  O   UNL     1      -4.372   4.313 -30.718  1.00  0.00    -0.267 OA
BRANCH  12  15
HETATM   15  C   UNL     1      -1.796   5.128 -31.969  1.00  0.00     0.037 A 
HETATM   16  C   UNL     1      -2.145   6.391 -32.453  1.00  0.00     0.066 A 
HETATM   17  C   UNL     1      -1.327   7.486 -32.177  1.00  0.00     0.067 A 
HETATM   18  C   UNL     1      -0.162   7.344 -31.433  1.00  0.00     0.036 A 
HETATM   19  C   UNL     1       0.193   6.088 -30.951  1.00  0.00     0.005 A 
HETATM   20  C   UNL     1      -0.623   4.985 -31.214  1.00  0.00     0.029 A 
BRANCH  17  21
HETATM   21  O   UNL     1      -1.647   8.737 -32.619  1.00  0.00    -0.361 OA
HETATM   22  H   UNL     1      -0.879   9.102 -33.090  1.00  0.00     0.217 HD
ENDBRANCH  17  21
ENDBRANCH  12  15
ENDBRANCH   7  11
BRANCH   1  23
HETATM   23  C   UNL     1      -8.681   1.953 -32.427  1.00  0.00    -0.033 A 
HETATM   24  C   UNL     1      -9.896   1.308 -32.723  1.00  0.00     0.046 A 
HETATM   25  C   UNL     1     -10.749   1.772 -33.731  1.00  0.00     0.068 A 
HETATM   26  C   UNL     1     -10.381   2.889 -34.475  1.00  0.00     0.037 A 
HETATM   27  C   UNL     1      -9.178   3.541 -34.205  1.00  0.00     0.003 A 
HETATM   28  C   UNL     1      -8.340   3.083 -33.186  1.00  0.00     0.009 A 
BRANCH  25  29
HETATM   29  O   UNL     1     -11.901   1.050 -33.880  1.00  0.00    -0.356 OA
HETATM   30  C   UNL     1     -12.734   1.396 -34.980  1.00  0.00     0.210 C 
ENDBRANCH  25  29
ENDBRANCH   1  23
BRANCH   8  31
HETATM   31  C   UNL     1      -6.799  -0.820 -33.606  1.00  0.00     0.409 C 
HETATM   32  F   UNL     1      -6.616   0.228 -34.430  1.00  0.00    -0.169 F 
HETATM   33  F   UNL     1      -6.127  -1.870 -34.131  1.00  0.00    -0.169 F 
HETATM   34  F   UNL     1      -8.116  -1.150 -33.669  1.00  0.00    -0.169 F 
ENDBRANCH   8  31
TORSDOF 6
ENDMDL
MODEL 9
REMARK VINA RESULT:      -8.3      3.499      7.684
REMARK  6 active torsions:
REMARK  status: ('A' for Active; 'I' for Inactive)
REMARK    1  A    between atoms: O_2  and  C_3 
REMARK    2  A    between atoms: C_5  and  C_6 
REMARK    3  A    between atoms: C_12  and  C_13 
REMARK       I    between atoms: C_13  and  N_14 
REMARK    4  A    between atoms: N_14  and  C_15 
REMARK    5  A    between atoms: C_17  and  O_18 
REMARK    6  A    between atoms: C_23  and  C_24 
ROOT
HETATM    1  C   UNL     1      -7.662   1.246 -31.298  1.00  0.00     0.118 C 
HETATM    2  N   UNL     1      -6.413   1.993 -31.130  1.00  0.00    -0.365 N 
HETATM    3  C   UNL     1      -5.255   1.552 -31.692  1.00  0.00     0.138 A 
HETATM    4  N   UNL     1      -5.159   0.307 -32.258  1.00  0.00    -0.240 N 
HETATM    5  N   UNL     1      -3.940   0.028 -32.745  1.00  0.00    -0.181 NA
HETATM    6  C   UNL     1      -3.265   1.166 -32.559  1.00  0.00     0.160 A 
HETATM    7  C   UNL     1      -4.020   2.149 -31.875  1.00  0.00     0.096 A 
HETATM    8  C   UNL     1      -6.242  -0.655 -32.340  1.00  0.00     0.221 C 
HETATM    9  C   UNL     1      -7.391  -0.263 -31.393  1.00  0.00     0.066 C 
HETATM   10  H   UNL     1      -6.576   2.999 -31.058  1.00  0.00     0.161 HD
ENDROOT
BRANCH   7  11
HETATM   11  C   UNL     1      -3.589   3.482 -31.491  1.00  0.00     0.261 C 
HETATM   12  N   UNL     1      -2.350   3.815 -32.005  1.00  0.00    -0.323 N 
HETATM   13  H   UNL     1      -1.995   3.185 -32.716  1.00  0.00     0.169 HD
HETATM   14  O   UNL     1      -4.302   4.202 -30.804  1.00  0.00    -0.267 OA
BRANCH  12  15
HETATM   15  C   UNL     1      -1.561   4.941 -31.703  1.00  0.00     0.037 A 
HETATM   16  C   UNL     1      -0.853   5.091 -30.509  1.00  0.00     0.066 A 
HETATM   17  C   UNL     1      -0.059   6.220 -30.315  1.00  0.00     0.067 A 
HETATM   18  C   UNL     1       0.035   7.209 -31.286  1.00  0.00     0.036 A 
HETATM   19  C   UNL     1      -0.672   7.067 -32.477  1.00  0.00     0.005 A 
HETATM   20  C   UNL     1      -1.462   5.935 -32.687  1.00  0.00     0.029 A 
BRANCH  17  21
HETATM   21  O   UNL     1       0.661   6.390 -29.168  1.00  0.00    -0.361 OA
HETATM   22  H   UNL     1       0.040   6.435 -28.420  1.00  0.00     0.217 HD
ENDBRANCH  17  21
ENDBRANCH  12  15
ENDBRANCH   7  11
BRANCH   1  23
HETATM   23  C   UNL     1      -8.550   1.829 -32.380  1.00  0.00    -0.033 A 
HETATM   24  C   UNL     1      -8.241   3.099 -32.902  1.00  0.00     0.046 A 
HETATM   25  C   UNL     1      -8.990   3.673 -33.936  1.00  0.00     0.068 A 
HETATM   26  C   UNL     1     -10.083   2.981 -34.450  1.00  0.00     0.037 A 
HETATM   27  C   UNL     1     -10.413   1.724 -33.945  1.00  0.00     0.003 A 
HETATM   28  C   UNL     1      -9.650   1.151 -32.925  1.00  0.00     0.009 A 
BRANCH  25  29
HETATM   29  O   UNL     1      -8.549   4.900 -34.347  1.00  0.00    -0.356 OA
HETATM   30  C   UNL     1      -7.428   5.440 -33.657  1.00  0.00     0.210 C 
ENDBRANCH  25  29
ENDBRANCH   1  23
BRANCH   8  31
HETATM   31  C   UNL     1      -6.678  -0.848 -33.778  1.00  0.00     0.409 C 
HETATM   32  F   UNL     1      -5.916  -1.717 -34.464  1.00  0.00    -0.169 F 
HETATM   33  F   UNL     1      -7.960  -1.270 -33.870  1.00  0.00    -0.169 F 
HETATM   34  F   UNL     1      -6.626   0.337 -34.441  1.00  0.00    -0.169 F 
ENDBRANCH   8  31
TORSDOF 6
ENDMDL
MODEL 10
REMARK VINA RESULT:      -8.2      2.480      4.379
REMARK  6 active torsions:
REMARK  status: ('A' for Active; 'I' for Inactive)
REMARK    1  A    between atoms: O_2  and  C_3 
REMARK    2  A    between atoms: C_5  and  C_6 
REMARK    3  A    between atoms: C_12  and  C_13 
REMARK       I    between atoms: C_13  and  N_14 
REMARK    4  A    between atoms: N_14  and  C_15 
REMARK    5  A    between atoms: C_17  and  O_18 
REMARK    6  A    between atoms: C_23  and  C_24 
ROOT
HETATM    1  C   UNL     1      -6.751   4.051 -33.421  1.00  0.00     0.118 C 
HETATM    2  N   UNL     1      -6.286   2.667 -33.311  1.00  0.00    -0.365 N 
HETATM    3  C   UNL     1      -5.097   2.375 -32.717  1.00  0.00     0.138 A 
HETATM    4  N   UNL     1      -4.199   3.358 -32.384  1.00  0.00    -0.240 N 
HETATM    5  N   UNL     1      -3.071   2.890 -31.827  1.00  0.00    -0.181 NA
HETATM    6  C   UNL     1      -3.297   1.577 -31.725  1.00  0.00     0.160 A 
HETATM    7  C   UNL     1      -4.533   1.185 -32.293  1.00  0.00     0.096 A 
HETATM    8  C   UNL     1      -4.402   4.777 -32.600  1.00  0.00     0.221 C 
HETATM    9  C   UNL     1      -5.567   5.018 -33.577  1.00  0.00     0.066 C 
HETATM   10  H   UNL     1      -7.062   2.010 -33.213  1.00  0.00     0.161 HD
ENDROOT
BRANCH   7  11
HETATM   11  C   UNL     1      -5.078  -0.159 -32.375  1.00  0.00     0.261 C 
HETATM   12  N   UNL     1      -4.599  -0.868 -33.460  1.00  0.00    -0.323 N 
HETATM   13  H   UNL     1      -3.811  -0.444 -33.938  1.00  0.00     0.169 HD
HETATM   14  O   UNL     1      -5.856  -0.577 -31.527  1.00  0.00    -0.267 OA
BRANCH  12  15
HETATM   15  C   UNL     1      -5.032  -2.118 -33.938  1.00  0.00     0.037 A 
HETATM   16  C   UNL     1      -4.257  -3.279 -33.884  1.00  0.00     0.066 A 
HETATM   17  C   UNL     1      -4.787  -4.485 -34.340  1.00  0.00     0.067 A 
HETATM   18  C   UNL     1      -6.074  -4.554 -34.859  1.00  0.00     0.036 A 
HETATM   19  C   UNL     1      -6.851  -3.401 -34.919  1.00  0.00     0.005 A 
HETATM   20  C   UNL     1      -6.334  -2.189 -34.456  1.00  0.00     0.029 A 
BRANCH  17  21
HETATM   21  O   UNL     1      -4.064  -5.641 -34.286  1.00  0.00    -0.361 OA
HETATM   22  H   UNL     1      -4.047  -5.950 -33.364  1.00  0.00     0.217 HD
ENDBRANCH  17  21
ENDBRANCH  12  15
ENDBRANCH   7  11
BRANCH   1  23
HETATM   23  C   UNL     1      -7.765   4.414 -32.352  1.00  0.00    -0.033 A 
HETATM   24  C   UNL     1      -8.386   5.675 -32.405  1.00  0.00     0.046 A 
HETATM   25  C   UNL     1      -9.365   6.053 -31.479  1.00  0.00     0.068 A 
HETATM   26  C   UNL     1      -9.722   5.169 -30.465  1.00  0.00     0.037 A 
HETATM   27  C   UNL     1      -9.115   3.915 -30.388  1.00  0.00     0.003 A 
HETATM   28  C   UNL     1      -8.152   3.539 -31.326  1.00  0.00     0.009 A 
BRANCH  25  29
HETATM   29  O   UNL     1      -9.889   7.300 -31.679  1.00  0.00    -0.356 OA
HETATM   30  C   UNL     1     -10.931   7.408 -32.641  1.00  0.00     0.210 C 
ENDBRANCH  25  29
ENDBRANCH   1  23
BRANCH   8  31
HETATM   31  C   UNL     1      -4.557   5.502 -31.279  1.00  0.00     0.409 C 
HETATM   32  F   UNL     1      -3.393   5.911 -30.744  1.00  0.00    -0.169 F 
HETATM   33  F   UNL     1      -5.360   6.586 -31.383  1.00  0.00    -0.169 F 
HETATM   34  F   UNL     1      -5.148   4.685 -30.368  1.00  0.00    -0.169 F 
ENDBRANCH   8  31
TORSDOF 6
ENDMDL
