MODEL 1
REMARK VINA RESULT:      -9.5      0.000      0.000
REMARK  5 active torsions:
REMARK  status: ('A' for Active; 'I' for Inactive)
REMARK    1  A    between atoms: O_2  and  C_3 
REMARK    2  A    between atoms: C_5  and  O_6 
REMARK    3  A    between atoms: C_8  and  C_9 
REMARK    4  A    between atoms: C_21  and  N_22 
REMARK       I    between atoms: N_22  and  C_23 
REMARK    5  A    between atoms: C_23  and  C_24 
ROOT
HETATM    1  C   UNL     1      -6.085   0.849 -31.912  1.00  0.00    -0.022 A 
HETATM    2  C   UNL     1      -5.914   2.182 -32.316  1.00  0.00     0.031 A 
HETATM    3  C   UNL     1      -6.164   3.263 -31.447  1.00  0.00     0.059 A 
HETATM    4  C   UNL     1      -6.591   3.009 -30.132  1.00  0.00     0.050 A 
HETATM    5  N   UNL     1      -6.894   3.984 -29.161  1.00  0.00    -0.324 N 
HETATM    6  C   UNL     1      -6.382   5.249 -29.040  1.00  0.00     0.245 C 
HETATM    7  O   UNL     1      -6.781   5.983 -28.137  1.00  0.00    -0.271 OA
HETATM    8  C   UNL     1      -5.262   5.637 -30.008  1.00  0.00     0.181 C 
HETATM    9  N   UNL     1      -5.851   5.739 -31.340  1.00  0.00    -0.334 N 
HETATM   10  C   UNL     1      -6.171   4.609 -32.085  1.00  0.00     0.256 C 
HETATM   11  O   UNL     1      -6.493   4.699 -33.269  1.00  0.00    -0.267 OA
HETATM   12  C   UNL     1      -4.466   6.879 -29.571  1.00  0.00     0.060 C 
HETATM   13  C   UNL     1      -4.506   8.031 -30.576  1.00  0.00     0.088 C 
HETATM   14  C   UNL     1      -5.935   8.231 -31.061  1.00  0.00     0.045 C 
HETATM   15  C   UNL     1      -6.467   6.993 -31.766  1.00  0.00     0.129 C 
HETATM   16  C   UNL     1      -6.783   1.680 -29.731  1.00  0.00     0.031 A 
HETATM   17  C   UNL     1      -6.523   0.618 -30.604  1.00  0.00     0.014 A 
HETATM   18  H   UNL     1      -7.466   3.711 -28.368  1.00  0.00     0.169 HD
ENDROOT
BRANCH  13  19
HETATM   19  N   UNL     1      -3.585   7.808 -31.694  1.00  0.00    -0.356 N 
HETATM   20  C   UNL     1      -2.228   7.958 -31.546  1.00  0.00     0.222 C 
HETATM   21  O   UNL     1      -1.697   8.423 -30.544  1.00  0.00    -0.273 OA
HETATM   22  H   UNL     1      -3.920   7.199 -32.435  1.00  0.00     0.162 HD
BRANCH  20  23
HETATM   23  C   UNL     1      -1.416   7.613 -32.787  1.00  0.00     0.081 C 
HETATM   24  C   UNL     1      -2.298   6.963 -33.866  1.00  0.00     0.041 C 
HETATM   25  C   UNL     1      -2.725   5.538 -33.530  1.00  0.00     0.233 C 
HETATM   26  N   UNL     1      -1.527   4.730 -33.157  1.00  0.00    -0.075 N 
HETATM   27  H   UNL     1      -0.922   4.601 -33.978  1.00  0.00     0.277 HD
HETATM   28  H   UNL     1      -1.846   3.788 -32.894  1.00  0.00     0.277 HD
HETATM   29  C   UNL     1      -0.739   5.296 -32.022  1.00  0.00     0.233 C 
HETATM   30  C   UNL     1      -0.255   6.691 -32.396  1.00  0.00     0.041 C 
ENDBRANCH  20  23
ENDBRANCH  13  19
BRANCH   1  31
HETATM   31  C   UNL     1      -5.883  -0.264 -32.862  1.00  0.00     0.008 A 
HETATM   32  C   UNL     1      -4.616  -0.828 -33.127  1.00  0.00     0.082 A 
HETATM   33  C   UNL     1      -4.503  -1.888 -34.038  1.00  0.00     0.074 A 
HETATM   34  C   UNL     1      -5.629  -2.414 -34.681  1.00  0.00     0.070 A 
HETATM   35  C   UNL     1      -6.880  -1.870 -34.420  1.00  0.00     0.038 A 
HETATM   36  C   UNL     1      -7.004  -0.807 -33.521  1.00  0.00     0.018 A 
BRANCH  32  37
HETATM   37  O   UNL     1      -3.544  -0.261 -32.479  1.00  0.00    -0.355 OA
HETATM   38  C   UNL     1      -2.642  -1.146 -31.824  1.00  0.00     0.210 C 
ENDBRANCH  32  37
BRANCH  34  39
HETATM   39  O   UNL     1      -5.366  -3.448 -35.538  1.00  0.00    -0.356 OA
HETATM   40  C   UNL     1      -6.200  -4.596 -35.438  1.00  0.00     0.210 C 
ENDBRANCH  34  39
ENDBRANCH   1  31
TORSDOF 5
ENDMDL
MODEL 2
REMARK VINA RESULT:      -9.1      1.518      2.061
REMARK  5 active torsions:
REMARK  status: ('A' for Active; 'I' for Inactive)
REMARK    1  A    between atoms: O_2  and  C_3 
REMARK    2  A    between atoms: C_5  and  O_6 
REMARK    3  A    between atoms: C_8  and  C_9 
REMARK    4  A    between atoms: C_21  and  N_22 
REMARK       I    between atoms: N_22  and  C_23 
REMARK    5  A    between atoms: C_23  and  C_24 
ROOT
HETATM    1  C   UNL     1      -5.823   0.754 -31.781  1.00  0.00    -0.022 A 
HETATM    2  C   UNL     1      -5.350   2.031 -32.119  1.00  0.00     0.031 A 
HETATM    3  C   UNL     1      -5.830   3.196 -31.488  1.00  0.00     0.059 A 
HETATM    4  C   UNL     1      -6.808   3.086 -30.484  1.00  0.00     0.050 A 
HETATM    5  N   UNL     1      -7.392   4.158 -29.780  1.00  0.00    -0.324 N 
HETATM    6  C   UNL     1      -6.847   5.383 -29.495  1.00  0.00     0.245 C 
HETATM    7  O   UNL     1      -7.513   6.218 -28.886  1.00  0.00    -0.271 OA
HETATM    8  C   UNL     1      -5.384   5.597 -29.890  1.00  0.00     0.181 C 
HETATM    9  N   UNL     1      -5.325   5.638 -31.348  1.00  0.00    -0.334 N 
HETATM   10  C   UNL     1      -5.414   4.482 -32.115  1.00  0.00     0.256 C 
HETATM   11  O   UNL     1      -5.182   4.501 -33.323  1.00  0.00    -0.267 OA
HETATM   12  C   UNL     1      -4.724   6.801 -29.195  1.00  0.00     0.060 C 
HETATM   13  C   UNL     1      -4.200   7.866 -30.160  1.00  0.00     0.088 C 
HETATM   14  C   UNL     1      -5.249   8.143 -31.227  1.00  0.00     0.045 C 
HETATM   15  C   UNL     1      -5.557   6.900 -32.048  1.00  0.00     0.129 C 
HETATM   16  C   UNL     1      -7.298   1.814 -30.157  1.00  0.00     0.031 A 
HETATM   17  C   UNL     1      -6.805   0.666 -30.788  1.00  0.00     0.014 A 
HETATM   18  H   UNL     1      -8.275   3.998 -29.308  1.00  0.00     0.169 HD
ENDROOT
BRANCH  13  19
HETATM   19  N   UNL     1      -2.917   7.479 -30.753  1.00  0.00    -0.356 N 
HETATM   20  C   UNL     1      -1.725   7.924 -30.237  1.00  0.00     0.222 C 
HETATM   21  O   UNL     1      -1.634   8.777 -29.362  1.00  0.00    -0.273 OA
HETATM   22  H   UNL     1      -2.914   6.612 -31.284  1.00  0.00     0.162 HD
BRANCH  20  23
HETATM   23  C   UNL     1      -0.490   7.362 -30.930  1.00  0.00     0.081 C 
HETATM   24  C   UNL     1      -0.828   6.092 -31.727  1.00  0.00     0.041 C 
HETATM   25  C   UNL     1      -1.110   4.877 -30.851  1.00  0.00     0.233 C 
HETATM   26  N   UNL     1      -0.003   4.699 -29.867  1.00  0.00    -0.075 N 
HETATM   27  H   UNL     1       0.861   4.433 -30.357  1.00  0.00     0.277 HD
HETATM   28  H   UNL     1      -0.237   3.900 -29.262  1.00  0.00     0.277 HD
HETATM   29  C   UNL     1       0.243   5.892 -29.003  1.00  0.00     0.233 C 
HETATM   30  C   UNL     1       0.596   7.083 -29.884  1.00  0.00     0.041 C 
ENDBRANCH  20  23
ENDBRANCH  13  19
BRANCH   1  31
HETATM   31  C   UNL     1      -5.354  -0.446 -32.504  1.00  0.00     0.008 A 
HETATM   32  C   UNL     1      -6.000  -0.952 -33.652  1.00  0.00     0.082 A 
HETATM   33  C   UNL     1      -5.494  -2.094 -34.288  1.00  0.00     0.074 A 
HETATM   34  C   UNL     1      -4.344  -2.738 -33.818  1.00  0.00     0.070 A 
HETATM   35  C   UNL     1      -3.697  -2.241 -32.693  1.00  0.00     0.038 A 
HETATM   36  C   UNL     1      -4.199  -1.109 -32.044  1.00  0.00     0.018 A 
BRANCH  32  37
HETATM   37  O   UNL     1      -7.134  -0.291 -34.060  1.00  0.00    -0.355 OA
HETATM   38  C   UNL     1      -7.089   0.348 -35.331  1.00  0.00     0.210 C 
ENDBRANCH  32  37
BRANCH  34  39
HETATM   39  O   UNL     1      -3.966  -3.835 -34.542  1.00  0.00    -0.356 OA
HETATM   40  C   UNL     1      -4.565  -5.077 -34.190  1.00  0.00     0.210 C 
ENDBRANCH  34  39
ENDBRANCH   1  31
TORSDOF 5
ENDMDL
MODEL 3
REMARK VINA RESULT:      -8.9      2.966      8.660
REMARK  5 active torsions:
REMARK  status: ('A' for Active; 'I' for Inactive)
REMARK    1  A    between atoms: O_2  and  C_3 
REMARK    2  A    between atoms: C_5  and  O_6 
REMARK    3  A    between atoms: C_8  and  C_9 
REMARK    4  A    between atoms: C_21  and  N_22 
REMARK       I    between atoms: N_22  and  C_23 
REMARK    5  A    between atoms: C_23  and  C_24 
ROOT
HETATM    1  C   UNL     1      -4.036   5.282 -31.990  1.00  0.00    -0.022 A 
HETATM    2  C   UNL     1      -4.287   3.901 -31.970  1.00  0.00     0.031 A 
HETATM    3  C   UNL     1      -5.500   3.356 -32.436  1.00  0.00     0.059 A 
HETATM    4  C   UNL     1      -6.493   4.212 -32.944  1.00  0.00     0.050 A 
HETATM    5  N   UNL     1      -7.755   3.815 -33.426  1.00  0.00    -0.324 N 
HETATM    6  C   UNL     1      -8.108   2.620 -33.999  1.00  0.00     0.245 C 
HETATM    7  O   UNL     1      -9.274   2.432 -34.345  1.00  0.00    -0.271 OA
HETATM    8  C   UNL     1      -6.981   1.617 -34.252  1.00  0.00     0.181 C 
HETATM    9  N   UNL     1      -6.522   1.137 -32.952  1.00  0.00    -0.334 N 
HETATM   10  C   UNL     1      -5.713   1.914 -32.131  1.00  0.00     0.256 C 
HETATM   11  O   UNL     1      -5.183   1.439 -31.127  1.00  0.00    -0.267 OA
HETATM   12  C   UNL     1      -7.355   0.500 -35.243  1.00  0.00     0.060 C 
HETATM   13  C   UNL     1      -7.260  -0.910 -34.658  1.00  0.00     0.088 C 
HETATM   14  C   UNL     1      -7.905  -0.931 -33.280  1.00  0.00     0.045 C 
HETATM   15  C   UNL     1      -7.200   0.009 -32.315  1.00  0.00     0.129 C 
HETATM   16  C   UNL     1      -6.255   5.593 -32.946  1.00  0.00     0.031 A 
HETATM   17  C   UNL     1      -5.042   6.118 -32.487  1.00  0.00     0.014 A 
HETATM   18  H   UNL     1      -8.489   4.513 -33.485  1.00  0.00     0.169 HD
ENDROOT
BRANCH  13  19
HETATM   19  N   UNL     1      -5.875  -1.386 -34.612  1.00  0.00    -0.356 N 
HETATM   20  C   UNL     1      -5.575  -2.725 -34.678  1.00  0.00     0.222 C 
HETATM   21  O   UNL     1      -6.413  -3.617 -34.629  1.00  0.00    -0.273 OA
HETATM   22  H   UNL     1      -5.164  -0.722 -34.904  1.00  0.00     0.162 HD
BRANCH  20  23
HETATM   23  C   UNL     1      -4.084  -3.036 -34.693  1.00  0.00     0.081 C 
HETATM   24  C   UNL     1      -3.810  -4.472 -34.218  1.00  0.00     0.041 C 
HETATM   25  C   UNL     1      -4.020  -4.672 -32.721  1.00  0.00     0.233 C 
HETATM   26  N   UNL     1      -3.267  -3.628 -31.965  1.00  0.00    -0.075 N 
HETATM   27  H   UNL     1      -2.256  -3.776 -32.077  1.00  0.00     0.277 HD
HETATM   28  H   UNL     1      -3.458  -3.759 -30.962  1.00  0.00     0.277 HD
HETATM   29  C   UNL     1      -3.626  -2.228 -32.337  1.00  0.00     0.233 C 
HETATM   30  C   UNL     1      -3.344  -2.016 -33.819  1.00  0.00     0.041 C 
ENDBRANCH  20  23
ENDBRANCH  13  19
BRANCH   1  31
HETATM   31  C   UNL     1      -2.785   5.835 -31.433  1.00  0.00     0.008 A 
HETATM   32  C   UNL     1      -1.528   5.672 -32.056  1.00  0.00     0.082 A 
HETATM   33  C   UNL     1      -0.384   6.231 -31.470  1.00  0.00     0.074 A 
HETATM   34  C   UNL     1      -0.462   6.967 -30.283  1.00  0.00     0.070 A 
HETATM   35  C   UNL     1      -1.697   7.140 -29.668  1.00  0.00     0.038 A 
HETATM   36  C   UNL     1      -2.843   6.579 -30.237  1.00  0.00     0.018 A 
BRANCH  32  37
HETATM   37  O   UNL     1      -1.508   4.925 -33.210  1.00  0.00    -0.355 OA
HETATM   38  C   UNL     1      -1.399   5.636 -34.438  1.00  0.00     0.210 C 
ENDBRANCH  32  37
BRANCH  34  39
HETATM   39  O   UNL     1       0.734   7.455 -29.832  1.00  0.00    -0.356 OA
HETATM   40  C   UNL     1       0.797   7.845 -28.465  1.00  0.00     0.210 C 
ENDBRANCH  34  39
ENDBRANCH   1  31
TORSDOF 5
ENDMDL
MODEL 4
REMARK VINA RESULT:      -8.9      3.123      5.552
REMARK  5 active torsions:
REMARK  status: ('A' for Active; 'I' for Inactive)
REMARK    1  A    between atoms: O_2  and  C_3 
REMARK    2  A    between atoms: C_5  and  O_6 
REMARK    3  A    between atoms: C_8  and  C_9 
REMARK    4  A    between atoms: C_21  and  N_22 
REMARK       I    between atoms: N_22  and  C_23 
REMARK    5  A    between atoms: C_23  and  C_24 
ROOT
HETATM    1  C   UNL     1      -5.786   3.373 -33.377  1.00  0.00    -0.022 A 
HETATM    2  C   UNL     1      -4.788   3.517 -32.401  1.00  0.00     0.031 A 
HETATM    3  C   UNL     1      -3.720   4.423 -32.554  1.00  0.00     0.059 A 
HETATM    4  C   UNL     1      -3.647   5.217 -33.712  1.00  0.00     0.050 A 
HETATM    5  N   UNL     1      -2.634   6.151 -34.008  1.00  0.00    -0.324 N 
HETATM    6  C   UNL     1      -1.864   6.873 -33.135  1.00  0.00     0.245 C 
HETATM    7  O   UNL     1      -1.000   7.633 -33.572  1.00  0.00    -0.271 OA
HETATM    8  C   UNL     1      -2.199   6.744 -31.648  1.00  0.00     0.181 C 
HETATM    9  N   UNL     1      -1.835   5.392 -31.233  1.00  0.00    -0.334 N 
HETATM   10  C   UNL     1      -2.622   4.293 -31.557  1.00  0.00     0.256 C 
HETATM   11  O   UNL     1      -2.411   3.189 -31.053  1.00  0.00    -0.267 OA
HETATM   12  C   UNL     1      -1.594   7.858 -30.776  1.00  0.00     0.060 C 
HETATM   13  C   UNL     1      -0.651   7.352 -29.683  1.00  0.00     0.088 C 
HETATM   14  C   UNL     1       0.292   6.311 -30.270  1.00  0.00     0.045 C 
HETATM   15  C   UNL     1      -0.465   5.108 -30.810  1.00  0.00     0.129 C 
HETATM   16  C   UNL     1      -4.630   5.062 -34.698  1.00  0.00     0.031 A 
HETATM   17  C   UNL     1      -5.688   4.162 -34.529  1.00  0.00     0.014 A 
HETATM   18  H   UNL     1      -2.515   6.440 -34.974  1.00  0.00     0.169 HD
ENDROOT
BRANCH  13  19
HETATM   19  N   UNL     1      -1.388   6.823 -28.532  1.00  0.00    -0.356 N 
HETATM   20  C   UNL     1      -1.491   7.530 -27.360  1.00  0.00     0.222 C 
HETATM   21  O   UNL     1      -0.870   8.561 -27.126  1.00  0.00    -0.273 OA
HETATM   22  H   UNL     1      -2.106   6.134 -28.740  1.00  0.00     0.162 HD
BRANCH  20  23
HETATM   23  C   UNL     1      -2.355   6.866 -26.297  1.00  0.00     0.081 C 
HETATM   24  C   UNL     1      -3.751   6.527 -26.845  1.00  0.00     0.041 C 
HETATM   25  C   UNL     1      -4.638   7.748 -27.059  1.00  0.00     0.233 C 
HETATM   26  N   UNL     1      -4.658   8.577 -25.818  1.00  0.00    -0.075 N 
HETATM   27  H   UNL     1      -5.143   8.070 -25.067  1.00  0.00     0.277 HD
HETATM   28  H   UNL     1      -5.228   9.414 -26.002  1.00  0.00     0.277 HD
HETATM   29  C   UNL     1      -3.308   9.014 -25.355  1.00  0.00     0.233 C 
HETATM   30  C   UNL     1      -2.453   7.785 -25.074  1.00  0.00     0.041 C 
ENDBRANCH  20  23
ENDBRANCH  13  19
BRANCH   1  31
HETATM   31  C   UNL     1      -6.857   2.366 -33.226  1.00  0.00     0.008 A 
HETATM   32  C   UNL     1      -7.919   2.506 -32.307  1.00  0.00     0.082 A 
HETATM   33  C   UNL     1      -8.903   1.511 -32.224  1.00  0.00     0.074 A 
HETATM   34  C   UNL     1      -8.866   0.383 -33.051  1.00  0.00     0.070 A 
HETATM   35  C   UNL     1      -7.828   0.241 -33.964  1.00  0.00     0.038 A 
HETATM   36  C   UNL     1      -6.836   1.222 -34.049  1.00  0.00     0.018 A 
BRANCH  32  37
HETATM   37  O   UNL     1      -7.896   3.625 -31.509  1.00  0.00    -0.355 OA
HETATM   38  C   UNL     1      -7.922   3.417 -30.101  1.00  0.00     0.210 C 
ENDBRANCH  32  37
BRANCH  34  39
HETATM   39  O   UNL     1      -9.894  -0.500 -32.860  1.00  0.00    -0.356 OA
HETATM   40  C   UNL     1     -11.207  -0.028 -33.137  1.00  0.00     0.210 C 
ENDBRANCH  34  39
ENDBRANCH   1  31
TORSDOF 5
ENDMDL
MODEL 5
REMARK VINA RESULT:      -8.8      2.976      4.168
REMARK  5 active torsions:
REMARK  status: ('A' for Active; 'I' for Inactive)
REMARK    1  A    between atoms: O_2  and  C_3 
REMARK    2  A    between atoms: C_5  and  O_6 
REMARK    3  A    between atoms: C_8  and  C_9 
REMARK    4  A    between atoms: C_21  and  N_22 
REMARK       I    between atoms: N_22  and  C_23 
REMARK    5  A    between atoms: C_23  and  C_24 
ROOT
HETATM    1  C   UNL     1      -7.719   0.002 -33.188  1.00  0.00    -0.022 A 
HETATM    2  C   UNL     1      -7.496   1.387 -33.201  1.00  0.00     0.031 A 
HETATM    3  C   UNL     1      -8.533   2.312 -32.967  1.00  0.00     0.059 A 
HETATM    4  C   UNL     1      -9.832   1.844 -32.704  1.00  0.00     0.050 A 
HETATM    5  N   UNL     1     -10.966   2.645 -32.469  1.00  0.00    -0.324 N 
HETATM    6  C   UNL     1     -11.019   3.904 -31.930  1.00  0.00     0.245 C 
HETATM    7  O   UNL     1     -12.103   4.474 -31.818  1.00  0.00    -0.271 OA
HETATM    8  C   UNL     1      -9.702   4.491 -31.415  1.00  0.00     0.181 C 
HETATM    9  N   UNL     1      -8.858   4.757 -32.576  1.00  0.00    -0.334 N 
HETATM   10  C   UNL     1      -8.197   3.736 -33.249  1.00  0.00     0.256 C 
HETATM   11  O   UNL     1      -7.349   3.983 -34.105  1.00  0.00    -0.267 OA
HETATM   12  C   UNL     1      -9.884   5.695 -30.475  1.00  0.00     0.060 C 
HETATM   13  C   UNL     1      -9.218   6.979 -30.970  1.00  0.00     0.088 C 
HETATM   14  C   UNL     1      -9.527   7.172 -32.448  1.00  0.00     0.045 C 
HETATM   15  C   UNL     1      -8.987   6.027 -33.289  1.00  0.00     0.129 C 
HETATM   16  C   UNL     1     -10.064   0.461 -32.710  1.00  0.00     0.031 A 
HETATM   17  C   UNL     1      -9.022  -0.445 -32.938  1.00  0.00     0.014 A 
HETATM   18  H   UNL     1     -11.883   2.228 -32.588  1.00  0.00     0.169 HD
ENDROOT
BRANCH  13  19
HETATM   19  N   UNL     1      -7.775   6.975 -30.718  1.00  0.00    -0.356 N 
HETATM   20  C   UNL     1      -7.248   7.485 -29.557  1.00  0.00     0.222 C 
HETATM   21  O   UNL     1      -7.899   8.107 -28.726  1.00  0.00    -0.273 OA
HETATM   22  H   UNL     1      -7.236   6.274 -31.221  1.00  0.00     0.162 HD
BRANCH  20  23
HETATM   23  C   UNL     1      -5.738   7.330 -29.429  1.00  0.00     0.081 C 
HETATM   24  C   UNL     1      -5.220   6.180 -30.308  1.00  0.00     0.041 C 
HETATM   25  C   UNL     1      -5.588   4.796 -29.784  1.00  0.00     0.233 C 
HETATM   26  N   UNL     1      -5.201   4.684 -28.347  1.00  0.00    -0.075 N 
HETATM   27  H   UNL     1      -4.177   4.698 -28.258  1.00  0.00     0.277 HD
HETATM   28  H   UNL     1      -5.497   3.759 -28.007  1.00  0.00     0.277 HD
HETATM   29  C   UNL     1      -5.807   5.728 -27.469  1.00  0.00     0.233 C 
HETATM   30  C   UNL     1      -5.375   7.105 -27.957  1.00  0.00     0.041 C 
ENDBRANCH  20  23
ENDBRANCH  13  19
BRANCH   1  31
HETATM   31  C   UNL     1      -6.631  -0.946 -33.504  1.00  0.00     0.008 A 
HETATM   32  C   UNL     1      -5.468  -1.072 -32.715  1.00  0.00     0.082 A 
HETATM   33  C   UNL     1      -4.479  -1.998 -33.076  1.00  0.00     0.074 A 
HETATM   34  C   UNL     1      -4.630  -2.820 -34.199  1.00  0.00     0.070 A 
HETATM   35  C   UNL     1      -5.776  -2.708 -34.977  1.00  0.00     0.038 A 
HETATM   36  C   UNL     1      -6.764  -1.781 -34.632  1.00  0.00     0.018 A 
BRANCH  32  37
HETATM   37  O   UNL     1      -5.366  -0.229 -31.634  1.00  0.00    -0.355 OA
HETATM   38  C   UNL     1      -4.054   0.060 -31.160  1.00  0.00     0.210 C 
ENDBRANCH  32  37
BRANCH  34  39
HETATM   39  O   UNL     1      -3.587  -3.677 -34.424  1.00  0.00    -0.356 OA
HETATM   40  C   UNL     1      -3.513  -4.832 -33.596  1.00  0.00     0.210 C 
ENDBRANCH  34  39
ENDBRANCH   1  31
TORSDOF 5
ENDMDL
MODEL 6
REMARK VINA RESULT:      -8.7      2.715      3.475
REMARK  5 active torsions:
REMARK  status: ('A' for Active; 'I' for Inactive)
REMARK    1  A    between atoms: O_2  and  C_3 
REMARK    2  A    between atoms: C_5  and  O_6 
REMARK    3  A    between atoms: C_8  and  C_9 
REMARK    4  A    between atoms: C_21  and  N_22 
REMARK       I    between atoms: N_22  and  C_23 
REMARK    5  A    between atoms: C_23  and  C_24 
ROOT
HETATM    1  C   UNL     1      -6.020   1.111 -31.486  1.00  0.00    -0.022 A 
HETATM    2  C   UNL     1      -5.263   2.278 -31.303  1.00  0.00     0.031 A 
HETATM    3  C   UNL     1      -5.790   3.417 -30.663  1.00  0.00     0.059 A 
HETATM    4  C   UNL     1      -7.112   3.393 -30.185  1.00  0.00     0.050 A 
HETATM    5  N   UNL     1      -7.777   4.456 -29.544  1.00  0.00    -0.324 N 
HETATM    6  C   UNL     1      -7.235   5.465 -28.790  1.00  0.00     0.245 C 
HETATM    7  O   UNL     1      -7.968   6.334 -28.320  1.00  0.00    -0.271 OA
HETATM    8  C   UNL     1      -5.733   5.387 -28.510  1.00  0.00     0.181 C 
HETATM    9  N   UNL     1      -5.039   5.626 -29.772  1.00  0.00    -0.334 N 
HETATM   10  C   UNL     1      -4.956   4.648 -30.756  1.00  0.00     0.256 C 
HETATM   11  O   UNL     1      -4.220   4.789 -31.732  1.00  0.00    -0.267 OA
HETATM   12  C   UNL     1      -5.270   6.288 -27.352  1.00  0.00     0.060 C 
HETATM   13  C   UNL     1      -4.226   7.331 -27.753  1.00  0.00     0.088 C 
HETATM   14  C   UNL     1      -4.650   7.998 -29.054  1.00  0.00     0.045 C 
HETATM   15  C   UNL     1      -4.751   6.996 -30.192  1.00  0.00     0.129 C 
HETATM   16  C   UNL     1      -7.879   2.237 -30.385  1.00  0.00     0.031 A 
HETATM   17  C   UNL     1      -7.338   1.111 -31.015  1.00  0.00     0.014 A 
HETATM   18  H   UNL     1      -8.791   4.440 -29.512  1.00  0.00     0.169 HD
ENDROOT
BRANCH  13  19
HETATM   19  N   UNL     1      -2.887   6.746 -27.860  1.00  0.00    -0.356 N 
HETATM   20  C   UNL     1      -1.870   7.122 -27.017  1.00  0.00     0.222 C 
HETATM   21  O   UNL     1      -1.947   8.057 -26.228  1.00  0.00    -0.273 OA
HETATM   22  H   UNL     1      -2.834   5.828 -28.294  1.00  0.00     0.162 HD
BRANCH  20  23
HETATM   23  C   UNL     1      -0.568   6.358 -27.220  1.00  0.00     0.081 C 
HETATM   24  C   UNL     1       0.583   7.000 -26.428  1.00  0.00     0.041 C 
HETATM   25  C   UNL     1       1.061   8.326 -27.009  1.00  0.00     0.233 C 
HETATM   26  N   UNL     1       1.342   8.164 -28.465  1.00  0.00    -0.075 N 
HETATM   27  H   UNL     1       2.155   7.549 -28.598  1.00  0.00     0.277 HD
HETATM   28  H   UNL     1       1.621   9.080 -28.842  1.00  0.00     0.277 HD
HETATM   29  C   UNL     1       0.182   7.659 -29.258  1.00  0.00     0.233 C 
HETATM   30  C   UNL     1      -0.242   6.300 -28.716  1.00  0.00     0.041 C 
ENDBRANCH  20  23
ENDBRANCH  13  19
BRANCH   1  31
HETATM   31  C   UNL     1      -5.468  -0.046 -32.220  1.00  0.00     0.008 A 
HETATM   32  C   UNL     1      -5.995  -0.498 -33.449  1.00  0.00     0.082 A 
HETATM   33  C   UNL     1      -5.415  -1.602 -34.091  1.00  0.00     0.074 A 
HETATM   34  C   UNL     1      -4.306  -2.258 -33.545  1.00  0.00     0.070 A 
HETATM   35  C   UNL     1      -3.776  -1.813 -32.340  1.00  0.00     0.038 A 
HETATM   36  C   UNL     1      -4.352  -0.721 -31.686  1.00  0.00     0.018 A 
BRANCH  32  37
HETATM   37  O   UNL     1      -7.094   0.173 -33.930  1.00  0.00    -0.355 OA
HETATM   38  C   UNL     1      -7.123   0.451 -35.326  1.00  0.00     0.210 C 
ENDBRANCH  32  37
BRANCH  34  39
HETATM   39  O   UNL     1      -3.845  -3.313 -34.284  1.00  0.00    -0.356 OA
HETATM   40  C   UNL     1      -3.525  -4.505 -33.575  1.00  0.00     0.210 C 
ENDBRANCH  34  39
ENDBRANCH   1  31
TORSDOF 5
ENDMDL
MODEL 7
REMARK VINA RESULT:      -8.5      2.857      3.882
REMARK  5 active torsions:
REMARK  status: ('A' for Active; 'I' for Inactive)
REMARK    1  A    between atoms: O_2  and  C_3 
REMARK    2  A    between atoms: C_5  and  O_6 
REMARK    3  A    between atoms: C_8  and  C_9 
REMARK    4  A    between atoms: C_21  and  N_22 
REMARK       I    between atoms: N_22  and  C_23 
REMARK    5  A    between atoms: C_23  and  C_24 
ROOT
HETATM    1  C   UNL     1      -4.987   1.560 -32.525  1.00  0.00    -0.022 A 
HETATM    2  C   UNL     1      -4.049   2.592 -32.373  1.00  0.00     0.031 A 
HETATM    3  C   UNL     1      -4.432   3.948 -32.331  1.00  0.00     0.059 A 
HETATM    4  C   UNL     1      -5.792   4.287 -32.438  1.00  0.00     0.050 A 
HETATM    5  N   UNL     1      -6.319   5.593 -32.429  1.00  0.00    -0.324 N 
HETATM    6  C   UNL     1      -5.809   6.711 -31.822  1.00  0.00     0.245 C 
HETATM    7  O   UNL     1      -6.393   7.787 -31.939  1.00  0.00    -0.271 OA
HETATM    8  C   UNL     1      -4.566   6.517 -30.951  1.00  0.00     0.181 C 
HETATM    9  N   UNL     1      -3.454   6.193 -31.841  1.00  0.00    -0.334 N 
HETATM   10  C   UNL     1      -3.315   4.931 -32.406  1.00  0.00     0.256 C 
HETATM   11  O   UNL     1      -2.287   4.611 -33.003  1.00  0.00    -0.267 OA
HETATM   12  C   UNL     1      -4.290   7.689 -29.993  1.00  0.00     0.060 C 
HETATM   13  C   UNL     1      -2.931   8.360 -30.204  1.00  0.00     0.088 C 
HETATM   14  C   UNL     1      -2.702   8.583 -31.692  1.00  0.00     0.045 C 
HETATM   15  C   UNL     1      -2.685   7.271 -32.460  1.00  0.00     0.129 C 
HETATM   16  C   UNL     1      -6.730   3.260 -32.611  1.00  0.00     0.031 A 
HETATM   17  C   UNL     1      -6.335   1.918 -32.643  1.00  0.00     0.014 A 
HETATM   18  H   UNL     1      -7.251   5.738 -32.805  1.00  0.00     0.169 HD
ENDROOT
BRANCH  13  19
HETATM   19  N   UNL     1      -1.844   7.584 -29.602  1.00  0.00    -0.356 N 
HETATM   20  C   UNL     1      -1.624   7.589 -28.246  1.00  0.00     0.222 C 
HETATM   21  O   UNL     1      -2.201   8.335 -27.463  1.00  0.00    -0.273 OA
HETATM   22  H   UNL     1      -1.516   6.784 -30.136  1.00  0.00     0.162 HD
BRANCH  20  23
HETATM   23  C   UNL     1      -0.501   6.669 -27.786  1.00  0.00     0.081 C 
HETATM   24  C   UNL     1      -0.231   6.830 -26.281  1.00  0.00     0.041 C 
HETATM   25  C   UNL     1       0.453   8.143 -25.919  1.00  0.00     0.233 C 
HETATM   26  N   UNL     1       1.660   8.333 -26.776  1.00  0.00    -0.075 N 
HETATM   27  H   UNL     1       2.372   7.631 -26.539  1.00  0.00     0.277 HD
HETATM   28  H   UNL     1       2.078   9.244 -26.542  1.00  0.00     0.277 HD
HETATM   29  C   UNL     1       1.378   8.304 -28.241  1.00  0.00     0.233 C 
HETATM   30  C   UNL     1       0.761   6.960 -28.606  1.00  0.00     0.041 C 
ENDBRANCH  20  23
ENDBRANCH  13  19
BRANCH   1  31
HETATM   31  C   UNL     1      -4.556   0.152 -32.635  1.00  0.00     0.008 A 
HETATM   32  C   UNL     1      -5.031  -0.721 -33.638  1.00  0.00     0.082 A 
HETATM   33  C   UNL     1      -4.572  -2.045 -33.682  1.00  0.00     0.074 A 
HETATM   34  C   UNL     1      -3.633  -2.519 -32.759  1.00  0.00     0.070 A 
HETATM   35  C   UNL     1      -3.154  -1.664 -31.774  1.00  0.00     0.038 A 
HETATM   36  C   UNL     1      -3.612  -0.345 -31.713  1.00  0.00     0.018 A 
BRANCH  32  37
HETATM   37  O   UNL     1      -5.964  -0.207 -34.507  1.00  0.00    -0.355 OA
HETATM   38  C   UNL     1      -7.046  -1.058 -34.872  1.00  0.00     0.210 C 
ENDBRANCH  32  37
BRANCH  34  39
HETATM   39  O   UNL     1      -3.275  -3.829 -32.928  1.00  0.00    -0.356 OA
HETATM   40  C   UNL     1      -3.855  -4.518 -34.030  1.00  0.00     0.210 C 
ENDBRANCH  34  39
ENDBRANCH   1  31
TORSDOF 5
ENDMDL
MODEL 8
REMARK VINA RESULT:      -8.5      3.348      5.748
REMARK  5 active torsions:
REMARK  status: ('A' for Active; 'I' for Inactive)
REMARK    1  A    between atoms: O_2  and  C_3 
REMARK    2  A    between atoms: C_5  and  O_6 
REMARK    3  A    between atoms: C_8  and  C_9 
REMARK    4  A    between atoms: C_21  and  N_22 
REMARK       I    between atoms: N_22  and  C_23 
REMARK    5  A    between atoms: C_23  and  C_24 
ROOT
HETATM    1  C   UNL     1      -4.396   1.215 -32.285  1.00  0.00    -0.022 A 
HETATM    2  C   UNL     1      -5.608   1.695 -31.766  1.00  0.00     0.031 A 
HETATM    3  C   UNL     1      -5.806   3.058 -31.471  1.00  0.00     0.059 A 
HETATM    4  C   UNL     1      -4.766   3.975 -31.705  1.00  0.00     0.050 A 
HETATM    5  N   UNL     1      -4.812   5.358 -31.444  1.00  0.00    -0.324 N 
HETATM    6  C   UNL     1      -5.906   6.185 -31.438  1.00  0.00     0.245 C 
HETATM    7  O   UNL     1      -5.766   7.376 -31.162  1.00  0.00    -0.271 OA
HETATM    8  C   UNL     1      -7.239   5.570 -31.868  1.00  0.00     0.181 C 
HETATM    9  N   UNL     1      -7.641   4.626 -30.829  1.00  0.00    -0.334 N 
HETATM   10  C   UNL     1      -7.046   3.375 -30.709  1.00  0.00     0.256 C 
HETATM   11  O   UNL     1      -7.510   2.520 -29.956  1.00  0.00    -0.267 OA
HETATM   12  C   UNL     1      -8.315   6.610 -32.230  1.00  0.00     0.060 C 
HETATM   13  C   UNL     1      -9.580   6.520 -31.375  1.00  0.00     0.088 C 
HETATM   14  C   UNL     1      -9.193   6.371 -29.911  1.00  0.00     0.045 C 
HETATM   15  C   UNL     1      -8.391   5.102 -29.668  1.00  0.00     0.129 C 
HETATM   16  C   UNL     1      -3.547   3.497 -32.204  1.00  0.00     0.031 A 
HETATM   17  C   UNL     1      -3.369   2.141 -32.499  1.00  0.00     0.014 A 
HETATM   18  H   UNL     1      -3.935   5.862 -31.367  1.00  0.00     0.169 HD
ENDROOT
BRANCH  13  19
HETATM   19  N   UNL     1     -10.456   5.431 -31.814  1.00  0.00    -0.356 N 
HETATM   20  C   UNL     1     -11.329   5.591 -32.862  1.00  0.00     0.222 C 
HETATM   21  O   UNL     1     -11.556   6.666 -33.405  1.00  0.00    -0.273 OA
HETATM   22  H   UNL     1     -10.145   4.490 -31.591  1.00  0.00     0.162 HD
BRANCH  20  23
HETATM   23  C   UNL     1     -12.107   4.335 -33.231  1.00  0.00     0.081 C 
HETATM   24  C   UNL     1     -11.365   3.067 -32.779  1.00  0.00     0.041 C 
HETATM   25  C   UNL     1     -10.122   2.758 -33.606  1.00  0.00     0.233 C 
HETATM   26  N   UNL     1     -10.468   2.773 -35.057  1.00  0.00    -0.075 N 
HETATM   27  H   UNL     1     -11.092   1.986 -35.277  1.00  0.00     0.277 HD
HETATM   28  H   UNL     1      -9.607   2.604 -35.594  1.00  0.00     0.277 HD
HETATM   29  C   UNL     1     -11.075   4.054 -35.526  1.00  0.00     0.233 C 
HETATM   30  C   UNL     1     -12.355   4.318 -34.744  1.00  0.00     0.041 C 
ENDBRANCH  20  23
ENDBRANCH  13  19
BRANCH   1  31
HETATM   31  C   UNL     1      -4.189  -0.228 -32.522  1.00  0.00     0.008 A 
HETATM   32  C   UNL     1      -4.819  -0.933 -33.570  1.00  0.00     0.082 A 
HETATM   33  C   UNL     1      -4.570  -2.303 -33.736  1.00  0.00     0.074 A 
HETATM   34  C   UNL     1      -3.690  -2.988 -32.891  1.00  0.00     0.070 A 
HETATM   35  C   UNL     1      -3.059  -2.299 -31.861  1.00  0.00     0.038 A 
HETATM   36  C   UNL     1      -3.308  -0.936 -31.680  1.00  0.00     0.018 A 
BRANCH  32  37
HETATM   37  O   UNL     1      -5.685  -0.214 -34.359  1.00  0.00    -0.355 OA
HETATM   38  C   UNL     1      -6.877  -0.872 -34.778  1.00  0.00     0.210 C 
ENDBRANCH  32  37
BRANCH  34  39
HETATM   39  O   UNL     1      -3.542  -4.318 -33.176  1.00  0.00    -0.356 OA
HETATM   40  C   UNL     1      -4.417  -4.868 -34.153  1.00  0.00     0.210 C 
ENDBRANCH  34  39
ENDBRANCH   1  31
TORSDOF 5
ENDMDL
MODEL 9
REMARK VINA RESULT:      -8.3      5.356      7.929
REMARK  5 active torsions:
REMARK  status: ('A' for Active; 'I' for Inactive)
REMARK    1  A    between atoms: O_2  and  C_3 
REMARK    2  A    between atoms: C_5  and  O_6 
REMARK    3  A    between atoms: C_8  and  C_9 
REMARK    4  A    between atoms: C_21  and  N_22 
REMARK       I    between atoms: N_22  and  C_23 
REMARK    5  A    between atoms: C_23  and  C_24 
ROOT
HETATM    1  C   UNL     1     -12.105   3.081 -33.173  1.00  0.00    -0.022 A 
HETATM    2  C   UNL     1     -10.852   3.209 -32.554  1.00  0.00     0.031 A 
HETATM    3  C   UNL     1      -9.913   2.159 -32.544  1.00  0.00     0.059 A 
HETATM    4  C   UNL     1     -10.228   0.943 -33.175  1.00  0.00     0.050 A 
HETATM    5  N   UNL     1      -9.401  -0.196 -33.231  1.00  0.00    -0.324 N 
HETATM    6  C   UNL     1      -8.032  -0.253 -33.203  1.00  0.00     0.245 C 
HETATM    7  O   UNL     1      -7.468  -1.345 -33.237  1.00  0.00    -0.271 OA
HETATM    8  C   UNL     1      -7.285   1.083 -33.218  1.00  0.00     0.181 C 
HETATM    9  N   UNL     1      -7.529   1.735 -31.935  1.00  0.00    -0.334 N 
HETATM   10  C   UNL     1      -8.738   2.358 -31.651  1.00  0.00     0.256 C 
HETATM   11  O   UNL     1      -8.872   3.059 -30.648  1.00  0.00    -0.267 OA
HETATM   12  C   UNL     1      -5.798   0.958 -33.593  1.00  0.00     0.060 C 
HETATM   13  C   UNL     1      -4.839   1.463 -32.514  1.00  0.00     0.088 C 
HETATM   14  C   UNL     1      -5.281   0.936 -31.156  1.00  0.00     0.045 C 
HETATM   15  C   UNL     1      -6.673   1.425 -30.791  1.00  0.00     0.129 C 
HETATM   16  C   UNL     1     -11.487   0.803 -33.777  1.00  0.00     0.031 A 
HETATM   17  C   UNL     1     -12.405   1.858 -33.784  1.00  0.00     0.014 A 
HETATM   18  H   UNL     1      -9.830  -1.092 -33.440  1.00  0.00     0.169 HD
ENDROOT
BRANCH  13  19
HETATM   19  N   UNL     1      -4.738   2.925 -32.518  1.00  0.00    -0.356 N 
HETATM   20  C   UNL     1      -3.576   3.565 -32.162  1.00  0.00     0.222 C 
HETATM   21  O   UNL     1      -2.603   2.997 -31.680  1.00  0.00    -0.273 OA
HETATM   22  H   UNL     1      -5.388   3.416 -33.127  1.00  0.00     0.162 HD
BRANCH  20  23
HETATM   23  C   UNL     1      -3.626   5.081 -32.296  1.00  0.00     0.081 C 
HETATM   24  C   UNL     1      -4.587   5.510 -33.417  1.00  0.00     0.041 C 
HETATM   25  C   UNL     1      -4.059   5.224 -34.818  1.00  0.00     0.233 C 
HETATM   26  N   UNL     1      -2.679   5.775 -34.957  1.00  0.00    -0.075 N 
HETATM   27  H   UNL     1      -2.708   6.803 -34.928  1.00  0.00     0.277 HD
HETATM   28  H   UNL     1      -2.330   5.533 -35.895  1.00  0.00     0.277 HD
HETATM   29  C   UNL     1      -1.712   5.260 -33.944  1.00  0.00     0.233 C 
HETATM   30  C   UNL     1      -2.211   5.615 -32.549  1.00  0.00     0.041 C 
ENDBRANCH  20  23
ENDBRANCH  13  19
BRANCH   1  31
HETATM   31  C   UNL     1     -13.099   4.172 -33.111  1.00  0.00     0.008 A 
HETATM   32  C   UNL     1     -14.253   4.115 -32.300  1.00  0.00     0.082 A 
HETATM   33  C   UNL     1     -15.149   5.192 -32.289  1.00  0.00     0.074 A 
HETATM   34  C   UNL     1     -14.916   6.339 -33.057  1.00  0.00     0.070 A 
HETATM   35  C   UNL     1     -13.778   6.406 -33.853  1.00  0.00     0.038 A 
HETATM   36  C   UNL     1     -12.882   5.334 -33.879  1.00  0.00     0.018 A 
BRANCH  32  37
HETATM   37  O   UNL     1     -14.440   2.959 -31.580  1.00  0.00    -0.355 OA
HETATM   38  C   UNL     1     -15.570   2.161 -31.919  1.00  0.00     0.210 C 
ENDBRANCH  32  37
BRANCH  34  39
HETATM   39  O   UNL     1     -15.873   7.309 -32.942  1.00  0.00    -0.356 OA
HETATM   40  C   UNL     1     -17.199   6.875 -32.661  1.00  0.00     0.210 C 
ENDBRANCH  34  39
ENDBRANCH   1  31
TORSDOF 5
ENDMDL
MODEL 10
REMARK VINA RESULT:      -8.2     17.502     19.996
REMARK  5 active torsions:
REMARK  status: ('A' for Active; 'I' for Inactive)
REMARK    1  A    between atoms: O_2  and  C_3 
REMARK    2  A    between atoms: C_5  and  O_6 
REMARK    3  A    between atoms: C_8  and  C_9 
REMARK    4  A    between atoms: C_21  and  N_22 
REMARK       I    between atoms: N_22  and  C_23 
REMARK    5  A    between atoms: C_23  and  C_24 
ROOT
HETATM    1  C   UNL     1      -4.374 -16.554 -32.740  1.00  0.00    -0.022 A 
HETATM    2  C   UNL     1      -4.711 -15.487 -33.587  1.00  0.00     0.031 A 
HETATM    3  C   UNL     1      -4.029 -15.250 -34.797  1.00  0.00     0.059 A 
HETATM    4  C   UNL     1      -2.981 -16.105 -35.179  1.00  0.00     0.050 A 
HETATM    5  N   UNL     1      -2.201 -15.984 -36.346  1.00  0.00    -0.324 N 
HETATM    6  C   UNL     1      -2.557 -15.435 -37.551  1.00  0.00     0.245 C 
HETATM    7  O   UNL     1      -1.734 -15.389 -38.465  1.00  0.00    -0.271 OA
HETATM    8  C   UNL     1      -4.012 -14.988 -37.704  1.00  0.00     0.181 C 
HETATM    9  N   UNL     1      -4.205 -13.826 -36.841  1.00  0.00    -0.334 N 
HETATM   10  C   UNL     1      -4.338 -13.954 -35.463  1.00  0.00     0.256 C 
HETATM   11  O   UNL     1      -4.681 -13.000 -34.766  1.00  0.00    -0.267 OA
HETATM   12  C   UNL     1      -4.445 -14.771 -39.165  1.00  0.00     0.060 C 
HETATM   13  C   UNL     1      -4.920 -13.349 -39.469  1.00  0.00     0.088 C 
HETATM   14  C   UNL     1      -3.952 -12.349 -38.853  1.00  0.00     0.045 C 
HETATM   15  C   UNL     1      -3.885 -12.490 -37.341  1.00  0.00     0.129 C 
HETATM   16  C   UNL     1      -2.626 -17.160 -34.326  1.00  0.00     0.031 A 
HETATM   17  C   UNL     1      -3.319 -17.386 -33.131  1.00  0.00     0.014 A 
HETATM   18  H   UNL     1      -1.303 -16.456 -36.376  1.00  0.00     0.169 HD
ENDROOT
BRANCH  13  19
HETATM   19  N   UNL     1      -6.292 -13.125 -39.008  1.00  0.00    -0.356 N 
HETATM   20  C   UNL     1      -7.258 -12.622 -39.845  1.00  0.00     0.222 C 
HETATM   21  O   UNL     1      -7.030 -12.187 -40.968  1.00  0.00    -0.273 OA
HETATM   22  H   UNL     1      -6.593 -13.681 -38.212  1.00  0.00     0.162 HD
BRANCH  20  23
HETATM   23  C   UNL     1      -8.644 -12.525 -39.222  1.00  0.00     0.081 C 
HETATM   24  C   UNL     1      -8.825 -13.561 -38.101  1.00  0.00     0.041 C 
HETATM   25  C   UNL     1      -8.955 -14.994 -38.607  1.00  0.00     0.233 C 
HETATM   26  N   UNL     1     -10.003 -15.057 -39.668  1.00  0.00    -0.075 N 
HETATM   27  H   UNL     1     -10.928 -14.874 -39.257  1.00  0.00     0.277 HD
HETATM   28  H   UNL     1     -10.043 -16.023 -40.021  1.00  0.00     0.277 HD
HETATM   29  C   UNL     1      -9.761 -14.140 -40.820  1.00  0.00     0.233 C 
HETATM   30  C   UNL     1      -9.705 -12.705 -40.314  1.00  0.00     0.041 C 
ENDBRANCH  20  23
ENDBRANCH  13  19
BRANCH   1  31
HETATM   31  C   UNL     1      -5.057 -16.741 -31.444  1.00  0.00     0.008 A 
HETATM   32  C   UNL     1      -4.565 -16.212 -30.232  1.00  0.00     0.082 A 
HETATM   33  C   UNL     1      -5.272 -16.427 -29.040  1.00  0.00     0.074 A 
HETATM   34  C   UNL     1      -6.474 -17.144 -29.029  1.00  0.00     0.070 A 
HETATM   35  C   UNL     1      -6.970 -17.662 -30.220  1.00  0.00     0.038 A 
HETATM   36  C   UNL     1      -6.268 -17.462 -31.412  1.00  0.00     0.018 A 
BRANCH  32  37
HETATM   37  O   UNL     1      -3.373 -15.530 -30.299  1.00  0.00    -0.355 OA
HETATM   38  C   UNL     1      -2.242 -16.142 -29.689  1.00  0.00     0.210 C 
ENDBRANCH  32  37
BRANCH  34  39
HETATM   39  O   UNL     1      -7.054 -17.269 -27.796  1.00  0.00    -0.356 OA
HETATM   40  C   UNL     1      -8.476 -17.258 -27.749  1.00  0.00     0.210 C 
ENDBRANCH  34  39
ENDBRANCH   1  31
TORSDOF 5
ENDMDL
