MODEL 1
REMARK VINA RESULT:      -6.9      0.000      0.000
REMARK  4 active torsions:
REMARK  status: ('A' for Active; 'I' for Inactive)
REMARK    1  A    between atoms: C_2  and  N_3 
REMARK       I    between atoms: N_3  and  C_4 
REMARK    2  A    between atoms: C_4  and  C_5 
REMARK    3  A    between atoms: C_5  and  N_6 
REMARK    4  A    between atoms: N_6  and  C_7 
ROOT
HETATM    1  C   UNL     1      -7.432   0.493 -33.654  1.00  0.00     0.022 A 
HETATM    2  C   UNL     1      -6.518  -0.582 -33.864  1.00  0.00     0.013 A 
HETATM    3  C   UNL     1      -5.161  -0.413 -33.478  1.00  0.00     0.044 A 
HETATM    4  C   UNL     1      -4.224  -1.447 -33.639  1.00  0.00     0.032 A 
HETATM    5  C   UNL     1      -4.610  -2.666 -34.195  1.00  0.00     0.021 A 
HETATM    6  C   UNL     1      -5.927  -2.848 -34.597  1.00  0.00     0.012 A 
HETATM    7 BR   UNL     1      -6.450  -4.494 -35.364  1.00  0.00    -0.051 Br
HETATM    8  C   UNL     1      -6.869  -1.827 -34.441  1.00  0.00     0.034 A 
HETATM    9  N   UNL     1      -4.765   0.763 -32.960  1.00  0.00    -0.365 N 
HETATM   10  H   UNL     1      -3.788   0.873 -32.692  1.00  0.00     0.165 HD
HETATM   11  C   UNL     1      -5.588   1.804 -32.802  1.00  0.00     0.090 A 
HETATM   12  C   UNL     1      -6.924   1.698 -33.153  1.00  0.00     0.041 A 
ENDROOT
BRANCH   1  13
HETATM   13  N   UNL     1      -8.766   0.383 -34.080  1.00  0.00    -0.283 NA
HETATM   14  H   UNL     1      -8.894  -0.359 -34.772  1.00  0.00     0.128 HD
BRANCH  13  15
HETATM   15  C   UNL     1      -9.865   0.309 -33.088  1.00  0.00     0.195 C 
BRANCH  15  16
HETATM   16  C   UNL     1     -10.976   1.309 -33.430  1.00  0.00     0.230 C 
HETATM   17  N   UNL     1     -12.241   0.760 -33.411  1.00  0.00    -0.360 N 
HETATM   18  H   UNL     1     -12.334  -0.203 -33.108  1.00  0.00     0.162 HD
HETATM   19  O   UNL     1     -10.735   2.473 -33.731  1.00  0.00    -0.272 OA
BRANCH  17  20
HETATM   20  C   UNL     1     -13.426   1.529 -33.722  1.00  0.00     0.118 C 
HETATM   21  C   UNL     1     -14.553   0.643 -34.219  1.00  0.00     0.026 C 
ENDBRANCH  17  20
ENDBRANCH  15  16
ENDBRANCH  13  15
ENDBRANCH   1  13
TORSDOF 4
ENDMDL
MODEL 2
REMARK VINA RESULT:      -6.7      2.236      3.327
REMARK  4 active torsions:
REMARK  status: ('A' for Active; 'I' for Inactive)
REMARK    1  A    between atoms: C_2  and  N_3 
REMARK       I    between atoms: N_3  and  C_4 
REMARK    2  A    between atoms: C_4  and  C_5 
REMARK    3  A    between atoms: C_5  and  N_6 
REMARK    4  A    between atoms: N_6  and  C_7 
ROOT
HETATM    1  C   UNL     1      -4.556  -0.298 -32.930  1.00  0.00     0.022 A 
HETATM    2  C   UNL     1      -4.449  -1.693 -33.212  1.00  0.00     0.013 A 
HETATM    3  C   UNL     1      -3.462  -2.456 -32.532  1.00  0.00     0.044 A 
HETATM    4  C   UNL     1      -3.330  -3.837 -32.752  1.00  0.00     0.032 A 
HETATM    5  C   UNL     1      -4.166  -4.488 -33.658  1.00  0.00     0.021 A 
HETATM    6  C   UNL     1      -5.127  -3.760 -34.348  1.00  0.00     0.012 A 
HETATM    7 BR   UNL     1      -6.252  -4.637 -35.587  1.00  0.00    -0.051 Br
HETATM    8  C   UNL     1      -5.269  -2.385 -34.137  1.00  0.00     0.034 A 
HETATM    9  N   UNL     1      -2.633  -1.842 -31.671  1.00  0.00    -0.365 N 
HETATM   10  H   UNL     1      -1.925  -2.400 -31.194  1.00  0.00     0.165 HD
HETATM   11  C   UNL     1      -2.674  -0.528 -31.429  1.00  0.00     0.090 A 
HETATM   12  C   UNL     1      -3.620   0.268 -32.056  1.00  0.00     0.041 A 
ENDROOT
BRANCH   1  13
HETATM   13  N   UNL     1      -5.478   0.497 -33.629  1.00  0.00    -0.283 NA
HETATM   14  H   UNL     1      -6.333  -0.012 -33.865  1.00  0.00     0.128 HD
BRANCH  13  15
HETATM   15  C   UNL     1      -5.845   1.841 -33.120  1.00  0.00     0.195 C 
BRANCH  15  16
HETATM   16  C   UNL     1      -7.351   1.927 -32.845  1.00  0.00     0.230 C 
HETATM   17  N   UNL     1      -7.844   0.863 -32.120  1.00  0.00    -0.360 N 
HETATM   18  H   UNL     1      -7.180   0.177 -31.775  1.00  0.00     0.162 HD
HETATM   19  O   UNL     1      -8.041   2.845 -33.276  1.00  0.00    -0.272 OA
BRANCH  17  20
HETATM   20  C   UNL     1      -9.242   0.743 -31.769  1.00  0.00     0.118 C 
HETATM   21  C   UNL     1     -10.006  -0.080 -32.790  1.00  0.00     0.026 C 
ENDBRANCH  17  20
ENDBRANCH  15  16
ENDBRANCH  13  15
ENDBRANCH   1  13
TORSDOF 4
ENDMDL
MODEL 3
REMARK VINA RESULT:      -6.6      1.864      2.430
REMARK  4 active torsions:
REMARK  status: ('A' for Active; 'I' for Inactive)
REMARK    1  A    between atoms: C_2  and  N_3 
REMARK       I    between atoms: N_3  and  C_4 
REMARK    2  A    between atoms: C_4  and  C_5 
REMARK    3  A    between atoms: C_5  and  N_6 
REMARK    4  A    between atoms: N_6  and  C_7 
ROOT
HETATM    1  C   UNL     1      -9.404   1.118 -32.324  1.00  0.00     0.022 A 
HETATM    2  C   UNL     1      -8.165   0.439 -32.520  1.00  0.00     0.013 A 
HETATM    3  C   UNL     1      -7.019   0.885 -31.810  1.00  0.00     0.044 A 
HETATM    4  C   UNL     1      -5.780   0.237 -31.945  1.00  0.00     0.032 A 
HETATM    5  C   UNL     1      -5.649  -0.858 -32.797  1.00  0.00     0.021 A 
HETATM    6  C   UNL     1      -6.750  -1.302 -33.517  1.00  0.00     0.012 A 
HETATM    7 BR   UNL     1      -6.573  -2.778 -34.682  1.00  0.00    -0.051 Br
HETATM    8  C   UNL     1      -7.990  -0.666 -33.388  1.00  0.00     0.034 A 
HETATM    9  N   UNL     1      -7.121   1.954 -31.000  1.00  0.00    -0.365 N 
HETATM   10  H   UNL     1      -6.289   2.267 -30.500  1.00  0.00     0.165 HD
HETATM   11  C   UNL     1      -8.255   2.642 -30.839  1.00  0.00     0.090 A 
HETATM   12  C   UNL     1      -9.408   2.250 -31.500  1.00  0.00     0.041 A 
ENDROOT
BRANCH   1  13
HETATM   13  N   UNL     1     -10.542   0.743 -33.056  1.00  0.00    -0.283 NA
HETATM   14  H   UNL     1     -11.367   0.627 -32.464  1.00  0.00     0.128 HD
BRANCH  13  15
HETATM   15  C   UNL     1     -10.928   1.491 -34.277  1.00  0.00     0.195 C 
BRANCH  15  16
HETATM   16  C   UNL     1     -12.450   1.497 -34.454  1.00  0.00     0.230 C 
HETATM   17  N   UNL     1     -13.143   1.163 -33.309  1.00  0.00    -0.360 N 
HETATM   18  H   UNL     1     -12.610   1.023 -32.457  1.00  0.00     0.162 HD
HETATM   19  O   UNL     1     -12.981   1.738 -35.533  1.00  0.00    -0.272 OA
BRANCH  17  20
HETATM   20  C   UNL     1     -14.588   1.092 -33.267  1.00  0.00     0.118 C 
HETATM   21  C   UNL     1     -15.170   2.114 -32.308  1.00  0.00     0.026 C 
ENDBRANCH  17  20
ENDBRANCH  15  16
ENDBRANCH  13  15
ENDBRANCH   1  13
TORSDOF 4
ENDMDL
MODEL 4
REMARK VINA RESULT:      -6.4      2.621      5.329
REMARK  4 active torsions:
REMARK  status: ('A' for Active; 'I' for Inactive)
REMARK    1  A    between atoms: C_2  and  N_3 
REMARK       I    between atoms: N_3  and  C_4 
REMARK    2  A    between atoms: C_4  and  C_5 
REMARK    3  A    between atoms: C_5  and  N_6 
REMARK    4  A    between atoms: N_6  and  C_7 
ROOT
HETATM    1  C   UNL     1      -8.579   1.601 -32.053  1.00  0.00     0.022 A 
HETATM    2  C   UNL     1      -7.890   0.776 -32.991  1.00  0.00     0.013 A 
HETATM    3  C   UNL     1      -8.408   0.657 -34.309  1.00  0.00     0.044 A 
HETATM    4  C   UNL     1      -7.757  -0.121 -35.280  1.00  0.00     0.032 A 
HETATM    5  C   UNL     1      -6.586  -0.807 -34.962  1.00  0.00     0.021 A 
HETATM    6  C   UNL     1      -6.070  -0.721 -33.676  1.00  0.00     0.012 A 
HETATM    7 BR   UNL     1      -4.490  -1.660 -33.238  1.00  0.00    -0.051 Br
HETATM    8  C   UNL     1      -6.708   0.052 -32.700  1.00  0.00     0.034 A 
HETATM    9  N   UNL     1      -9.548   1.293 -34.627  1.00  0.00    -0.365 N 
HETATM   10  H   UNL     1      -9.912   1.196 -35.575  1.00  0.00     0.165 HD
HETATM   11  C   UNL     1     -10.243   2.029 -33.754  1.00  0.00     0.090 A 
HETATM   12  C   UNL     1      -9.784   2.188 -32.456  1.00  0.00     0.041 A 
ENDROOT
BRANCH   1  13
HETATM   13  N   UNL     1      -8.129   1.691 -30.725  1.00  0.00    -0.283 NA
HETATM   14  H   UNL     1      -7.465   0.952 -30.487  1.00  0.00     0.128 HD
BRANCH  13  15
HETATM   15  C   UNL     1      -7.625   2.979 -30.191  1.00  0.00     0.195 C 
BRANCH  15  16
HETATM   16  C   UNL     1      -6.354   3.416 -30.930  1.00  0.00     0.230 C 
HETATM   17  N   UNL     1      -5.232   2.698 -30.572  1.00  0.00    -0.360 N 
HETATM   18  H   UNL     1      -5.351   1.919 -29.933  1.00  0.00     0.162 HD
HETATM   19  O   UNL     1      -6.351   4.347 -31.727  1.00  0.00    -0.272 OA
BRANCH  17  20
HETATM   20  C   UNL     1      -3.927   2.964 -31.138  1.00  0.00     0.118 C 
HETATM   21  C   UNL     1      -3.593   1.993 -32.255  1.00  0.00     0.026 C 
ENDBRANCH  17  20
ENDBRANCH  15  16
ENDBRANCH  13  15
ENDBRANCH   1  13
TORSDOF 4
ENDMDL
MODEL 5
REMARK VINA RESULT:      -6.3     13.888     14.716
REMARK  4 active torsions:
REMARK  status: ('A' for Active; 'I' for Inactive)
REMARK    1  A    between atoms: C_2  and  N_3 
REMARK       I    between atoms: N_3  and  C_4 
REMARK    2  A    between atoms: C_4  and  C_5 
REMARK    3  A    between atoms: C_5  and  N_6 
REMARK    4  A    between atoms: N_6  and  C_7 
ROOT
HETATM    1  C   UNL     1      -5.271 -13.020 -37.101  1.00  0.00     0.022 A 
HETATM    2  C   UNL     1      -6.074 -12.793 -38.258  1.00  0.00     0.013 A 
HETATM    3  C   UNL     1      -5.441 -12.387 -39.463  1.00  0.00     0.044 A 
HETATM    4  C   UNL     1      -6.179 -12.175 -40.639  1.00  0.00     0.032 A 
HETATM    5  C   UNL     1      -7.562 -12.350 -40.642  1.00  0.00     0.021 A 
HETATM    6  C   UNL     1      -8.207 -12.729 -39.472  1.00  0.00     0.012 A 
HETATM    7 BR   UNL     1     -10.083 -12.954 -39.469  1.00  0.00    -0.051 Br
HETATM    8  C   UNL     1      -7.482 -12.945 -38.295  1.00  0.00     0.034 A 
HETATM    9  N   UNL     1      -4.111 -12.192 -39.474  1.00  0.00    -0.365 N 
HETATM   10  H   UNL     1      -3.669 -11.895 -40.344  1.00  0.00     0.165 HD
HETATM   11  C   UNL     1      -3.341 -12.344 -38.392  1.00  0.00     0.090 A 
HETATM   12  C   UNL     1      -3.901 -12.746 -37.190  1.00  0.00     0.041 A 
ENDROOT
BRANCH   1  13
HETATM   13  N   UNL     1      -5.871 -13.362 -35.879  1.00  0.00    -0.283 NA
HETATM   14  H   UNL     1      -6.283 -14.298 -35.894  1.00  0.00     0.128 HD
BRANCH  13  15
HETATM   15  C   UNL     1      -5.132 -13.184 -34.606  1.00  0.00     0.195 C 
BRANCH  15  16
HETATM   16  C   UNL     1      -5.792 -13.983 -33.476  1.00  0.00     0.230 C 
HETATM   17  N   UNL     1      -4.911 -14.382 -32.492  1.00  0.00    -0.360 N 
HETATM   18  H   UNL     1      -3.952 -14.058 -32.556  1.00  0.00     0.162 HD
HETATM   19  O   UNL     1      -6.984 -14.268 -33.488  1.00  0.00    -0.272 OA
BRANCH  17  20
HETATM   20  C   UNL     1      -5.327 -15.162 -31.346  1.00  0.00     0.118 C 
HETATM   21  C   UNL     1      -5.118 -16.647 -31.576  1.00  0.00     0.026 C 
ENDBRANCH  17  20
ENDBRANCH  15  16
ENDBRANCH  13  15
ENDBRANCH   1  13
TORSDOF 4
ENDMDL
MODEL 6
REMARK VINA RESULT:      -6.3      1.902      2.217
REMARK  4 active torsions:
REMARK  status: ('A' for Active; 'I' for Inactive)
REMARK    1  A    between atoms: C_2  and  N_3 
REMARK       I    between atoms: N_3  and  C_4 
REMARK    2  A    between atoms: C_4  and  C_5 
REMARK    3  A    between atoms: C_5  and  N_6 
REMARK    4  A    between atoms: N_6  and  C_7 
ROOT
HETATM    1  C   UNL     1      -7.084   1.275 -31.066  1.00  0.00     0.022 A 
HETATM    2  C   UNL     1      -6.154   0.545 -31.864  1.00  0.00     0.013 A 
HETATM    3  C   UNL     1      -4.773   0.870 -31.779  1.00  0.00     0.044 A 
HETATM    4  C   UNL     1      -3.812   0.166 -32.522  1.00  0.00     0.032 A 
HETATM    5  C   UNL     1      -4.200  -0.866 -33.375  1.00  0.00     0.021 A 
HETATM    6  C   UNL     1      -5.545  -1.191 -33.489  1.00  0.00     0.012 A 
HETATM    7 BR   UNL     1      -6.075  -2.581 -34.654  1.00  0.00    -0.051 Br
HETATM    8  C   UNL     1      -6.511  -0.499 -32.752  1.00  0.00     0.034 A 
HETATM    9  N   UNL     1      -4.383   1.877 -30.979  1.00  0.00    -0.365 N 
HETATM   10  H   UNL     1      -3.390   2.104 -30.931  1.00  0.00     0.165 HD
HETATM   11  C   UNL     1      -5.237   2.613 -30.262  1.00  0.00     0.090 A 
HETATM   12  C   UNL     1      -6.595   2.339 -30.298  1.00  0.00     0.041 A 
ENDROOT
BRANCH   1  13
HETATM   13  N   UNL     1      -8.461   1.021 -31.172  1.00  0.00    -0.283 NA
HETATM   14  H   UNL     1      -8.889   0.807 -30.268  1.00  0.00     0.128 HD
BRANCH  13  15
HETATM   15  C   UNL     1      -9.341   1.959 -31.909  1.00  0.00     0.195 C 
BRANCH  15  16
HETATM   16  C   UNL     1     -10.135   1.223 -32.994  1.00  0.00     0.230 C 
HETATM   17  N   UNL     1     -11.488   1.486 -32.966  1.00  0.00    -0.360 N 
HETATM   18  H   UNL     1     -11.822   2.179 -32.304  1.00  0.00     0.162 HD
HETATM   19  O   UNL     1      -9.602   0.443 -33.777  1.00  0.00    -0.272 OA
BRANCH  17  20
HETATM   20  C   UNL     1     -12.418   0.878 -33.893  1.00  0.00     0.118 C 
HETATM   21  C   UNL     1     -12.545   1.688 -35.170  1.00  0.00     0.026 C 
ENDBRANCH  17  20
ENDBRANCH  15  16
ENDBRANCH  13  15
ENDBRANCH   1  13
TORSDOF 4
ENDMDL
MODEL 7
REMARK VINA RESULT:      -6.3      6.274      8.915
REMARK  4 active torsions:
REMARK  status: ('A' for Active; 'I' for Inactive)
REMARK    1  A    between atoms: C_2  and  N_3 
REMARK       I    between atoms: N_3  and  C_4 
REMARK    2  A    between atoms: C_4  and  C_5 
REMARK    3  A    between atoms: C_5  and  N_6 
REMARK    4  A    between atoms: N_6  and  C_7 
ROOT
HETATM    1  C   UNL     1      -2.316   4.037 -32.066  1.00  0.00     0.022 A 
HETATM    2  C   UNL     1      -1.409   5.048 -31.629  1.00  0.00     0.013 A 
HETATM    3  C   UNL     1      -0.976   6.029 -32.561  1.00  0.00     0.044 A 
HETATM    4  C   UNL     1      -0.104   7.062 -32.180  1.00  0.00     0.032 A 
HETATM    5  C   UNL     1       0.366   7.137 -30.869  1.00  0.00     0.021 A 
HETATM    6  C   UNL     1      -0.028   6.179 -29.945  1.00  0.00     0.012 A 
HETATM    7 BR   UNL     1       0.618   6.269 -28.171  1.00  0.00    -0.051 Br
HETATM    8  C   UNL     1      -0.898   5.146 -30.313  1.00  0.00     0.034 A 
HETATM    9  N   UNL     1      -1.402   5.960 -33.835  1.00  0.00    -0.365 N 
HETATM   10  H   UNL     1      -1.080   6.668 -34.495  1.00  0.00     0.165 HD
HETATM   11  C   UNL     1      -2.208   4.994 -34.284  1.00  0.00     0.090 A 
HETATM   12  C   UNL     1      -2.669   4.013 -33.421  1.00  0.00     0.041 A 
ENDROOT
BRANCH   1  13
HETATM   13  N   UNL     1      -2.715   3.016 -31.188  1.00  0.00    -0.283 NA
HETATM   14  H   UNL     1      -2.818   3.347 -30.226  1.00  0.00     0.128 HD
BRANCH  13  15
HETATM   15  C   UNL     1      -3.870   2.149 -31.523  1.00  0.00     0.195 C 
BRANCH  15  16
HETATM   16  C   UNL     1      -3.427   0.692 -31.693  1.00  0.00     0.230 C 
HETATM   17  N   UNL     1      -4.138   0.005 -32.656  1.00  0.00    -0.360 N 
HETATM   18  H   UNL     1      -4.815   0.525 -33.204  1.00  0.00     0.162 HD
HETATM   19  O   UNL     1      -2.551   0.191 -30.997  1.00  0.00    -0.272 OA
BRANCH  17  20
HETATM   20  C   UNL     1      -3.889  -1.387 -32.960  1.00  0.00     0.118 C 
HETATM   21  C   UNL     1      -4.914  -1.939 -33.933  1.00  0.00     0.026 C 
ENDBRANCH  17  20
ENDBRANCH  15  16
ENDBRANCH  13  15
ENDBRANCH   1  13
TORSDOF 4
ENDMDL
MODEL 8
REMARK VINA RESULT:      -6.2      2.703      3.579
REMARK  4 active torsions:
REMARK  status: ('A' for Active; 'I' for Inactive)
REMARK    1  A    between atoms: C_2  and  N_3 
REMARK       I    between atoms: N_3  and  C_4 
REMARK    2  A    between atoms: C_4  and  C_5 
REMARK    3  A    between atoms: C_5  and  N_6 
REMARK    4  A    between atoms: N_6  and  C_7 
ROOT
HETATM    1  C   UNL     1      -6.780  -1.124 -33.900  1.00  0.00     0.022 A 
HETATM    2  C   UNL     1      -5.650  -0.536 -33.257  1.00  0.00     0.013 A 
HETATM    3  C   UNL     1      -4.384  -1.168 -33.383  1.00  0.00     0.044 A 
HETATM    4  C   UNL     1      -3.233  -0.620 -32.793  1.00  0.00     0.032 A 
HETATM    5  C   UNL     1      -3.316   0.560 -32.055  1.00  0.00     0.021 A 
HETATM    6  C   UNL     1      -4.546   1.187 -31.902  1.00  0.00     0.012 A 
HETATM    7 BR   UNL     1      -4.664   2.779 -30.891  1.00  0.00    -0.051 Br
HETATM    8  C   UNL     1      -5.698   0.651 -32.487  1.00  0.00     0.034 A 
HETATM    9  N   UNL     1      -4.288  -2.319 -34.072  1.00  0.00    -0.365 N 
HETATM   10  H   UNL     1      -3.375  -2.765 -34.151  1.00  0.00     0.165 HD
HETATM   11  C   UNL     1      -5.339  -2.920 -34.639  1.00  0.00     0.090 A 
HETATM   12  C   UNL     1      -6.598  -2.347 -34.555  1.00  0.00     0.041 A 
ENDROOT
BRANCH   1  13
HETATM   13  N   UNL     1      -8.056  -0.559 -33.744  1.00  0.00    -0.283 NA
HETATM   14  H   UNL     1      -8.250  -0.292 -32.777  1.00  0.00     0.128 HD
BRANCH  13  15
HETATM   15  C   UNL     1      -8.507   0.531 -34.642  1.00  0.00     0.195 C 
BRANCH  15  16
HETATM   16  C   UNL     1      -9.838   1.120 -34.159  1.00  0.00     0.230 C 
HETATM   17  N   UNL     1     -10.223   2.254 -34.843  1.00  0.00    -0.360 N 
HETATM   18  H   UNL     1      -9.655   2.547 -35.631  1.00  0.00     0.162 HD
HETATM   19  O   UNL     1     -10.462   0.637 -33.221  1.00  0.00    -0.272 OA
BRANCH  17  20
HETATM   20  C   UNL     1     -11.438   2.974 -34.531  1.00  0.00     0.118 C 
HETATM   21  C   UNL     1     -12.441   2.897 -35.667  1.00  0.00     0.026 C 
ENDBRANCH  17  20
ENDBRANCH  15  16
ENDBRANCH  13  15
ENDBRANCH   1  13
TORSDOF 4
ENDMDL
MODEL 9
REMARK VINA RESULT:      -6.2     13.899     14.883
REMARK  4 active torsions:
REMARK  status: ('A' for Active; 'I' for Inactive)
REMARK    1  A    between atoms: C_2  and  N_3 
REMARK       I    between atoms: N_3  and  C_4 
REMARK    2  A    between atoms: C_4  and  C_5 
REMARK    3  A    between atoms: C_5  and  N_6 
REMARK    4  A    between atoms: N_6  and  C_7 
ROOT
HETATM    1  C   UNL     1      -3.959 -12.774 -37.677  1.00  0.00     0.022 A 
HETATM    2  C   UNL     1      -4.823 -12.833 -38.810  1.00  0.00     0.013 A 
HETATM    3  C   UNL     1      -4.274 -13.188 -40.072  1.00  0.00     0.044 A 
HETATM    4  C   UNL     1      -5.083 -13.286 -41.216  1.00  0.00     0.032 A 
HETATM    5  C   UNL     1      -6.450 -13.024 -41.136  1.00  0.00     0.021 A 
HETATM    6  C   UNL     1      -7.006 -12.657 -39.917  1.00  0.00     0.012 A 
HETATM    7 BR   UNL     1      -8.856 -12.287 -39.808  1.00  0.00    -0.051 Br
HETATM    8  C   UNL     1      -6.211 -12.558 -38.771  1.00  0.00     0.034 A 
HETATM    9  N   UNL     1      -2.955 -13.423 -40.174  1.00  0.00    -0.365 N 
HETATM   10  H   UNL     1      -2.573 -13.671 -41.086  1.00  0.00     0.165 HD
HETATM   11  C   UNL     1      -2.114 -13.323 -39.140  1.00  0.00     0.090 A 
HETATM   12  C   UNL     1      -2.591 -12.987 -37.883  1.00  0.00     0.041 A 
ENDROOT
BRANCH   1  13
HETATM   13  N   UNL     1      -4.456 -12.367 -36.428  1.00  0.00    -0.283 NA
HETATM   14  H   UNL     1      -5.301 -11.798 -36.510  1.00  0.00     0.128 HD
BRANCH  13  15
HETATM   15  C   UNL     1      -4.648 -13.356 -35.340  1.00  0.00     0.195 C 
BRANCH  15  16
HETATM   16  C   UNL     1      -6.050 -13.973 -35.404  1.00  0.00     0.230 C 
HETATM   17  N   UNL     1      -6.098 -15.172 -36.084  1.00  0.00    -0.360 N 
HETATM   18  H   UNL     1      -5.221 -15.569 -36.404  1.00  0.00     0.162 HD
HETATM   19  O   UNL     1      -7.031 -13.413 -34.927  1.00  0.00    -0.272 OA
BRANCH  17  20
HETATM   20  C   UNL     1      -7.328 -15.909 -36.275  1.00  0.00     0.118 C 
HETATM   21  C   UNL     1      -7.964 -15.597 -37.617  1.00  0.00     0.026 C 
ENDBRANCH  17  20
ENDBRANCH  15  16
ENDBRANCH  13  15
ENDBRANCH   1  13
TORSDOF 4
ENDMDL
MODEL 10
REMARK VINA RESULT:      -6.2      3.563      5.749
REMARK  4 active torsions:
REMARK  status: ('A' for Active; 'I' for Inactive)
REMARK    1  A    between atoms: C_2  and  N_3 
REMARK       I    between atoms: N_3  and  C_4 
REMARK    2  A    between atoms: C_4  and  C_5 
REMARK    3  A    between atoms: C_5  and  N_6 
REMARK    4  A    between atoms: N_6  and  C_7 
ROOT
HETATM    1  C   UNL     1      -6.121  -0.250 -31.516  1.00  0.00     0.022 A 
HETATM    2  C   UNL     1      -6.840  -0.053 -32.733  1.00  0.00     0.013 A 
HETATM    3  C   UNL     1      -6.249  -0.476 -33.953  1.00  0.00     0.044 A 
HETATM    4  C   UNL     1      -6.922  -0.331 -35.178  1.00  0.00     0.032 A 
HETATM    5  C   UNL     1      -8.190   0.247 -35.219  1.00  0.00     0.021 A 
HETATM    6  C   UNL     1      -8.781   0.685 -34.041  1.00  0.00     0.012 A 
HETATM    7 BR   UNL     1     -10.494   1.481 -34.095  1.00  0.00    -0.051 Br
HETATM    8  C   UNL     1      -8.121   0.544 -32.816  1.00  0.00     0.034 A 
HETATM    9  N   UNL     1      -5.017  -1.016 -33.937  1.00  0.00    -0.365 N 
HETATM   10  H   UNL     1      -4.602  -1.310 -34.820  1.00  0.00     0.165 HD
HETATM   11  C   UNL     1      -4.300  -1.162 -32.819  1.00  0.00     0.090 A 
HETATM   12  C   UNL     1      -4.826  -0.775 -31.596  1.00  0.00     0.041 A 
ENDROOT
BRANCH   1  13
HETATM   13  N   UNL     1      -6.649   0.212 -30.299  1.00  0.00    -0.283 NA
HETATM   14  H   UNL     1      -6.906  -0.551 -29.670  1.00  0.00     0.128 HD
BRANCH  13  15
HETATM   15  C   UNL     1      -5.939   1.256 -29.522  1.00  0.00     0.195 C 
BRANCH  15  16
HETATM   16  C   UNL     1      -5.776   2.536 -30.349  1.00  0.00     0.230 C 
HETATM   17  N   UNL     1      -4.461   2.875 -30.593  1.00  0.00    -0.360 N 
HETATM   18  H   UNL     1      -3.741   2.231 -30.284  1.00  0.00     0.162 HD
HETATM   19  O   UNL     1      -6.738   3.204 -30.713  1.00  0.00    -0.272 OA
BRANCH  17  20
HETATM   20  C   UNL     1      -4.090   4.058 -31.340  1.00  0.00     0.118 C 
HETATM   21  C   UNL     1      -2.711   3.918 -31.958  1.00  0.00     0.026 C 
ENDBRANCH  17  20
ENDBRANCH  15  16
ENDBRANCH  13  15
ENDBRANCH   1  13
TORSDOF 4
ENDMDL
