MODEL 1
REMARK VINA RESULT:      -9.5      0.000      0.000
REMARK  5 active torsions:
REMARK  status: ('A' for Active; 'I' for Inactive)
REMARK    1  A    between atoms: C_4  and  C_5 
REMARK    2  A    between atoms: C_5  and  O_6 
REMARK    3  A    between atoms: O_6  and  C_7 
REMARK    4  A    between atoms: C_10  and  N_11 
REMARK       I    between atoms: N_11  and  C_12 
REMARK    5  A    between atoms: C_12  and  C_13 
ROOT
HETATM    1  N   UNL     1      -3.006   3.631 -31.202  1.00  0.00    -0.322 N 
HETATM    2  C   UNL     1      -2.070   4.416 -31.839  1.00  0.00     0.277 C 
HETATM    3  O   UNL     1      -1.835   4.509 -33.032  1.00  0.00    -0.266 OA
HETATM    4  H   UNL     1      -3.131   3.835 -30.214  1.00  0.00     0.169 HD
ENDROOT
BRANCH   1   5
HETATM    5  C   UNL     1      -3.798   2.615 -31.762  1.00  0.00     0.035 A 
HETATM    6  C   UNL     1      -3.493   1.257 -31.668  1.00  0.00     0.032 A 
HETATM    7  C   UNL     1      -4.378   0.300 -32.176  1.00  0.00     0.039 A 
HETATM    8  C   UNL     1      -5.578   0.686 -32.774  1.00  0.00     0.069 A 
HETATM    9  C   UNL     1      -5.862   2.042 -32.921  1.00  0.00     0.039 A 
HETATM   10  C   UNL     1      -4.979   3.000 -32.408  1.00  0.00     0.032 A 
BRANCH   8  11
HETATM   11  O   UNL     1      -6.380  -0.342 -33.180  1.00  0.00    -0.347 OA
BRANCH  11  12
HETATM   12  C   UNL     1      -6.183  -0.807 -34.518  1.00  0.00     0.214 C 
BRANCH  12  13
HETATM   13  C   UNL     1      -5.802  -2.271 -34.501  1.00  0.00    -0.034 A 
HETATM   14  C   UNL     1      -6.749  -3.245 -34.856  1.00  0.00     0.009 A 
HETATM   15  C   UNL     1      -6.411  -4.599 -34.857  1.00  0.00     0.001 A 
HETATM   16  C   UNL     1      -5.120  -4.996 -34.512  1.00  0.00     0.000 A 
HETATM   17  C   UNL     1      -4.166  -4.038 -34.175  1.00  0.00     0.001 A 
HETATM   18  C   UNL     1      -4.502  -2.684 -34.176  1.00  0.00     0.009 A 
ENDBRANCH  12  13
ENDBRANCH  11  12
ENDBRANCH   8  11
ENDBRANCH   1   5
BRANCH   2  19
HETATM   19  C   UNL     1      -1.264   5.248 -30.842  1.00  0.00     0.156 A 
HETATM   20  N   UNL     1      -0.201   4.671 -30.350  1.00  0.00    -0.166 NA
HETATM   21  N   UNL     1       0.561   5.381 -29.472  1.00  0.00    -0.242 N 
HETATM   22  C   UNL     1       0.323   6.666 -29.048  1.00  0.00     0.272 A 
HETATM   23  H   UNL     1       1.368   4.907 -29.077  1.00  0.00     0.192 HD
HETATM   24  O   UNL     1       1.054   7.237 -28.247  1.00  0.00    -0.266 OA
HETATM   25  C   UNL     1      -0.858   7.332 -29.623  1.00  0.00     0.046 A 
HETATM   26  C   UNL     1      -1.661   6.637 -30.526  1.00  0.00     0.016 A 
HETATM   27  C   UNL     1      -1.155   8.656 -29.275  1.00  0.00     0.018 A 
HETATM   28  C   UNL     1      -2.763   7.282 -31.099  1.00  0.00     0.015 A 
HETATM   29  C   UNL     1      -3.062   8.604 -30.752  1.00  0.00     0.001 A 
HETATM   30  C   UNL     1      -2.260   9.289 -29.840  1.00  0.00     0.001 A 
ENDBRANCH   2  19
TORSDOF 5
ENDMDL
MODEL 2
REMARK VINA RESULT:      -9.0      1.793      2.378
REMARK  5 active torsions:
REMARK  status: ('A' for Active; 'I' for Inactive)
REMARK    1  A    between atoms: C_4  and  C_5 
REMARK    2  A    between atoms: C_5  and  O_6 
REMARK    3  A    between atoms: O_6  and  C_7 
REMARK    4  A    between atoms: C_10  and  N_11 
REMARK       I    between atoms: N_11  and  C_12 
REMARK    5  A    between atoms: C_12  and  C_13 
ROOT
HETATM    1  N   UNL     1      -4.489   3.993 -30.476  1.00  0.00    -0.322 N 
HETATM    2  C   UNL     1      -4.379   5.220 -31.093  1.00  0.00     0.277 C 
HETATM    3  O   UNL     1      -4.877   5.595 -32.141  1.00  0.00    -0.266 OA
HETATM    4  H   UNL     1      -4.119   3.958 -29.530  1.00  0.00     0.169 HD
ENDROOT
BRANCH   1   5
HETATM    5  C   UNL     1      -5.057   2.818 -30.997  1.00  0.00     0.035 A 
HETATM    6  C   UNL     1      -6.406   2.490 -30.870  1.00  0.00     0.032 A 
HETATM    7  C   UNL     1      -6.914   1.345 -31.494  1.00  0.00     0.039 A 
HETATM    8  C   UNL     1      -6.084   0.522 -32.255  1.00  0.00     0.069 A 
HETATM    9  C   UNL     1      -4.725   0.814 -32.339  1.00  0.00     0.039 A 
HETATM   10  C   UNL     1      -4.217   1.962 -31.720  1.00  0.00     0.032 A 
BRANCH   8  11
HETATM   11  O   UNL     1      -6.709  -0.534 -32.857  1.00  0.00    -0.347 OA
BRANCH  11  12
HETATM   12  C   UNL     1      -6.315  -0.816 -34.202  1.00  0.00     0.214 C 
BRANCH  12  13
HETATM   13  C   UNL     1      -5.863  -2.256 -34.312  1.00  0.00    -0.034 A 
HETATM   14  C   UNL     1      -6.762  -3.241 -34.750  1.00  0.00     0.009 A 
HETATM   15  C   UNL     1      -6.357  -4.572 -34.867  1.00  0.00     0.001 A 
HETATM   16  C   UNL     1      -5.047  -4.932 -34.560  1.00  0.00     0.000 A 
HETATM   17  C   UNL     1      -4.139  -3.961 -34.142  1.00  0.00     0.001 A 
HETATM   18  C   UNL     1      -4.542  -2.630 -34.025  1.00  0.00     0.009 A 
ENDBRANCH  12  13
ENDBRANCH  11  12
ENDBRANCH   8  11
ENDBRANCH   1   5
BRANCH   2  19
HETATM   19  C   UNL     1      -3.502   6.177 -30.287  1.00  0.00     0.156 A 
HETATM   20  N   UNL     1      -4.110   6.849 -29.347  1.00  0.00    -0.166 NA
HETATM   21  N   UNL     1      -3.366   7.700 -28.588  1.00  0.00    -0.242 N 
HETATM   22  C   UNL     1      -2.016   7.924 -28.710  1.00  0.00     0.272 A 
HETATM   23  H   UNL     1      -3.860   8.236 -27.880  1.00  0.00     0.192 HD
HETATM   24  O   UNL     1      -1.416   8.715 -27.991  1.00  0.00    -0.266 OA
HETATM   25  C   UNL     1      -1.319   7.146 -29.749  1.00  0.00     0.046 A 
HETATM   26  C   UNL     1      -2.048   6.264 -30.544  1.00  0.00     0.016 A 
HETATM   27  C   UNL     1       0.064   7.284 -29.918  1.00  0.00     0.018 A 
HETATM   28  C   UNL     1      -1.380   5.499 -31.508  1.00  0.00     0.015 A 
HETATM   29  C   UNL     1       0.001   5.636 -31.679  1.00  0.00     0.001 A 
HETATM   30  C   UNL     1       0.723   6.527 -30.886  1.00  0.00     0.001 A 
ENDBRANCH   2  19
TORSDOF 5
ENDMDL
MODEL 3
REMARK VINA RESULT:      -8.9      2.378      9.677
REMARK  5 active torsions:
REMARK  status: ('A' for Active; 'I' for Inactive)
REMARK    1  A    between atoms: C_4  and  C_5 
REMARK    2  A    between atoms: C_5  and  O_6 
REMARK    3  A    between atoms: O_6  and  C_7 
REMARK    4  A    between atoms: C_10  and  N_11 
REMARK       I    between atoms: N_11  and  C_12 
REMARK    5  A    between atoms: C_12  and  C_13 
ROOT
HETATM    1  N   UNL     1      -3.476   2.005 -32.586  1.00  0.00    -0.322 N 
HETATM    2  C   UNL     1      -4.455   1.179 -32.077  1.00  0.00     0.277 C 
HETATM    3  O   UNL     1      -5.496   1.483 -31.520  1.00  0.00    -0.266 OA
HETATM    4  H   UNL     1      -2.773   1.533 -33.149  1.00  0.00     0.169 HD
ENDROOT
BRANCH   1   5
HETATM    5  C   UNL     1      -3.357   3.396 -32.426  1.00  0.00     0.035 A 
HETATM    6  C   UNL     1      -2.814   4.240 -33.392  1.00  0.00     0.032 A 
HETATM    7  C   UNL     1      -2.811   5.626 -33.196  1.00  0.00     0.039 A 
HETATM    8  C   UNL     1      -3.357   6.181 -32.038  1.00  0.00     0.069 A 
HETATM    9  C   UNL     1      -3.851   5.339 -31.045  1.00  0.00     0.039 A 
HETATM   10  C   UNL     1      -3.858   3.953 -31.243  1.00  0.00     0.032 A 
BRANCH   8  11
HETATM   11  O   UNL     1      -3.345   7.546 -31.989  1.00  0.00    -0.347 OA
BRANCH  11  12
HETATM   12  C   UNL     1      -2.069   8.172 -32.148  1.00  0.00     0.214 C 
BRANCH  12  13
HETATM   13  C   UNL     1      -1.223   7.931 -30.916  1.00  0.00    -0.034 A 
HETATM   14  C   UNL     1      -1.579   8.526 -29.696  1.00  0.00     0.009 A 
HETATM   15  C   UNL     1      -0.815   8.306 -28.548  1.00  0.00     0.001 A 
HETATM   16  C   UNL     1       0.307   7.480 -28.604  1.00  0.00     0.000 A 
HETATM   17  C   UNL     1       0.660   6.869 -29.806  1.00  0.00     0.001 A 
HETATM   18  C   UNL     1      -0.103   7.088 -30.954  1.00  0.00     0.009 A 
ENDBRANCH  12  13
ENDBRANCH  11  12
ENDBRANCH   8  11
ENDBRANCH   1   5
BRANCH   2  19
HETATM   19  C   UNL     1      -4.109  -0.295 -32.284  1.00  0.00     0.156 A 
HETATM   20  N   UNL     1      -3.173  -0.772 -31.508  1.00  0.00    -0.166 NA
HETATM   21  N   UNL     1      -2.844  -2.087 -31.641  1.00  0.00    -0.242 N 
HETATM   22  C   UNL     1      -3.410  -2.978 -32.521  1.00  0.00     0.272 A 
HETATM   23  H   UNL     1      -2.094  -2.435 -31.050  1.00  0.00     0.192 HD
HETATM   24  O   UNL     1      -3.053  -4.149 -32.586  1.00  0.00    -0.266 OA
HETATM   25  C   UNL     1      -4.487  -2.452 -33.377  1.00  0.00     0.046 A 
HETATM   26  C   UNL     1      -4.852  -1.112 -33.268  1.00  0.00     0.016 A 
HETATM   27  C   UNL     1      -5.145  -3.301 -34.277  1.00  0.00     0.018 A 
HETATM   28  C   UNL     1      -5.899  -0.621 -34.056  1.00  0.00     0.015 A 
HETATM   29  C   UNL     1      -6.557  -1.467 -34.956  1.00  0.00     0.001 A 
HETATM   30  C   UNL     1      -6.180  -2.804 -35.067  1.00  0.00     0.001 A 
ENDBRANCH   2  19
TORSDOF 5
ENDMDL
MODEL 4
REMARK VINA RESULT:      -8.8      2.716     10.061
REMARK  5 active torsions:
REMARK  status: ('A' for Active; 'I' for Inactive)
REMARK    1  A    between atoms: C_4  and  C_5 
REMARK    2  A    between atoms: C_5  and  O_6 
REMARK    3  A    between atoms: O_6  and  C_7 
REMARK    4  A    between atoms: C_10  and  N_11 
REMARK       I    between atoms: N_11  and  C_12 
REMARK    5  A    between atoms: C_12  and  C_13 
ROOT
HETATM    1  N   UNL     1      -5.337   3.430 -31.396  1.00  0.00    -0.322 N 
HETATM    2  C   UNL     1      -5.736   2.359 -30.626  1.00  0.00     0.277 C 
HETATM    3  O   UNL     1      -5.273   1.965 -29.569  1.00  0.00    -0.266 OA
HETATM    4  H   UNL     1      -5.970   3.666 -32.156  1.00  0.00     0.169 HD
ENDROOT
BRANCH   1   5
HETATM    5  C   UNL     1      -4.187   4.221 -31.238  1.00  0.00     0.035 A 
HETATM    6  C   UNL     1      -2.930   3.862 -31.723  1.00  0.00     0.032 A 
HETATM    7  C   UNL     1      -1.850   4.743 -31.603  1.00  0.00     0.039 A 
HETATM    8  C   UNL     1      -2.015   5.993 -31.006  1.00  0.00     0.069 A 
HETATM    9  C   UNL     1      -3.255   6.335 -30.469  1.00  0.00     0.039 A 
HETATM   10  C   UNL     1      -4.337   5.455 -30.594  1.00  0.00     0.032 A 
BRANCH   8  11
HETATM   11  O   UNL     1      -0.901   6.784 -30.998  1.00  0.00    -0.347 OA
BRANCH  11  12
HETATM   12  C   UNL     1       0.269   6.219 -30.400  1.00  0.00     0.214 C 
BRANCH  12  13
HETATM   13  C   UNL     1       0.440   6.759 -28.998  1.00  0.00    -0.034 A 
HETATM   14  C   UNL     1       1.061   8.002 -28.797  1.00  0.00     0.009 A 
HETATM   15  C   UNL     1       1.217   8.519 -27.509  1.00  0.00     0.001 A 
HETATM   16  C   UNL     1       0.745   7.806 -26.409  1.00  0.00     0.000 A 
HETATM   17  C   UNL     1       0.111   6.580 -26.596  1.00  0.00     0.001 A 
HETATM   18  C   UNL     1      -0.047   6.062 -27.883  1.00  0.00     0.009 A 
ENDBRANCH  12  13
ENDBRANCH  11  12
ENDBRANCH   8  11
ENDBRANCH   1   5
BRANCH   2  19
HETATM   19  C   UNL     1      -6.921   1.627 -31.254  1.00  0.00     0.156 A 
HETATM   20  N   UNL     1      -8.102   2.000 -30.842  1.00  0.00    -0.166 NA
HETATM   21  N   UNL     1      -9.190   1.390 -31.387  1.00  0.00    -0.242 N 
HETATM   22  C   UNL     1      -9.171   0.407 -32.347  1.00  0.00     0.272 A 
HETATM   23  H   UNL     1     -10.101   1.672 -31.035  1.00  0.00     0.192 HD
HETATM   24  O   UNL     1     -10.198  -0.101 -32.785  1.00  0.00    -0.266 OA
HETATM   25  C   UNL     1      -7.842   0.003 -32.837  1.00  0.00     0.046 A 
HETATM   26  C   UNL     1      -6.705   0.607 -32.303  1.00  0.00     0.016 A 
HETATM   27  C   UNL     1      -7.731  -0.967 -33.842  1.00  0.00     0.018 A 
HETATM   28  C   UNL     1      -5.444   0.248 -32.794  1.00  0.00     0.015 A 
HETATM   29  C   UNL     1      -5.331  -0.721 -33.797  1.00  0.00     0.001 A 
HETATM   30  C   UNL     1      -6.472  -1.328 -34.320  1.00  0.00     0.001 A 
ENDBRANCH   2  19
TORSDOF 5
ENDMDL
MODEL 5
REMARK VINA RESULT:      -8.7      6.454     10.129
REMARK  5 active torsions:
REMARK  status: ('A' for Active; 'I' for Inactive)
REMARK    1  A    between atoms: C_4  and  C_5 
REMARK    2  A    between atoms: C_5  and  O_6 
REMARK    3  A    between atoms: O_6  and  C_7 
REMARK    4  A    between atoms: C_10  and  N_11 
REMARK       I    between atoms: N_11  and  C_12 
REMARK    5  A    between atoms: C_12  and  C_13 
ROOT
HETATM    1  N   UNL     1      -7.643   0.362 -33.264  1.00  0.00    -0.322 N 
HETATM    2  C   UNL     1      -6.738  -0.034 -34.225  1.00  0.00     0.277 C 
HETATM    3  O   UNL     1      -6.746   0.196 -35.423  1.00  0.00    -0.266 OA
HETATM    4  H   UNL     1      -7.349   0.188 -32.306  1.00  0.00     0.169 HD
ENDROOT
BRANCH   1   5
HETATM    5  C   UNL     1      -8.890   0.978 -33.461  1.00  0.00     0.035 A 
HETATM    6  C   UNL     1     -10.110   0.336 -33.252  1.00  0.00     0.032 A 
HETATM    7  C   UNL     1     -11.309   1.044 -33.384  1.00  0.00     0.039 A 
HETATM    8  C   UNL     1     -11.303   2.399 -33.717  1.00  0.00     0.069 A 
HETATM    9  C   UNL     1     -10.090   3.031 -33.982  1.00  0.00     0.039 A 
HETATM   10  C   UNL     1      -8.890   2.324 -33.845  1.00  0.00     0.032 A 
BRANCH   8  11
HETATM   11  O   UNL     1     -12.534   2.991 -33.762  1.00  0.00    -0.347 OA
BRANCH  11  12
HETATM   12  C   UNL     1     -12.920   3.733 -32.602  1.00  0.00     0.214 C 
BRANCH  12  13
HETATM   13  C   UNL     1     -14.407   3.583 -32.368  1.00  0.00    -0.034 A 
HETATM   14  C   UNL     1     -15.176   4.703 -32.017  1.00  0.00     0.009 A 
HETATM   15  C   UNL     1     -16.552   4.584 -31.808  1.00  0.00     0.001 A 
HETATM   16  C   UNL     1     -17.175   3.347 -31.959  1.00  0.00     0.000 A 
HETATM   17  C   UNL     1     -16.426   2.231 -32.326  1.00  0.00     0.001 A 
HETATM   18  C   UNL     1     -15.051   2.349 -32.536  1.00  0.00     0.009 A 
ENDBRANCH  12  13
ENDBRANCH  11  12
ENDBRANCH   8  11
ENDBRANCH   1   5
BRANCH   2  19
HETATM   19  C   UNL     1      -5.607  -0.867 -33.622  1.00  0.00     0.156 A 
HETATM   20  N   UNL     1      -4.868  -0.259 -32.734  1.00  0.00    -0.166 NA
HETATM   21  N   UNL     1      -3.859  -0.966 -32.153  1.00  0.00    -0.242 N 
HETATM   22  C   UNL     1      -3.537  -2.278 -32.410  1.00  0.00     0.272 A 
HETATM   23  H   UNL     1      -3.275  -0.471 -31.485  1.00  0.00     0.192 HD
HETATM   24  O   UNL     1      -2.606  -2.845 -31.849  1.00  0.00    -0.266 OA
HETATM   25  C   UNL     1      -4.387  -2.976 -33.389  1.00  0.00     0.046 A 
HETATM   26  C   UNL     1      -5.430  -2.285 -34.002  1.00  0.00     0.016 A 
HETATM   27  C   UNL     1      -4.154  -4.326 -33.683  1.00  0.00     0.018 A 
HETATM   28  C   UNL     1      -6.260  -2.958 -34.907  1.00  0.00     0.015 A 
HETATM   29  C   UNL     1      -6.028  -4.306 -35.202  1.00  0.00     0.001 A 
HETATM   30  C   UNL     1      -4.977  -4.988 -34.593  1.00  0.00     0.001 A 
ENDBRANCH   2  19
TORSDOF 5
ENDMDL
MODEL 6
REMARK VINA RESULT:      -8.7      2.261     10.403
REMARK  5 active torsions:
REMARK  status: ('A' for Active; 'I' for Inactive)
REMARK    1  A    between atoms: C_4  and  C_5 
REMARK    2  A    between atoms: C_5  and  O_6 
REMARK    3  A    between atoms: O_6  and  C_7 
REMARK    4  A    between atoms: C_10  and  N_11 
REMARK       I    between atoms: N_11  and  C_12 
REMARK    5  A    between atoms: C_12  and  C_13 
ROOT
HETATM    1  N   UNL     1      -4.207   3.803 -32.771  1.00  0.00    -0.322 N 
HETATM    2  C   UNL     1      -4.814   2.788 -32.065  1.00  0.00     0.277 C 
HETATM    3  O   UNL     1      -4.748   2.542 -30.872  1.00  0.00    -0.266 OA
HETATM    4  H   UNL     1      -4.533   3.910 -33.728  1.00  0.00     0.169 HD
ENDROOT
BRANCH   1   5
HETATM    5  C   UNL     1      -3.220   4.695 -32.316  1.00  0.00     0.035 A 
HETATM    6  C   UNL     1      -3.459   5.696 -31.376  1.00  0.00     0.032 A 
HETATM    7  C   UNL     1      -2.405   6.487 -30.907  1.00  0.00     0.039 A 
HETATM    8  C   UNL     1      -1.103   6.282 -31.364  1.00  0.00     0.069 A 
HETATM    9  C   UNL     1      -0.868   5.320 -32.344  1.00  0.00     0.039 A 
HETATM   10  C   UNL     1      -1.922   4.525 -32.810  1.00  0.00     0.032 A 
BRANCH   8  11
HETATM   11  O   UNL     1      -0.154   7.080 -30.791  1.00  0.00    -0.347 OA
BRANCH  11  12
HETATM   12  C   UNL     1       0.287   6.698 -29.485  1.00  0.00     0.214 C 
BRANCH  12  13
HETATM   13  C   UNL     1       0.302   7.906 -28.575  1.00  0.00    -0.034 A 
HETATM   14  C   UNL     1      -0.847   8.703 -28.451  1.00  0.00     0.009 A 
HETATM   15  C   UNL     1      -0.853   9.815 -27.606  1.00  0.00     0.001 A 
HETATM   16  C   UNL     1       0.285  10.137 -26.868  1.00  0.00     0.000 A 
HETATM   17  C   UNL     1       1.425   9.343 -26.968  1.00  0.00     0.001 A 
HETATM   18  C   UNL     1       1.432   8.230 -27.811  1.00  0.00     0.009 A 
ENDBRANCH  12  13
ENDBRANCH  11  12
ENDBRANCH   8  11
ENDBRANCH   1   5
BRANCH   2  19
HETATM   19  C   UNL     1      -5.666   1.903 -32.975  1.00  0.00     0.156 A 
HETATM   20  N   UNL     1      -6.684   2.490 -33.545  1.00  0.00    -0.166 NA
HETATM   21  N   UNL     1      -7.461   1.747 -34.381  1.00  0.00    -0.242 N 
HETATM   22  C   UNL     1      -7.278   0.421 -34.693  1.00  0.00     0.272 A 
HETATM   23  H   UNL     1      -8.265   2.211 -34.794  1.00  0.00     0.192 HD
HETATM   24  O   UNL     1      -8.028  -0.182 -35.452  1.00  0.00    -0.266 OA
HETATM   25  C   UNL     1      -6.114  -0.236 -34.075  1.00  0.00     0.046 A 
HETATM   26  C   UNL     1      -5.295   0.492 -33.215  1.00  0.00     0.016 A 
HETATM   27  C   UNL     1      -5.830  -1.577 -34.367  1.00  0.00     0.018 A 
HETATM   28  C   UNL     1      -4.169  -0.123 -32.656  1.00  0.00     0.015 A 
HETATM   29  C   UNL     1      -3.884  -1.462 -32.946  1.00  0.00     0.001 A 
HETATM   30  C   UNL     1      -4.714  -2.188 -33.799  1.00  0.00     0.001 A 
ENDBRANCH   2  19
TORSDOF 5
ENDMDL
MODEL 7
REMARK VINA RESULT:      -8.6      2.376      9.987
REMARK  5 active torsions:
REMARK  status: ('A' for Active; 'I' for Inactive)
REMARK    1  A    between atoms: C_4  and  C_5 
REMARK    2  A    between atoms: C_5  and  O_6 
REMARK    3  A    between atoms: O_6  and  C_7 
REMARK    4  A    between atoms: C_10  and  N_11 
REMARK       I    between atoms: N_11  and  C_12 
REMARK    5  A    between atoms: C_12  and  C_13 
ROOT
HETATM    1  N   UNL     1      -3.947   2.691 -32.189  1.00  0.00    -0.322 N 
HETATM    2  C   UNL     1      -4.536   1.657 -31.495  1.00  0.00     0.277 C 
HETATM    3  O   UNL     1      -4.932   1.640 -30.341  1.00  0.00    -0.266 OA
HETATM    4  H   UNL     1      -3.845   2.529 -33.188  1.00  0.00     0.169 HD
ENDROOT
BRANCH   1   5
HETATM    5  C   UNL     1      -3.498   3.921 -31.680  1.00  0.00     0.035 A 
HETATM    6  C   UNL     1      -4.344   4.887 -31.136  1.00  0.00     0.032 A 
HETATM    7  C   UNL     1      -3.812   6.049 -30.568  1.00  0.00     0.039 A 
HETATM    8  C   UNL     1      -2.433   6.256 -30.531  1.00  0.00     0.069 A 
HETATM    9  C   UNL     1      -1.586   5.322 -31.123  1.00  0.00     0.039 A 
HETATM   10  C   UNL     1      -2.118   4.156 -31.687  1.00  0.00     0.032 A 
BRANCH   8  11
HETATM   11  O   UNL     1      -2.035   7.402 -29.902  1.00  0.00    -0.347 OA
BRANCH  11  12
HETATM   12  C   UNL     1      -0.647   7.729 -30.003  1.00  0.00     0.214 C 
BRANCH  12  13
HETATM   13  C   UNL     1      -0.007   7.678 -28.633  1.00  0.00    -0.034 A 
HETATM   14  C   UNL     1      -0.562   6.866 -27.631  1.00  0.00     0.009 A 
HETATM   15  C   UNL     1       0.023   6.800 -26.364  1.00  0.00     0.001 A 
HETATM   16  C   UNL     1       1.174   7.536 -26.088  1.00  0.00     0.000 A 
HETATM   17  C   UNL     1       1.744   8.331 -27.079  1.00  0.00     0.001 A 
HETATM   18  C   UNL     1       1.162   8.397 -28.346  1.00  0.00     0.009 A 
ENDBRANCH  12  13
ENDBRANCH  11  12
ENDBRANCH   8  11
ENDBRANCH   1   5
BRANCH   2  19
HETATM   19  C   UNL     1      -4.674   0.406 -32.361  1.00  0.00     0.156 A 
HETATM   20  N   UNL     1      -3.819  -0.550 -32.117  1.00  0.00    -0.166 NA
HETATM   21  N   UNL     1      -3.915  -1.694 -32.850  1.00  0.00    -0.242 N 
HETATM   22  C   UNL     1      -4.839  -1.949 -33.835  1.00  0.00     0.272 A 
HETATM   23  H   UNL     1      -3.224  -2.416 -32.668  1.00  0.00     0.192 HD
HETATM   24  O   UNL     1      -4.857  -3.005 -34.458  1.00  0.00    -0.266 OA
HETATM   25  C   UNL     1      -5.825  -0.886 -34.093  1.00  0.00     0.046 A 
HETATM   26  C   UNL     1      -5.758   0.298 -33.361  1.00  0.00     0.016 A 
HETATM   27  C   UNL     1      -6.826  -1.076 -35.054  1.00  0.00     0.018 A 
HETATM   28  C   UNL     1      -6.717   1.295 -33.582  1.00  0.00     0.015 A 
HETATM   29  C   UNL     1      -7.716   1.106 -34.542  1.00  0.00     0.001 A 
HETATM   30  C   UNL     1      -7.771  -0.076 -35.278  1.00  0.00     0.001 A 
ENDBRANCH   2  19
TORSDOF 5
ENDMDL
MODEL 8
REMARK VINA RESULT:      -8.6      5.173      8.677
REMARK  5 active torsions:
REMARK  status: ('A' for Active; 'I' for Inactive)
REMARK    1  A    between atoms: C_4  and  C_5 
REMARK    2  A    between atoms: C_5  and  O_6 
REMARK    3  A    between atoms: O_6  and  C_7 
REMARK    4  A    between atoms: C_10  and  N_11 
REMARK       I    between atoms: N_11  and  C_12 
REMARK    5  A    between atoms: C_12  and  C_13 
ROOT
HETATM    1  N   UNL     1      -6.791   1.082 -32.221  1.00  0.00    -0.322 N 
HETATM    2  C   UNL     1      -5.467   1.278 -32.548  1.00  0.00     0.277 C 
HETATM    3  O   UNL     1      -4.913   2.302 -32.913  1.00  0.00    -0.266 OA
HETATM    4  H   UNL     1      -6.994   0.185 -31.790  1.00  0.00     0.169 HD
ENDROOT
BRANCH   1   5
HETATM    5  C   UNL     1      -7.861   1.975 -32.402  1.00  0.00     0.035 A 
HETATM    6  C   UNL     1      -8.234   2.492 -33.642  1.00  0.00     0.032 A 
HETATM    7  C   UNL     1      -9.366   3.306 -33.753  1.00  0.00     0.039 A 
HETATM    8  C   UNL     1     -10.140   3.605 -32.632  1.00  0.00     0.069 A 
HETATM    9  C   UNL     1      -9.741   3.138 -31.382  1.00  0.00     0.039 A 
HETATM   10  C   UNL     1      -8.611   2.319 -31.271  1.00  0.00     0.032 A 
BRANCH   8  11
HETATM   11  O   UNL     1     -11.250   4.363 -32.880  1.00  0.00    -0.347 OA
BRANCH  11  12
HETATM   12  C   UNL     1     -11.955   4.075 -34.090  1.00  0.00     0.214 C 
BRANCH  12  13
HETATM   13  C   UNL     1     -12.908   2.921 -33.865  1.00  0.00    -0.034 A 
HETATM   14  C   UNL     1     -13.934   3.035 -32.915  1.00  0.00     0.009 A 
HETATM   15  C   UNL     1     -14.828   1.984 -32.704  1.00  0.00     0.001 A 
HETATM   16  C   UNL     1     -14.713   0.811 -33.447  1.00  0.00     0.000 A 
HETATM   17  C   UNL     1     -13.710   0.692 -34.406  1.00  0.00     0.001 A 
HETATM   18  C   UNL     1     -12.816   1.742 -34.620  1.00  0.00     0.009 A 
ENDBRANCH  12  13
ENDBRANCH  11  12
ENDBRANCH   8  11
ENDBRANCH   1   5
BRANCH   2  19
HETATM   19  C   UNL     1      -4.656  -0.010 -32.403  1.00  0.00     0.156 A 
HETATM   20  N   UNL     1      -3.780  -0.022 -31.435  1.00  0.00    -0.166 NA
HETATM   21  N   UNL     1      -3.047  -1.156 -31.254  1.00  0.00    -0.242 N 
HETATM   22  C   UNL     1      -3.141  -2.308 -31.996  1.00  0.00     0.272 A 
HETATM   23  H   UNL     1      -2.349  -1.139 -30.515  1.00  0.00     0.192 HD
HETATM   24  O   UNL     1      -2.439  -3.289 -31.774  1.00  0.00    -0.266 OA
HETATM   25  C   UNL     1      -4.150  -2.310 -33.069  1.00  0.00     0.046 A 
HETATM   26  C   UNL     1      -4.919  -1.168 -33.284  1.00  0.00     0.016 A 
HETATM   27  C   UNL     1      -4.340  -3.457 -33.851  1.00  0.00     0.018 A 
HETATM   28  C   UNL     1      -5.902  -1.182 -34.281  1.00  0.00     0.015 A 
HETATM   29  C   UNL     1      -6.092  -2.325 -35.063  1.00  0.00     0.001 A 
HETATM   30  C   UNL     1      -5.312  -3.461 -34.850  1.00  0.00     0.001 A 
ENDBRANCH   2  19
TORSDOF 5
ENDMDL
MODEL 9
REMARK VINA RESULT:      -8.4     17.760     19.312
REMARK  5 active torsions:
REMARK  status: ('A' for Active; 'I' for Inactive)
REMARK    1  A    between atoms: C_4  and  C_5 
REMARK    2  A    between atoms: C_5  and  O_6 
REMARK    3  A    between atoms: O_6  and  C_7 
REMARK    4  A    between atoms: C_10  and  N_11 
REMARK       I    between atoms: N_11  and  C_12 
REMARK    5  A    between atoms: C_12  and  C_13 
ROOT
HETATM    1  N   UNL     1      -3.192 -13.842 -39.405  1.00  0.00    -0.322 N 
HETATM    2  C   UNL     1      -2.129 -13.172 -38.839  1.00  0.00     0.277 C 
HETATM    3  O   UNL     1      -2.108 -12.063 -38.332  1.00  0.00    -0.266 OA
HETATM    4  H   UNL     1      -3.013 -14.819 -39.620  1.00  0.00     0.169 HD
ENDROOT
BRANCH   1   5
HETATM    5  C   UNL     1      -4.471 -13.335 -39.694  1.00  0.00     0.035 A 
HETATM    6  C   UNL     1      -5.010 -13.286 -40.979  1.00  0.00     0.032 A 
HETATM    7  C   UNL     1      -6.324 -12.850 -41.174  1.00  0.00     0.039 A 
HETATM    8  C   UNL     1      -7.115 -12.466 -40.091  1.00  0.00     0.069 A 
HETATM    9  C   UNL     1      -6.564 -12.460 -38.812  1.00  0.00     0.039 A 
HETATM   10  C   UNL     1      -5.250 -12.902 -38.615  1.00  0.00     0.032 A 
BRANCH   8  11
HETATM   11  O   UNL     1      -8.397 -12.112 -40.406  1.00  0.00    -0.347 OA
BRANCH  11  12
HETATM   12  C   UNL     1      -9.416 -12.574 -39.515  1.00  0.00     0.214 C 
BRANCH  12  13
HETATM   13  C   UNL     1      -9.784 -14.002 -39.854  1.00  0.00    -0.034 A 
HETATM   14  C   UNL     1      -9.300 -15.056 -39.063  1.00  0.00     0.009 A 
HETATM   15  C   UNL     1      -9.639 -16.379 -39.356  1.00  0.00     0.001 A 
HETATM   16  C   UNL     1     -10.474 -16.662 -40.435  1.00  0.00     0.000 A 
HETATM   17  C   UNL     1     -10.976 -15.624 -41.217  1.00  0.00     0.001 A 
HETATM   18  C   UNL     1     -10.639 -14.301 -40.925  1.00  0.00     0.009 A 
ENDBRANCH  12  13
ENDBRANCH  11  12
ENDBRANCH   8  11
ENDBRANCH   1   5
BRANCH   2  19
HETATM   19  C   UNL     1      -0.848 -14.003 -38.896  1.00  0.00     0.156 A 
HETATM   20  N   UNL     1      -0.206 -13.978 -40.033  1.00  0.00    -0.166 NA
HETATM   21  N   UNL     1       0.953 -14.687 -40.126  1.00  0.00    -0.242 N 
HETATM   22  C   UNL     1       1.527 -15.436 -39.127  1.00  0.00     0.272 A 
HETATM   23  H   UNL     1       1.425 -14.681 -41.026  1.00  0.00     0.192 HD
HETATM   24  O   UNL     1       2.572 -16.055 -39.291  1.00  0.00    -0.266 OA
HETATM   25  C   UNL     1       0.822 -15.443 -37.834  1.00  0.00     0.046 A 
HETATM   26  C   UNL     1      -0.366 -14.728 -37.700  1.00  0.00     0.016 A 
HETATM   27  C   UNL     1       1.356 -16.151 -36.749  1.00  0.00     0.018 A 
HETATM   28  C   UNL     1      -1.018 -14.706 -36.461  1.00  0.00     0.015 A 
HETATM   29  C   UNL     1      -0.486 -15.412 -35.377  1.00  0.00     0.001 A 
HETATM   30  C   UNL     1       0.697 -16.135 -35.520  1.00  0.00     0.001 A 
ENDBRANCH   2  19
TORSDOF 5
ENDMDL
MODEL 10
REMARK VINA RESULT:      -8.3      5.996      9.543
REMARK  5 active torsions:
REMARK  status: ('A' for Active; 'I' for Inactive)
REMARK    1  A    between atoms: C_4  and  C_5 
REMARK    2  A    between atoms: C_5  and  O_6 
REMARK    3  A    between atoms: O_6  and  C_7 
REMARK    4  A    between atoms: C_10  and  N_11 
REMARK       I    between atoms: N_11  and  C_12 
REMARK    5  A    between atoms: C_12  and  C_13 
ROOT
HETATM    1  N   UNL     1      -7.637   0.556 -32.599  1.00  0.00    -0.322 N 
HETATM    2  C   UNL     1      -6.483   0.731 -33.333  1.00  0.00     0.277 C 
HETATM    3  O   UNL     1      -6.242   1.564 -34.190  1.00  0.00    -0.266 OA
HETATM    4  H   UNL     1      -7.555  -0.102 -31.829  1.00  0.00     0.169 HD
ENDROOT
BRANCH   1   5
HETATM    5  C   UNL     1      -8.878   1.185 -32.789  1.00  0.00     0.035 A 
HETATM    6  C   UNL     1      -9.305   2.289 -32.052  1.00  0.00     0.032 A 
HETATM    7  C   UNL     1     -10.518   2.915 -32.360  1.00  0.00     0.039 A 
HETATM    8  C   UNL     1     -11.311   2.452 -33.410  1.00  0.00     0.069 A 
HETATM    9  C   UNL     1     -10.917   1.316 -34.114  1.00  0.00     0.039 A 
HETATM   10  C   UNL     1      -9.701   0.692 -33.809  1.00  0.00     0.032 A 
BRANCH   8  11
HETATM   11  O   UNL     1     -12.442   3.180 -33.647  1.00  0.00    -0.347 OA
BRANCH  11  12
HETATM   12  C   UNL     1     -12.718   3.491 -35.015  1.00  0.00     0.214 C 
BRANCH  12  13
HETATM   13  C   UNL     1     -12.268   4.903 -35.322  1.00  0.00    -0.034 A 
HETATM   14  C   UNL     1     -13.219   5.892 -35.616  1.00  0.00     0.009 A 
HETATM   15  C   UNL     1     -12.821   7.202 -35.890  1.00  0.00     0.001 A 
HETATM   16  C   UNL     1     -11.469   7.540 -35.863  1.00  0.00     0.000 A 
HETATM   17  C   UNL     1     -10.517   6.572 -35.554  1.00  0.00     0.001 A 
HETATM   18  C   UNL     1     -10.913   5.262 -35.278  1.00  0.00     0.009 A 
ENDBRANCH  12  13
ENDBRANCH  11  12
ENDBRANCH   8  11
ENDBRANCH   1   5
BRANCH   2  19
HETATM   19  C   UNL     1      -5.417  -0.298 -32.956  1.00  0.00     0.156 A 
HETATM   20  N   UNL     1      -4.601   0.056 -32.000  1.00  0.00    -0.166 NA
HETATM   21  N   UNL     1      -3.646  -0.835 -31.615  1.00  0.00    -0.242 N 
HETATM   22  C   UNL     1      -3.454  -2.092 -32.137  1.00  0.00     0.272 A 
HETATM   23  H   UNL     1      -3.001  -0.534 -30.890  1.00  0.00     0.192 HD
HETATM   24  O   UNL     1      -2.563  -2.836 -31.741  1.00  0.00    -0.266 OA
HETATM   25  C   UNL     1      -4.391  -2.507 -33.195  1.00  0.00     0.046 A 
HETATM   26  C   UNL     1      -5.382  -1.622 -33.614  1.00  0.00     0.016 A 
HETATM   27  C   UNL     1      -4.291  -3.786 -33.757  1.00  0.00     0.018 A 
HETATM   28  C   UNL     1      -6.295  -2.029 -34.594  1.00  0.00     0.015 A 
HETATM   29  C   UNL     1      -6.196  -3.306 -35.157  1.00  0.00     0.001 A 
HETATM   30  C   UNL     1      -5.195  -4.183 -34.741  1.00  0.00     0.001 A 
ENDBRANCH   2  19
TORSDOF 5
ENDMDL
