MODEL 1
REMARK VINA RESULT:      -7.7      0.000      0.000
REMARK  6 active torsions:
REMARK  status: ('A' for Active; 'I' for Inactive)
REMARK    1  A    between atoms: C_2  and  O_3 
REMARK    2  A    between atoms: O_3  and  C_4 
REMARK    3  A    between atoms: C_4  and  C_5 
REMARK    4  A    between atoms: C_10  and  C_11 
REMARK    5  A    between atoms: C_11  and  N_12 
REMARK    6  A    between atoms: C_11  and  C_16 
ROOT
HETATM    1  C   UNL     1      -8.720   0.043 -32.457  1.00  0.00     0.118 A 
HETATM    2  N   UNL     1      -8.400   0.448 -31.185  1.00  0.00    -0.350 N 
HETATM    3  H   UNL     1      -9.081   0.710 -30.482  1.00  0.00     0.166 HD
HETATM    4  C   UNL     1      -7.042   0.474 -31.007  1.00  0.00     0.043 A 
HETATM    5  C   UNL     1      -6.453   0.033 -32.192  1.00  0.00     0.002 A 
HETATM    6  C   UNL     1      -7.524  -0.259 -33.120  1.00  0.00     0.022 A 
HETATM    7  C   UNL     1      -6.308   0.853 -29.876  1.00  0.00     0.030 A 
HETATM    8  C   UNL     1      -4.918   0.781 -29.948  1.00  0.00     0.002 A 
HETATM    9  C   UNL     1      -4.290   0.341 -31.106  1.00  0.00     0.001 A 
HETATM   10  C   UNL     1      -5.040  -0.036 -32.228  1.00  0.00     0.014 A 
ENDROOT
BRANCH   6  11
HETATM   11  C   UNL     1      -7.438  -0.750 -34.541  1.00  0.00     0.252 C 
BRANCH  11  12
HETATM   12  N   UNL     1      -6.906   0.230 -35.508  1.00  0.00    -0.067 N 
HETATM   13  H   UNL     1      -7.645   0.863 -35.818  1.00  0.00     0.275 HD
HETATM   14  H   UNL     1      -6.183   0.799 -35.056  1.00  0.00     0.275 HD
HETATM   15  H   UNL     1      -6.500  -0.250 -36.316  1.00  0.00     0.275 HD
ENDBRANCH  11  12
BRANCH  11  16
HETATM   16  C   UNL     1      -6.618  -2.024 -34.549  1.00  0.00    -0.024 A 
HETATM   17  C   UNL     1      -7.281  -3.266 -34.561  1.00  0.00     0.009 A 
HETATM   18  C   UNL     1      -6.565  -4.462 -34.629  1.00  0.00     0.001 A 
HETATM   19  C   UNL     1      -5.176  -4.442 -34.688  1.00  0.00     0.000 A 
HETATM   20  C   UNL     1      -4.499  -3.226 -34.676  1.00  0.00     0.001 A 
HETATM   21  C   UNL     1      -5.211  -2.026 -34.611  1.00  0.00     0.009 A 
ENDBRANCH  11  16
ENDBRANCH   6  11
BRANCH   1  22
HETATM   22  C   UNL     1     -10.080  -0.029 -32.950  1.00  0.00     0.310 C 
HETATM   23  O   UNL     1     -10.855  -0.939 -32.692  1.00  0.00    -0.258 OA
BRANCH  22  24
HETATM   24  O   UNL     1     -10.333   1.034 -33.756  1.00  0.00    -0.317 OA
BRANCH  24  25
HETATM   25  C   UNL     1     -11.653   1.593 -33.665  1.00  0.00     0.175 C 
HETATM   26  C   UNL     1     -12.341   1.524 -35.017  1.00  0.00     0.034 C 
ENDBRANCH  24  25
ENDBRANCH  22  24
ENDBRANCH   1  22
TORSDOF 6
ENDMDL
MODEL 2
REMARK VINA RESULT:      -7.5      3.052      5.369
REMARK  6 active torsions:
REMARK  status: ('A' for Active; 'I' for Inactive)
REMARK    1  A    between atoms: C_2  and  O_3 
REMARK    2  A    between atoms: O_3  and  C_4 
REMARK    3  A    between atoms: C_4  and  C_5 
REMARK    4  A    between atoms: C_10  and  C_11 
REMARK    5  A    between atoms: C_11  and  N_12 
REMARK    6  A    between atoms: C_11  and  C_16 
ROOT
HETATM    1  C   UNL     1      -4.031  -0.116 -32.271  1.00  0.00     0.118 A 
HETATM    2  N   UNL     1      -3.117   0.896 -32.439  1.00  0.00    -0.350 N 
HETATM    3  H   UNL     1      -2.193   0.768 -32.835  1.00  0.00     0.166 HD
HETATM    4  C   UNL     1      -3.613   2.085 -31.977  1.00  0.00     0.043 A 
HETATM    5  C   UNL     1      -4.913   1.853 -31.525  1.00  0.00     0.002 A 
HETATM    6  C   UNL     1      -5.191   0.448 -31.725  1.00  0.00     0.022 A 
HETATM    7  C   UNL     1      -2.996   3.341 -31.936  1.00  0.00     0.030 A 
HETATM    8  C   UNL     1      -3.726   4.409 -31.418  1.00  0.00     0.002 A 
HETATM    9  C   UNL     1      -5.026   4.225 -30.963  1.00  0.00     0.001 A 
HETATM   10  C   UNL     1      -5.629   2.961 -31.013  1.00  0.00     0.014 A 
ENDROOT
BRANCH   6  11
HETATM   11  C   UNL     1      -6.441  -0.326 -31.396  1.00  0.00     0.252 C 
BRANCH  11  12
HETATM   12  N   UNL     1      -6.928  -0.163 -30.012  1.00  0.00    -0.067 N 
HETATM   13  H   UNL     1      -7.861  -0.567 -29.912  1.00  0.00     0.275 HD
HETATM   14  H   UNL     1      -6.305  -0.663 -29.369  1.00  0.00     0.275 HD
HETATM   15  H   UNL     1      -6.951   0.828 -29.757  1.00  0.00     0.275 HD
ENDBRANCH  11  12
BRANCH  11  16
HETATM   16  C   UNL     1      -7.510   0.058 -32.399  1.00  0.00    -0.024 A 
HETATM   17  C   UNL     1      -8.750   0.530 -31.930  1.00  0.00     0.009 A 
HETATM   18  C   UNL     1      -9.741   0.950 -32.818  1.00  0.00     0.001 A 
HETATM   19  C   UNL     1      -9.512   0.909 -34.190  1.00  0.00     0.000 A 
HETATM   20  C   UNL     1      -8.294   0.444 -34.676  1.00  0.00     0.001 A 
HETATM   21  C   UNL     1      -7.298   0.025 -33.790  1.00  0.00     0.009 A 
ENDBRANCH  11  16
ENDBRANCH   6  11
BRANCH   1  22
HETATM   22  C   UNL     1      -3.763  -1.496 -32.620  1.00  0.00     0.310 C 
HETATM   23  O   UNL     1      -3.199  -2.292 -31.883  1.00  0.00    -0.258 OA
BRANCH  22  24
HETATM   24  O   UNL     1      -4.197  -1.742 -33.883  1.00  0.00    -0.317 OA
BRANCH  24  25
HETATM   25  C   UNL     1      -4.518  -3.110 -34.183  1.00  0.00     0.175 C 
HETATM   26  C   UNL     1      -5.834  -3.183 -34.934  1.00  0.00     0.034 C 
ENDBRANCH  24  25
ENDBRANCH  22  24
ENDBRANCH   1  22
TORSDOF 6
ENDMDL
MODEL 3
REMARK VINA RESULT:      -7.5      3.088      5.803
REMARK  6 active torsions:
REMARK  status: ('A' for Active; 'I' for Inactive)
REMARK    1  A    between atoms: C_2  and  O_3 
REMARK    2  A    between atoms: O_3  and  C_4 
REMARK    3  A    between atoms: C_4  and  C_5 
REMARK    4  A    between atoms: C_10  and  C_11 
REMARK    5  A    between atoms: C_11  and  N_12 
REMARK    6  A    between atoms: C_11  and  C_16 
ROOT
HETATM    1  C   UNL     1      -4.522   1.011 -31.949  1.00  0.00     0.118 A 
HETATM    2  N   UNL     1      -3.887  -0.206 -31.986  1.00  0.00    -0.350 N 
HETATM    3  H   UNL     1      -3.101  -0.456 -31.396  1.00  0.00     0.166 HD
HETATM    4  C   UNL     1      -4.438  -1.018 -32.940  1.00  0.00     0.043 A 
HETATM    5  C   UNL     1      -5.499  -0.324 -33.523  1.00  0.00     0.002 A 
HETATM    6  C   UNL     1      -5.567   0.971 -32.881  1.00  0.00     0.022 A 
HETATM    7  C   UNL     1      -4.069  -2.316 -33.314  1.00  0.00     0.030 A 
HETATM    8  C   UNL     1      -4.805  -2.938 -34.321  1.00  0.00     0.002 A 
HETATM    9  C   UNL     1      -5.873  -2.286 -34.924  1.00  0.00     0.001 A 
HETATM   10  C   UNL     1      -6.231  -0.987 -34.536  1.00  0.00     0.014 A 
ENDROOT
BRANCH   6  11
HETATM   11  C   UNL     1      -6.517   2.110 -33.144  1.00  0.00     0.252 C 
BRANCH  11  12
HETATM   12  N   UNL     1      -6.259   2.862 -34.388  1.00  0.00    -0.067 N 
HETATM   13  H   UNL     1      -5.652   3.662 -34.202  1.00  0.00     0.275 HD
HETATM   14  H   UNL     1      -5.774   2.258 -35.059  1.00  0.00     0.275 HD
HETATM   15  H   UNL     1      -7.139   3.184 -34.800  1.00  0.00     0.275 HD
ENDBRANCH  11  12
BRANCH  11  16
HETATM   16  C   UNL     1      -7.928   1.559 -33.124  1.00  0.00    -0.024 A 
HETATM   17  C   UNL     1      -8.774   1.801 -34.223  1.00  0.00     0.009 A 
HETATM   18  C   UNL     1     -10.061   1.262 -34.272  1.00  0.00     0.001 A 
HETATM   19  C   UNL     1     -10.526   0.471 -33.227  1.00  0.00     0.000 A 
HETATM   20  C   UNL     1      -9.708   0.220 -32.129  1.00  0.00     0.001 A 
HETATM   21  C   UNL     1      -8.419   0.755 -32.078  1.00  0.00     0.009 A 
ENDBRANCH  11  16
ENDBRANCH   6  11
BRANCH   1  22
HETATM   22  C   UNL     1      -4.120   2.092 -31.074  1.00  0.00     0.310 C 
HETATM   23  O   UNL     1      -4.843   2.589 -30.221  1.00  0.00    -0.258 OA
BRANCH  22  24
HETATM   24  O   UNL     1      -2.854   2.479 -31.374  1.00  0.00    -0.317 OA
BRANCH  24  25
HETATM   25  C   UNL     1      -2.678   3.871 -31.681  1.00  0.00     0.175 C 
HETATM   26  C   UNL     1      -2.720   4.082 -33.183  1.00  0.00     0.034 C 
ENDBRANCH  24  25
ENDBRANCH  22  24
ENDBRANCH   1  22
TORSDOF 6
ENDMDL
MODEL 4
REMARK VINA RESULT:      -7.5      1.971      4.659
REMARK  6 active torsions:
REMARK  status: ('A' for Active; 'I' for Inactive)
REMARK    1  A    between atoms: C_2  and  O_3 
REMARK    2  A    between atoms: O_3  and  C_4 
REMARK    3  A    between atoms: C_4  and  C_5 
REMARK    4  A    between atoms: C_10  and  C_11 
REMARK    5  A    between atoms: C_11  and  N_12 
REMARK    6  A    between atoms: C_11  and  C_16 
ROOT
HETATM    1  C   UNL     1      -8.279   0.179 -32.840  1.00  0.00     0.118 A 
HETATM    2  N   UNL     1      -8.206  -0.778 -33.822  1.00  0.00    -0.350 N 
HETATM    3  H   UNL     1      -8.977  -1.030 -34.429  1.00  0.00     0.166 HD
HETATM    4  C   UNL     1      -6.966  -1.358 -33.849  1.00  0.00     0.043 A 
HETATM    5  C   UNL     1      -6.186  -0.732 -32.877  1.00  0.00     0.002 A 
HETATM    6  C   UNL     1      -7.018   0.264 -32.237  1.00  0.00     0.022 A 
HETATM    7  C   UNL     1      -6.491  -2.386 -34.673  1.00  0.00     0.030 A 
HETATM    8  C   UNL     1      -5.170  -2.797 -34.505  1.00  0.00     0.002 A 
HETATM    9  C   UNL     1      -4.356  -2.197 -33.554  1.00  0.00     0.001 A 
HETATM   10  C   UNL     1      -4.847  -1.167 -32.739  1.00  0.00     0.014 A 
ENDROOT
BRANCH   6  11
HETATM   11  C   UNL     1      -6.672   1.207 -31.114  1.00  0.00     0.252 C 
BRANCH  11  12
HETATM   12  N   UNL     1      -6.304   0.553 -29.843  1.00  0.00    -0.067 N 
HETATM   13  H   UNL     1      -6.696   1.065 -29.051  1.00  0.00     0.275 HD
HETATM   14  H   UNL     1      -6.693  -0.395 -29.820  1.00  0.00     0.275 HD
HETATM   15  H   UNL     1      -5.285   0.501 -29.751  1.00  0.00     0.275 HD
ENDBRANCH  11  12
BRANCH  11  16
HETATM   16  C   UNL     1      -5.567   2.126 -31.594  1.00  0.00    -0.024 A 
HETATM   17  C   UNL     1      -4.298   2.045 -30.990  1.00  0.00     0.009 A 
HETATM   18  C   UNL     1      -3.236   2.831 -31.441  1.00  0.00     0.001 A 
HETATM   19  C   UNL     1      -3.420   3.709 -32.504  1.00  0.00     0.000 A 
HETATM   20  C   UNL     1      -4.667   3.807 -33.115  1.00  0.00     0.001 A 
HETATM   21  C   UNL     1      -5.732   3.021 -32.669  1.00  0.00     0.009 A 
ENDBRANCH  11  16
ENDBRANCH   6  11
BRANCH   1  22
HETATM   22  C   UNL     1      -9.485   0.923 -32.542  1.00  0.00     0.310 C 
HETATM   23  O   UNL     1      -9.502   1.995 -31.955  1.00  0.00    -0.258 OA
BRANCH  22  24
HETATM   24  O   UNL     1     -10.570   0.231 -32.977  1.00  0.00    -0.317 OA
BRANCH  24  25
HETATM   25  C   UNL     1     -11.567   0.997 -33.672  1.00  0.00     0.175 C 
HETATM   26  C   UNL     1     -12.887   0.247 -33.678  1.00  0.00     0.034 C 
ENDBRANCH  24  25
ENDBRANCH  22  24
ENDBRANCH   1  22
TORSDOF 6
ENDMDL
MODEL 5
REMARK VINA RESULT:      -7.5      3.162      6.223
REMARK  6 active torsions:
REMARK  status: ('A' for Active; 'I' for Inactive)
REMARK    1  A    between atoms: C_2  and  O_3 
REMARK    2  A    between atoms: O_3  and  C_4 
REMARK    3  A    between atoms: C_4  and  C_5 
REMARK    4  A    between atoms: C_10  and  C_11 
REMARK    5  A    between atoms: C_11  and  N_12 
REMARK    6  A    between atoms: C_11  and  C_16 
ROOT
HETATM    1  C   UNL     1      -4.610  -0.505 -32.152  1.00  0.00     0.118 A 
HETATM    2  N   UNL     1      -3.907  -1.468 -32.835  1.00  0.00    -0.350 N 
HETATM    3  H   UNL     1      -2.908  -1.610 -32.749  1.00  0.00     0.166 HD
HETATM    4  C   UNL     1      -4.732  -2.184 -33.659  1.00  0.00     0.043 A 
HETATM    5  C   UNL     1      -6.029  -1.700 -33.483  1.00  0.00     0.002 A 
HETATM    6  C   UNL     1      -5.959  -0.635 -32.507  1.00  0.00     0.022 A 
HETATM    7  C   UNL     1      -4.412  -3.226 -34.539  1.00  0.00     0.030 A 
HETATM    8  C   UNL     1      -5.448  -3.803 -35.270  1.00  0.00     0.002 A 
HETATM    9  C   UNL     1      -6.755  -3.357 -35.121  1.00  0.00     0.001 A 
HETATM   10  C   UNL     1      -7.059  -2.315 -34.234  1.00  0.00     0.014 A 
ENDROOT
BRANCH   6  11
HETATM   11  C   UNL     1      -7.069   0.230 -31.969  1.00  0.00     0.252 C 
BRANCH  11  12
HETATM   12  N   UNL     1      -7.209   0.221 -30.499  1.00  0.00    -0.067 N 
HETATM   13  H   UNL     1      -6.647  -0.529 -30.092  1.00  0.00     0.275 HD
HETATM   14  H   UNL     1      -6.863   1.107 -30.116  1.00  0.00     0.275 HD
HETATM   15  H   UNL     1      -8.190   0.099 -30.235  1.00  0.00     0.275 HD
ENDBRANCH  11  12
BRANCH  11  16
HETATM   16  C   UNL     1      -6.861   1.639 -32.487  1.00  0.00    -0.024 A 
HETATM   17  C   UNL     1      -7.014   2.723 -31.603  1.00  0.00     0.009 A 
HETATM   18  C   UNL     1      -6.775   4.032 -32.024  1.00  0.00     0.001 A 
HETATM   19  C   UNL     1      -6.377   4.283 -33.333  1.00  0.00     0.000 A 
HETATM   20  C   UNL     1      -6.221   3.226 -34.225  1.00  0.00     0.001 A 
HETATM   21  C   UNL     1      -6.457   1.914 -33.807  1.00  0.00     0.009 A 
ENDBRANCH  11  16
ENDBRANCH   6  11
BRANCH   1  22
HETATM   22  C   UNL     1      -3.991   0.440 -31.246  1.00  0.00     0.310 C 
HETATM   23  O   UNL     1      -4.148   0.430 -30.034  1.00  0.00    -0.258 OA
BRANCH  22  24
HETATM   24  O   UNL     1      -3.258   1.339 -31.952  1.00  0.00    -0.317 OA
BRANCH  24  25
HETATM   25  C   UNL     1      -3.312   2.698 -31.488  1.00  0.00     0.175 C 
HETATM   26  C   UNL     1      -2.838   3.639 -32.580  1.00  0.00     0.034 C 
ENDBRANCH  24  25
ENDBRANCH  22  24
ENDBRANCH   1  22
TORSDOF 6
ENDMDL
MODEL 6
REMARK VINA RESULT:      -7.3      3.017      5.764
REMARK  6 active torsions:
REMARK  status: ('A' for Active; 'I' for Inactive)
REMARK    1  A    between atoms: C_2  and  O_3 
REMARK    2  A    between atoms: O_3  and  C_4 
REMARK    3  A    between atoms: C_4  and  C_5 
REMARK    4  A    between atoms: C_10  and  C_11 
REMARK    5  A    between atoms: C_11  and  N_12 
REMARK    6  A    between atoms: C_11  and  C_16 
ROOT
HETATM    1  C   UNL     1     -10.088   3.632 -33.425  1.00  0.00     0.118 A 
HETATM    2  N   UNL     1     -11.279   3.827 -34.079  1.00  0.00    -0.350 N 
HETATM    3  H   UNL     1     -11.577   4.714 -34.468  1.00  0.00     0.166 HD
HETATM    4  C   UNL     1     -12.016   2.673 -34.109  1.00  0.00     0.043 A 
HETATM    5  C   UNL     1     -11.264   1.676 -33.487  1.00  0.00     0.002 A 
HETATM    6  C   UNL     1     -10.021   2.282 -33.059  1.00  0.00     0.022 A 
HETATM    7  C   UNL     1     -13.289   2.453 -34.650  1.00  0.00     0.030 A 
HETATM    8  C   UNL     1     -13.823   1.169 -34.558  1.00  0.00     0.002 A 
HETATM    9  C   UNL     1     -13.106   0.145 -33.953  1.00  0.00     0.001 A 
HETATM   10  C   UNL     1     -11.832   0.382 -33.418  1.00  0.00     0.014 A 
ENDROOT
BRANCH   6  11
HETATM   11  C   UNL     1      -8.865   1.653 -32.327  1.00  0.00     0.252 C 
BRANCH  11  12
HETATM   12  N   UNL     1      -9.221   0.977 -31.064  1.00  0.00    -0.067 N 
HETATM   13  H   UNL     1      -8.846   1.492 -30.265  1.00  0.00     0.275 HD
HETATM   14  H   UNL     1     -10.241   0.954 -30.963  1.00  0.00     0.275 HD
HETATM   15  H   UNL     1      -8.860   0.019 -31.057  1.00  0.00     0.275 HD
ENDBRANCH  11  12
BRANCH  11  16
HETATM   16  C   UNL     1      -8.168   0.701 -33.276  1.00  0.00    -0.024 A 
HETATM   17  C   UNL     1      -7.861   1.136 -34.580  1.00  0.00     0.009 A 
HETATM   18  C   UNL     1      -7.167   0.312 -35.467  1.00  0.00     0.001 A 
HETATM   19  C   UNL     1      -6.765  -0.959 -35.071  1.00  0.00     0.000 A 
HETATM   20  C   UNL     1      -7.059  -1.411 -33.788  1.00  0.00     0.001 A 
HETATM   21  C   UNL     1      -7.751  -0.588 -32.895  1.00  0.00     0.009 A 
ENDBRANCH  11  16
ENDBRANCH   6  11
BRANCH   1  22
HETATM   22  C   UNL     1      -9.126   4.689 -33.192  1.00  0.00     0.310 C 
HETATM   23  O   UNL     1      -9.202   5.494 -32.274  1.00  0.00    -0.258 OA
BRANCH  22  24
HETATM   24  O   UNL     1      -8.173   4.663 -34.158  1.00  0.00    -0.317 OA
BRANCH  24  25
HETATM   25  C   UNL     1      -6.861   5.091 -33.759  1.00  0.00     0.175 C 
HETATM   26  C   UNL     1      -6.148   3.968 -33.029  1.00  0.00     0.034 C 
ENDBRANCH  24  25
ENDBRANCH  22  24
ENDBRANCH   1  22
TORSDOF 6
ENDMDL
MODEL 7
REMARK VINA RESULT:      -7.3      3.977      5.437
REMARK  6 active torsions:
REMARK  status: ('A' for Active; 'I' for Inactive)
REMARK    1  A    between atoms: C_2  and  O_3 
REMARK    2  A    between atoms: O_3  and  C_4 
REMARK    3  A    between atoms: C_4  and  C_5 
REMARK    4  A    between atoms: C_10  and  C_11 
REMARK    5  A    between atoms: C_11  and  N_12 
REMARK    6  A    between atoms: C_11  and  C_16 
ROOT
HETATM    1  C   UNL     1      -5.279   3.813 -33.410  1.00  0.00     0.118 A 
HETATM    2  N   UNL     1      -4.744   4.701 -34.311  1.00  0.00    -0.350 N 
HETATM    3  H   UNL     1      -5.228   5.035 -35.136  1.00  0.00     0.166 HD
HETATM    4  C   UNL     1      -3.468   5.048 -33.958  1.00  0.00     0.043 A 
HETATM    5  C   UNL     1      -3.169   4.394 -32.762  1.00  0.00     0.002 A 
HETATM    6  C   UNL     1      -4.331   3.613 -32.398  1.00  0.00     0.022 A 
HETATM    7  C   UNL     1      -2.571   5.898 -34.616  1.00  0.00     0.030 A 
HETATM    8  C   UNL     1      -1.318   6.095 -34.039  1.00  0.00     0.002 A 
HETATM    9  C   UNL     1      -0.980   5.470 -32.846  1.00  0.00     0.001 A 
HETATM   10  C   UNL     1      -1.891   4.624 -32.198  1.00  0.00     0.014 A 
ENDROOT
BRANCH   6  11
HETATM   11  C   UNL     1      -4.532   2.712 -31.208  1.00  0.00     0.252 C 
BRANCH  11  12
HETATM   12  N   UNL     1      -5.729   3.009 -30.398  1.00  0.00    -0.067 N 
HETATM   13  H   UNL     1      -5.940   2.229 -29.773  1.00  0.00     0.275 HD
HETATM   14  H   UNL     1      -5.552   3.832 -29.814  1.00  0.00     0.275 HD
HETATM   15  H   UNL     1      -6.534   3.192 -31.004  1.00  0.00     0.275 HD
ENDBRANCH  11  12
BRANCH  11  16
HETATM   16  C   UNL     1      -4.547   1.279 -31.700  1.00  0.00    -0.024 A 
HETATM   17  C   UNL     1      -5.645   0.458 -31.380  1.00  0.00     0.009 A 
HETATM   18  C   UNL     1      -5.728  -0.850 -31.862  1.00  0.00     0.001 A 
HETATM   19  C   UNL     1      -4.719  -1.360 -32.673  1.00  0.00     0.000 A 
HETATM   20  C   UNL     1      -3.624  -0.566 -33.000  1.00  0.00     0.001 A 
HETATM   21  C   UNL     1      -3.538   0.744 -32.522  1.00  0.00     0.009 A 
ENDBRANCH  11  16
ENDBRANCH   6  11
BRANCH   1  22
HETATM   22  C   UNL     1      -6.596   3.229 -33.555  1.00  0.00     0.310 C 
HETATM   23  O   UNL     1      -7.581   3.597 -32.931  1.00  0.00    -0.258 OA
BRANCH  22  24
HETATM   24  O   UNL     1      -6.549   2.205 -34.445  1.00  0.00    -0.317 OA
BRANCH  24  25
HETATM   25  C   UNL     1      -7.645   1.278 -34.397  1.00  0.00     0.175 C 
HETATM   26  C   UNL     1      -7.325   0.050 -35.231  1.00  0.00     0.034 C 
ENDBRANCH  24  25
ENDBRANCH  22  24
ENDBRANCH   1  22
TORSDOF 6
ENDMDL
MODEL 8
REMARK VINA RESULT:      -7.2      3.929      6.009
REMARK  6 active torsions:
REMARK  status: ('A' for Active; 'I' for Inactive)
REMARK    1  A    between atoms: C_2  and  O_3 
REMARK    2  A    between atoms: O_3  and  C_4 
REMARK    3  A    between atoms: C_4  and  C_5 
REMARK    4  A    between atoms: C_10  and  C_11 
REMARK    5  A    between atoms: C_11  and  N_12 
REMARK    6  A    between atoms: C_11  and  C_16 
ROOT
HETATM    1  C   UNL     1      -6.765   2.672 -33.354  1.00  0.00     0.118 A 
HETATM    2  N   UNL     1      -6.982   1.432 -33.901  1.00  0.00    -0.350 N 
HETATM    3  H   UNL     1      -7.812   1.178 -34.423  1.00  0.00     0.166 HD
HETATM    4  C   UNL     1      -5.943   0.585 -33.622  1.00  0.00     0.043 A 
HETATM    5  C   UNL     1      -4.993   1.307 -32.899  1.00  0.00     0.002 A 
HETATM    6  C   UNL     1      -5.508   2.650 -32.737  1.00  0.00     0.022 A 
HETATM    7  C   UNL     1      -5.786  -0.763 -33.968  1.00  0.00     0.030 A 
HETATM    8  C   UNL     1      -4.617  -1.407 -33.566  1.00  0.00     0.002 A 
HETATM    9  C   UNL     1      -3.642  -0.724 -32.851  1.00  0.00     0.001 A 
HETATM   10  C   UNL     1      -3.814   0.626 -32.514  1.00  0.00     0.014 A 
ENDROOT
BRANCH   6  11
HETATM   11  C   UNL     1      -4.887   3.822 -32.024  1.00  0.00     0.252 C 
BRANCH  11  12
HETATM   12  N   UNL     1      -4.341   3.520 -30.686  1.00  0.00    -0.067 N 
HETATM   13  H   UNL     1      -3.472   2.990 -30.766  1.00  0.00     0.275 HD
HETATM   14  H   UNL     1      -4.125   4.395 -30.198  1.00  0.00     0.275 HD
HETATM   15  H   UNL     1      -5.021   2.987 -30.136  1.00  0.00     0.275 HD
ENDBRANCH  11  12
BRANCH  11  16
HETATM   16  C   UNL     1      -3.822   4.411 -32.926  1.00  0.00    -0.024 A 
HETATM   17  C   UNL     1      -2.473   4.347 -32.527  1.00  0.00     0.009 A 
HETATM   18  C   UNL     1      -1.456   4.824 -33.354  1.00  0.00     0.001 A 
HETATM   19  C   UNL     1      -1.764   5.372 -34.595  1.00  0.00     0.000 A 
HETATM   20  C   UNL     1      -3.090   5.448 -35.009  1.00  0.00     0.001 A 
HETATM   21  C   UNL     1      -4.112   4.969 -34.186  1.00  0.00     0.009 A 
ENDBRANCH  11  16
ENDBRANCH   6  11
BRANCH   1  22
HETATM   22  C   UNL     1      -7.719   3.758 -33.440  1.00  0.00     0.310 C 
HETATM   23  O   UNL     1      -7.609   4.709 -34.201  1.00  0.00    -0.258 OA
BRANCH  22  24
HETATM   24  O   UNL     1      -8.712   3.570 -32.533  1.00  0.00    -0.317 OA
BRANCH  24  25
HETATM   25  C   UNL     1      -8.645   4.380 -31.349  1.00  0.00     0.175 C 
HETATM   26  C   UNL     1      -8.225   3.532 -30.162  1.00  0.00     0.034 C 
ENDBRANCH  24  25
ENDBRANCH  22  24
ENDBRANCH   1  22
TORSDOF 6
ENDMDL
MODEL 9
REMARK VINA RESULT:      -7.2      2.561      5.421
REMARK  6 active torsions:
REMARK  status: ('A' for Active; 'I' for Inactive)
REMARK    1  A    between atoms: C_2  and  O_3 
REMARK    2  A    between atoms: O_3  and  C_4 
REMARK    3  A    between atoms: C_4  and  C_5 
REMARK    4  A    between atoms: C_10  and  C_11 
REMARK    5  A    between atoms: C_11  and  N_12 
REMARK    6  A    between atoms: C_11  and  C_16 
ROOT
HETATM    1  C   UNL     1      -8.634   3.140 -33.574  1.00  0.00     0.118 A 
HETATM    2  N   UNL     1      -9.571   3.593 -34.470  1.00  0.00    -0.350 N 
HETATM    3  H   UNL     1      -9.464   4.432 -35.028  1.00  0.00     0.166 HD
HETATM    4  C   UNL     1     -10.670   2.778 -34.484  1.00  0.00     0.043 A 
HETATM    5  C   UNL     1     -10.430   1.730 -33.594  1.00  0.00     0.002 A 
HETATM    6  C   UNL     1      -9.121   1.949 -33.019  1.00  0.00     0.022 A 
HETATM    7  C   UNL     1     -11.850   2.900 -35.229  1.00  0.00     0.030 A 
HETATM    8  C   UNL     1     -12.827   1.920 -35.066  1.00  0.00     0.002 A 
HETATM    9  C   UNL     1     -12.627   0.857 -34.196  1.00  0.00     0.001 A 
HETATM   10  C   UNL     1     -11.440   0.748 -33.460  1.00  0.00     0.014 A 
ENDROOT
BRANCH   6  11
HETATM   11  C   UNL     1      -8.387   1.125 -31.994  1.00  0.00     0.252 C 
BRANCH  11  12
HETATM   12  N   UNL     1      -9.253   0.363 -31.072  1.00  0.00    -0.067 N 
HETATM   13  H   UNL     1      -9.151  -0.640 -31.233  1.00  0.00     0.275 HD
HETATM   14  H   UNL     1      -8.971   0.550 -30.104  1.00  0.00     0.275 HD
HETATM   15  H   UNL     1     -10.232   0.635 -31.195  1.00  0.00     0.275 HD
ENDBRANCH  11  12
BRANCH  11  16
HETATM   16  C   UNL     1      -7.430   0.207 -32.725  1.00  0.00    -0.024 A 
HETATM   17  C   UNL     1      -7.932  -0.655 -33.719  1.00  0.00     0.009 A 
HETATM   18  C   UNL     1      -7.077  -1.474 -34.458  1.00  0.00     0.001 A 
HETATM   19  C   UNL     1      -5.707  -1.447 -34.222  1.00  0.00     0.000 A 
HETATM   20  C   UNL     1      -5.188  -0.604 -33.244  1.00  0.00     0.001 A 
HETATM   21  C   UNL     1      -6.040   0.220 -32.503  1.00  0.00     0.009 A 
ENDBRANCH  11  16
ENDBRANCH   6  11
BRANCH   1  22
HETATM   22  C   UNL     1      -7.390   3.831 -33.305  1.00  0.00     0.310 C 
HETATM   23  O   UNL     1      -6.395   3.750 -34.011  1.00  0.00    -0.258 OA
BRANCH  22  24
HETATM   24  O   UNL     1      -7.496   4.533 -32.148  1.00  0.00    -0.317 OA
BRANCH  24  25
HETATM   25  C   UNL     1      -6.500   4.258 -31.150  1.00  0.00     0.175 C 
HETATM   26  C   UNL     1      -7.166   3.844 -29.851  1.00  0.00     0.034 C 
ENDBRANCH  24  25
ENDBRANCH  22  24
ENDBRANCH   1  22
TORSDOF 6
ENDMDL
MODEL 10
REMARK VINA RESULT:      -7.1      2.700      3.524
REMARK  6 active torsions:
REMARK  status: ('A' for Active; 'I' for Inactive)
REMARK    1  A    between atoms: C_2  and  O_3 
REMARK    2  A    between atoms: O_3  and  C_4 
REMARK    3  A    between atoms: C_4  and  C_5 
REMARK    4  A    between atoms: C_10  and  C_11 
REMARK    5  A    between atoms: C_11  and  N_12 
REMARK    6  A    between atoms: C_11  and  C_16 
ROOT
HETATM    1  C   UNL     1      -7.344   2.534 -33.344  1.00  0.00     0.118 A 
HETATM    2  N   UNL     1      -6.858   3.702 -33.878  1.00  0.00    -0.350 N 
HETATM    3  H   UNL     1      -7.415   4.359 -34.411  1.00  0.00     0.166 HD
HETATM    4  C   UNL     1      -5.521   3.841 -33.617  1.00  0.00     0.043 A 
HETATM    5  C   UNL     1      -5.124   2.744 -32.851  1.00  0.00     0.002 A 
HETATM    6  C   UNL     1      -6.292   1.911 -32.661  1.00  0.00     0.022 A 
HETATM    7  C   UNL     1      -4.648   4.865 -34.005  1.00  0.00     0.030 A 
HETATM    8  C   UNL     1      -3.318   4.775 -33.600  1.00  0.00     0.002 A 
HETATM    9  C   UNL     1      -2.882   3.705 -32.830  1.00  0.00     0.001 A 
HETATM   10  C   UNL     1      -3.769   2.689 -32.449  1.00  0.00     0.014 A 
ENDROOT
BRANCH   6  11
HETATM   11  C   UNL     1      -6.411   0.603 -31.922  1.00  0.00     0.252 C 
BRANCH  11  12
HETATM   12  N   UNL     1      -7.702   0.389 -31.239  1.00  0.00    -0.067 N 
HETATM   13  H   UNL     1      -7.576  -0.199 -30.414  1.00  0.00     0.275 HD
HETATM   14  H   UNL     1      -8.076   1.290 -30.923  1.00  0.00     0.275 HD
HETATM   15  H   UNL     1      -8.374  -0.049 -31.876  1.00  0.00     0.275 HD
ENDBRANCH  11  12
BRANCH  11  16
HETATM   16  C   UNL     1      -6.119  -0.517 -32.899  1.00  0.00    -0.024 A 
HETATM   17  C   UNL     1      -4.796  -0.976 -33.039  1.00  0.00     0.009 A 
HETATM   18  C   UNL     1      -4.492  -2.045 -33.884  1.00  0.00     0.001 A 
HETATM   19  C   UNL     1      -5.502  -2.677 -34.601  1.00  0.00     0.000 A 
HETATM   20  C   UNL     1      -6.817  -2.240 -34.479  1.00  0.00     0.001 A 
HETATM   21  C   UNL     1      -7.127  -1.171 -33.634  1.00  0.00     0.009 A 
ENDBRANCH  11  16
ENDBRANCH   6  11
BRANCH   1  22
HETATM   22  C   UNL     1      -8.714   2.094 -33.507  1.00  0.00     0.310 C 
HETATM   23  O   UNL     1      -9.133   1.508 -34.495  1.00  0.00    -0.258 OA
BRANCH  22  24
HETATM   24  O   UNL     1      -9.446   2.465 -32.425  1.00  0.00    -0.317 OA
BRANCH  24  25
HETATM   25  C   UNL     1     -10.781   2.923 -32.696  1.00  0.00     0.175 C 
HETATM   26  C   UNL     1     -10.755   4.386 -33.101  1.00  0.00     0.034 C 
ENDBRANCH  24  25
ENDBRANCH  22  24
ENDBRANCH   1  22
TORSDOF 6
ENDMDL
