MODEL 1
REMARK VINA RESULT:      -9.2      0.000      0.000
REMARK  7 active torsions:
REMARK  status: ('A' for Active; 'I' for Inactive)
REMARK    1  A    between atoms: C_2  and  C_3 
REMARK    2  A    between atoms: N_21  and  N_23 
REMARK       I    between atoms: N_23  and  C_24 
REMARK    3  A    between atoms: C_24  and  C_25 
REMARK    4  A    between atoms: C_25  and  N_26 
REMARK    5  A    between atoms: C_25  and  C_34 
REMARK       I    between atoms: N_26  and  C_27 
REMARK    6  A    between atoms: C_27  and  O_28 
REMARK    7  A    between atoms: O_28  and  C_29 
ROOT
HETATM    1  C   UNL     1      -9.353   6.189 -30.325  1.00  0.00    -0.041 C 
HETATM    2  C   UNL     1      -9.519   5.451 -31.588  1.00  0.00     0.005 C 
HETATM    3  C   UNL     1      -8.999   4.156 -31.666  1.00  0.00     0.091 C 
HETATM    4  C   UNL     1      -9.515   3.232 -32.570  1.00  0.00     0.075 C 
HETATM    5  C   UNL     1     -10.509   3.652 -33.452  1.00  0.00     0.079 C 
HETATM    6  C   UNL     1     -10.793   5.012 -33.606  1.00  0.00    -0.024 C 
HETATM    7  C   UNL     1     -11.707   5.491 -34.702  1.00  0.00     0.044 C 
HETATM    8  C   UNL     1     -12.328   4.325 -35.467  1.00  0.00     0.043 C 
HETATM    9  C   UNL     1     -12.559   3.130 -34.525  1.00  0.00     0.068 C 
HETATM   10  C   UNL     1     -13.512   3.498 -33.349  1.00  0.00     0.038 C 
HETATM   11  C   UNL     1     -13.827   2.309 -32.449  1.00  0.00     0.003 C 
HETATM   12  C   UNL     1     -14.450   1.178 -33.250  1.00  0.00     0.000 C 
HETATM   13  C   UNL     1     -13.555   0.770 -34.416  1.00  0.00     0.003 C 
HETATM   14  C   UNL     1     -13.191   1.960 -35.311  1.00  0.00     0.038 C 
HETATM   15  O   UNL     1     -11.254   2.679 -34.067  1.00  0.00    -0.340 OA
HETATM   16  C   UNL     1     -10.317   5.908 -32.642  1.00  0.00     0.024 C 
HETATM   17  O   UNL     1      -7.964   3.737 -30.803  1.00  0.00    -0.292 OA
HETATM   18  C   UNL     1      -7.685   4.530 -29.719  1.00  0.00     0.163 C 
HETATM   19  N   UNL     1      -6.687   4.164 -29.004  1.00  0.00    -0.277 N 
HETATM   20  H   UNL     1      -6.548   4.625 -28.089  1.00  0.00     0.189 HD
HETATM   21  C   UNL     1      -8.510   5.693 -29.407  1.00  0.00     0.065 C 
ENDROOT
BRANCH  19  22
HETATM   22  N   UNL     1      -5.647   3.318 -29.430  1.00  0.00    -0.266 N 
HETATM   23  C   UNL     1      -4.796   3.916 -30.349  1.00  0.00     0.263 C 
HETATM   24  O   UNL     1      -4.662   5.145 -30.336  1.00  0.00    -0.269 OA
HETATM   25  H   UNL     1      -5.821   2.317 -29.391  1.00  0.00     0.190 HD
BRANCH  23  26
HETATM   26  C   UNL     1      -4.288   3.000 -31.489  1.00  0.00     0.214 C 
BRANCH  26  27
HETATM   27  N   UNL     1      -5.375   2.093 -31.816  1.00  0.00    -0.319 N 
HETATM   28  C   UNL     1      -5.155   0.861 -32.346  1.00  0.00     0.362 C 
HETATM   29  O   UNL     1      -4.035   0.427 -32.585  1.00  0.00    -0.238 OA
HETATM   30  H   UNL     1      -6.335   2.336 -31.601  1.00  0.00     0.166 HD
BRANCH  28  31
HETATM   31  O   UNL     1      -6.328   0.212 -32.463  1.00  0.00    -0.294 OA
BRANCH  31  32
HETATM   32  C   UNL     1      -6.933  -0.051 -33.756  1.00  0.00     0.061 C 
HETATM   33  C   UNL     1      -6.401  -1.352 -34.371  1.00  0.00     0.046 C 
HETATM   34  C   UNL     1      -8.431  -0.228 -33.463  1.00  0.00     0.046 C 
HETATM   35  C   UNL     1      -6.744   1.143 -34.694  1.00  0.00     0.046 C 
ENDBRANCH  31  32
ENDBRANCH  28  31
ENDBRANCH  26  27
BRANCH  26  36
HETATM   36  C   UNL     1      -3.855   3.753 -32.726  1.00  0.00    -0.026 A 
HETATM   37  C   UNL     1      -4.824   4.249 -33.614  1.00  0.00     0.010 A 
HETATM   38  C   UNL     1      -4.450   5.006 -34.725  1.00  0.00     0.001 A 
HETATM   39  C   UNL     1      -3.106   5.285 -34.962  1.00  0.00     0.000 A 
HETATM   40  C   UNL     1      -2.135   4.813 -34.084  1.00  0.00     0.001 A 
HETATM   41  C   UNL     1      -2.505   4.058 -32.971  1.00  0.00     0.010 A 
ENDBRANCH  26  36
ENDBRANCH  23  26
ENDBRANCH  19  22
BRANCH   1  42
HETATM   42  C   UNL     1     -10.277   7.337 -29.987  1.00  0.00     0.035 C 
HETATM   43  C   UNL     1     -10.059   7.878 -28.584  1.00  0.00     0.010 C 
ENDBRANCH   1  42
TORSDOF 7
ENDMDL
MODEL 2
REMARK VINA RESULT:      -9.1      3.027      5.913
REMARK  7 active torsions:
REMARK  status: ('A' for Active; 'I' for Inactive)
REMARK    1  A    between atoms: C_2  and  C_3 
REMARK    2  A    between atoms: N_21  and  N_23 
REMARK       I    between atoms: N_23  and  C_24 
REMARK    3  A    between atoms: C_24  and  C_25 
REMARK    4  A    between atoms: C_25  and  N_26 
REMARK    5  A    between atoms: C_25  and  C_34 
REMARK       I    between atoms: N_26  and  C_27 
REMARK    6  A    between atoms: C_27  and  O_28 
REMARK    7  A    between atoms: O_28  and  C_29 
ROOT
HETATM    1  C   UNL     1     -12.336   4.143 -33.113  1.00  0.00    -0.041 C 
HETATM    2  C   UNL     1     -11.488   5.183 -33.719  1.00  0.00     0.005 C 
HETATM    3  C   UNL     1     -10.676   4.823 -34.798  1.00  0.00     0.091 C 
HETATM    4  C   UNL     1     -10.251   5.774 -35.721  1.00  0.00     0.075 C 
HETATM    5  C   UNL     1     -10.587   7.108 -35.499  1.00  0.00     0.079 C 
HETATM    6  C   UNL     1     -11.102   7.515 -34.266  1.00  0.00    -0.024 C 
HETATM    7  C   UNL     1     -11.267   8.976 -33.941  1.00  0.00     0.044 C 
HETATM    8  C   UNL     1     -10.932   9.860 -35.140  1.00  0.00     0.043 C 
HETATM    9  C   UNL     1     -11.321   9.153 -36.450  1.00  0.00     0.068 C 
HETATM   10  C   UNL     1     -12.843   8.828 -36.501  1.00  0.00     0.038 C 
HETATM   11  C   UNL     1     -13.272   8.205 -37.825  1.00  0.00     0.003 C 
HETATM   12  C   UNL     1     -12.927   9.122 -38.988  1.00  0.00     0.000 C 
HETATM   13  C   UNL     1     -11.442   9.472 -38.992  1.00  0.00     0.003 C 
HETATM   14  C   UNL     1     -10.981  10.061 -37.654  1.00  0.00     0.038 C 
HETATM   15  O   UNL     1     -10.490   7.965 -36.567  1.00  0.00    -0.340 OA
HETATM   16  C   UNL     1     -11.585   6.539 -33.388  1.00  0.00     0.024 C 
HETATM   17  O   UNL     1     -10.299   3.479 -35.005  1.00  0.00    -0.292 OA
HETATM   18  C   UNL     1     -10.971   2.517 -34.294  1.00  0.00     0.163 C 
HETATM   19  N   UNL     1     -10.548   1.317 -34.444  1.00  0.00    -0.277 N 
HETATM   20  H   UNL     1     -11.126   0.546 -34.070  1.00  0.00     0.189 HD
HETATM   21  C   UNL     1     -12.112   2.865 -33.453  1.00  0.00     0.065 C 
ENDROOT
BRANCH  19  22
HETATM   22  N   UNL     1      -9.270   0.956 -34.910  1.00  0.00    -0.266 N 
HETATM   23  C   UNL     1      -8.517   0.273 -33.967  1.00  0.00     0.263 C 
HETATM   24  O   UNL     1      -9.094  -0.388 -33.096  1.00  0.00    -0.269 OA
HETATM   25  H   UNL     1      -8.868   1.533 -35.644  1.00  0.00     0.190 HD
BRANCH  23  26
HETATM   26  C   UNL     1      -7.007   0.617 -33.935  1.00  0.00     0.214 C 
BRANCH  26  27
HETATM   27  N   UNL     1      -6.794   1.471 -32.779  1.00  0.00    -0.319 N 
HETATM   28  C   UNL     1      -6.972   2.817 -32.831  1.00  0.00     0.362 C 
HETATM   29  O   UNL     1      -7.323   3.406 -33.846  1.00  0.00    -0.238 OA
HETATM   30  H   UNL     1      -6.560   1.073 -31.877  1.00  0.00     0.166 HD
BRANCH  28  31
HETATM   31  O   UNL     1      -6.792   3.336 -31.602  1.00  0.00    -0.294 OA
BRANCH  31  32
HETATM   32  C   UNL     1      -7.887   3.921 -30.850  1.00  0.00     0.061 C 
HETATM   33  C   UNL     1      -9.122   3.011 -30.855  1.00  0.00     0.046 C 
HETATM   34  C   UNL     1      -7.366   4.026 -29.408  1.00  0.00     0.046 C 
HETATM   35  C   UNL     1      -8.210   5.324 -31.369  1.00  0.00     0.046 C 
ENDBRANCH  31  32
ENDBRANCH  28  31
ENDBRANCH  26  27
BRANCH  26  36
HETATM   36  C   UNL     1      -6.109  -0.595 -33.854  1.00  0.00    -0.026 A 
HETATM   37  C   UNL     1      -6.366  -1.708 -34.671  1.00  0.00     0.010 A 
HETATM   38  C   UNL     1      -5.510  -2.811 -34.663  1.00  0.00     0.001 A 
HETATM   39  C   UNL     1      -4.382  -2.816 -33.846  1.00  0.00     0.000 A 
HETATM   40  C   UNL     1      -4.105  -1.714 -33.041  1.00  0.00     0.001 A 
HETATM   41  C   UNL     1      -4.957  -0.609 -33.048  1.00  0.00     0.010 A 
ENDBRANCH  26  36
ENDBRANCH  23  26
ENDBRANCH  19  22
BRANCH   1  42
HETATM   42  C   UNL     1     -13.562   4.529 -32.317  1.00  0.00     0.035 C 
HETATM   43  C   UNL     1     -13.491   4.080 -30.868  1.00  0.00     0.010 C 
ENDBRANCH   1  42
TORSDOF 7
ENDMDL
MODEL 3
REMARK VINA RESULT:      -9.0      2.612      8.478
REMARK  7 active torsions:
REMARK  status: ('A' for Active; 'I' for Inactive)
REMARK    1  A    between atoms: C_2  and  C_3 
REMARK    2  A    between atoms: N_21  and  N_23 
REMARK       I    between atoms: N_23  and  C_24 
REMARK    3  A    between atoms: C_24  and  C_25 
REMARK    4  A    between atoms: C_25  and  N_26 
REMARK    5  A    between atoms: C_25  and  C_34 
REMARK       I    between atoms: N_26  and  C_27 
REMARK    6  A    between atoms: C_27  and  O_28 
REMARK    7  A    between atoms: O_28  and  C_29 
ROOT
HETATM    1  C   UNL     1      -4.152   1.166 -31.349  1.00  0.00    -0.041 C 
HETATM    2  C   UNL     1      -4.121   2.502 -31.966  1.00  0.00     0.005 C 
HETATM    3  C   UNL     1      -5.151   3.395 -31.653  1.00  0.00     0.091 C 
HETATM    4  C   UNL     1      -4.962   4.769 -31.760  1.00  0.00     0.075 C 
HETATM    5  C   UNL     1      -3.749   5.234 -32.265  1.00  0.00     0.079 C 
HETATM    6  C   UNL     1      -2.856   4.357 -32.887  1.00  0.00    -0.024 C 
HETATM    7  C   UNL     1      -1.648   4.876 -33.621  1.00  0.00     0.044 C 
HETATM    8  C   UNL     1      -1.503   6.388 -33.467  1.00  0.00     0.043 C 
HETATM    9  C   UNL     1      -2.009   6.835 -32.085  1.00  0.00     0.068 C 
HETATM   10  C   UNL     1      -1.214   6.155 -30.931  1.00  0.00     0.038 C 
HETATM   11  C   UNL     1      -1.637   6.646 -29.551  1.00  0.00     0.003 C 
HETATM   12  C   UNL     1      -1.467   8.152 -29.441  1.00  0.00     0.000 C 
HETATM   13  C   UNL     1      -2.231   8.875 -30.547  1.00  0.00     0.003 C 
HETATM   14  C   UNL     1      -1.851   8.366 -31.942  1.00  0.00     0.038 C 
HETATM   15  O   UNL     1      -3.433   6.548 -32.029  1.00  0.00    -0.340 OA
HETATM   16  C   UNL     1      -3.033   2.981 -32.703  1.00  0.00     0.024 C 
HETATM   17  O   UNL     1      -6.396   2.928 -31.180  1.00  0.00    -0.292 OA
HETATM   18  C   UNL     1      -6.468   1.619 -30.776  1.00  0.00     0.163 C 
HETATM   19  N   UNL     1      -7.631   1.207 -30.431  1.00  0.00    -0.277 N 
HETATM   20  H   UNL     1      -7.703   0.289 -29.958  1.00  0.00     0.189 HD
HETATM   21  C   UNL     1      -5.273   0.783 -30.722  1.00  0.00     0.065 C 
ENDROOT
BRANCH  19  22
HETATM   22  N   UNL     1      -8.850   1.803 -30.803  1.00  0.00    -0.266 N 
HETATM   23  C   UNL     1      -9.371   1.293 -31.984  1.00  0.00     0.263 C 
HETATM   24  O   UNL     1      -9.094   0.135 -32.315  1.00  0.00    -0.269 OA
HETATM   25  H   UNL     1      -9.019   2.750 -30.474  1.00  0.00     0.190 HD
BRANCH  23  26
HETATM   26  C   UNL     1     -10.049   2.324 -32.919  1.00  0.00     0.214 C 
BRANCH  26  27
HETATM   27  N   UNL     1     -11.430   2.443 -32.483  1.00  0.00    -0.319 N 
HETATM   28  C   UNL     1     -12.466   2.466 -33.362  1.00  0.00     0.362 C 
HETATM   29  O   UNL     1     -12.316   2.387 -34.575  1.00  0.00    -0.238 OA
HETATM   30  H   UNL     1     -11.663   2.456 -31.497  1.00  0.00     0.166 HD
BRANCH  28  31
HETATM   31  O   UNL     1     -13.626   2.494 -32.679  1.00  0.00    -0.294 OA
BRANCH  31  32
HETATM   32  C   UNL     1     -14.156   3.725 -32.120  1.00  0.00     0.061 C 
HETATM   33  C   UNL     1     -13.889   4.922 -33.042  1.00  0.00     0.046 C 
HETATM   34  C   UNL     1     -15.675   3.501 -32.040  1.00  0.00     0.046 C 
HETATM   35  C   UNL     1     -13.609   3.957 -30.710  1.00  0.00     0.046 C 
ENDBRANCH  31  32
ENDBRANCH  28  31
ENDBRANCH  26  27
BRANCH  26  36
HETATM   36  C   UNL     1      -9.386   3.682 -32.909  1.00  0.00    -0.026 A 
HETATM   37  C   UNL     1      -8.318   3.941 -33.784  1.00  0.00     0.010 A 
HETATM   38  C   UNL     1      -7.735   5.209 -33.841  1.00  0.00     0.001 A 
HETATM   39  C   UNL     1      -8.215   6.236 -33.031  1.00  0.00     0.000 A 
HETATM   40  C   UNL     1      -9.282   5.999 -32.169  1.00  0.00     0.001 A 
HETATM   41  C   UNL     1      -9.868   4.734 -32.112  1.00  0.00     0.010 A 
ENDBRANCH  26  36
ENDBRANCH  23  26
ENDBRANCH  19  22
BRANCH   1  42
HETATM   42  C   UNL     1      -2.881   0.355 -31.228  1.00  0.00     0.035 C 
HETATM   43  C   UNL     1      -2.992  -1.016 -31.874  1.00  0.00     0.010 C 
ENDBRANCH   1  42
TORSDOF 7
ENDMDL
MODEL 4
REMARK VINA RESULT:      -8.9      3.773      8.689
REMARK  7 active torsions:
REMARK  status: ('A' for Active; 'I' for Inactive)
REMARK    1  A    between atoms: C_2  and  C_3 
REMARK    2  A    between atoms: N_21  and  N_23 
REMARK       I    between atoms: N_23  and  C_24 
REMARK    3  A    between atoms: C_24  and  C_25 
REMARK    4  A    between atoms: C_25  and  N_26 
REMARK    5  A    between atoms: C_25  and  C_34 
REMARK       I    between atoms: N_26  and  C_27 
REMARK    6  A    between atoms: C_27  and  O_28 
REMARK    7  A    between atoms: O_28  and  C_29 
ROOT
HETATM    1  C   UNL     1      -1.584   5.477 -31.571  1.00  0.00    -0.041 C 
HETATM    2  C   UNL     1      -2.507   6.446 -30.957  1.00  0.00     0.005 C 
HETATM    3  C   UNL     1      -3.707   5.964 -30.425  1.00  0.00     0.091 C 
HETATM    4  C   UNL     1      -4.376   6.662 -29.424  1.00  0.00     0.075 C 
HETATM    5  C   UNL     1      -3.864   7.894 -29.021  1.00  0.00     0.079 C 
HETATM    6  C   UNL     1      -2.872   8.530 -29.771  1.00  0.00    -0.024 C 
HETATM    7  C   UNL     1      -2.465   9.949 -29.469  1.00  0.00     0.044 C 
HETATM    8  C   UNL     1      -3.166  10.482 -28.222  1.00  0.00     0.043 C 
HETATM    9  C   UNL     1      -3.388   9.347 -27.208  1.00  0.00     0.068 C 
HETATM   10  C   UNL     1      -2.044   8.697 -26.765  1.00  0.00     0.038 C 
HETATM   11  C   UNL     1      -2.227   7.627 -25.694  1.00  0.00     0.003 C 
HETATM   12  C   UNL     1      -2.920   8.204 -24.470  1.00  0.00     0.000 C 
HETATM   13  C   UNL     1      -4.250   8.852 -24.844  1.00  0.00     0.003 C 
HETATM   14  C   UNL     1      -4.093   9.901 -25.950  1.00  0.00     0.038 C 
HETATM   15  O   UNL     1      -4.298   8.390 -27.817  1.00  0.00    -0.340 OA
HETATM   16  C   UNL     1      -2.169   7.783 -30.722  1.00  0.00     0.024 C 
HETATM   17  O   UNL     1      -4.251   4.736 -30.859  1.00  0.00    -0.292 OA
HETATM   18  C   UNL     1      -3.440   3.910 -31.595  1.00  0.00     0.163 C 
HETATM   19  N   UNL     1      -3.991   2.843 -32.042  1.00  0.00    -0.277 N 
HETATM   20  H   UNL     1      -3.382   2.114 -32.449  1.00  0.00     0.189 HD
HETATM   21  C   UNL     1      -2.035   4.237 -31.813  1.00  0.00     0.065 C 
ENDROOT
BRANCH  19  22
HETATM   22  N   UNL     1      -5.376   2.647 -32.201  1.00  0.00    -0.266 N 
HETATM   23  C   UNL     1      -5.903   1.719 -31.314  1.00  0.00     0.263 C 
HETATM   24  O   UNL     1      -5.349   1.546 -30.222  1.00  0.00    -0.269 OA
HETATM   25  H   UNL     1      -5.764   2.832 -33.122  1.00  0.00     0.190 HD
BRANCH  23  26
HETATM   26  C   UNL     1      -6.998   0.788 -31.890  1.00  0.00     0.214 C 
BRANCH  26  27
HETATM   27  N   UNL     1      -7.887   1.622 -32.681  1.00  0.00    -0.319 N 
HETATM   28  C   UNL     1      -8.989   2.211 -32.148  1.00  0.00     0.362 C 
HETATM   29  O   UNL     1      -9.313   2.087 -30.974  1.00  0.00    -0.238 OA
HETATM   30  H   UNL     1      -7.674   1.834 -33.648  1.00  0.00     0.166 HD
BRANCH  28  31
HETATM   31  O   UNL     1      -9.570   2.989 -33.081  1.00  0.00    -0.294 OA
BRANCH  31  32
HETATM   32  C   UNL     1     -10.895   2.703 -33.600  1.00  0.00     0.061 C 
HETATM   33  C   UNL     1     -11.989   3.323 -32.722  1.00  0.00     0.046 C 
HETATM   34  C   UNL     1     -10.935   3.381 -34.979  1.00  0.00     0.046 C 
HETATM   35  C   UNL     1     -11.091   1.196 -33.778  1.00  0.00     0.046 C 
ENDBRANCH  31  32
ENDBRANCH  28  31
ENDBRANCH  26  27
BRANCH  26  36
HETATM   36  C   UNL     1      -6.453  -0.337 -32.740  1.00  0.00    -0.026 A 
HETATM   37  C   UNL     1      -7.248  -0.888 -33.758  1.00  0.00     0.010 A 
HETATM   38  C   UNL     1      -6.741  -1.879 -34.600  1.00  0.00     0.001 A 
HETATM   39  C   UNL     1      -5.432  -2.330 -34.442  1.00  0.00     0.000 A 
HETATM   40  C   UNL     1      -4.627  -1.784 -33.446  1.00  0.00     0.001 A 
HETATM   41  C   UNL     1      -5.130  -0.791 -32.604  1.00  0.00     0.010 A 
ENDBRANCH  26  36
ENDBRANCH  23  26
ENDBRANCH  19  22
BRANCH   1  42
HETATM   42  C   UNL     1      -0.115   5.807 -31.708  1.00  0.00     0.035 C 
HETATM   43  C   UNL     1       0.732   5.205 -30.599  1.00  0.00     0.010 C 
ENDBRANCH   1  42
TORSDOF 7
ENDMDL
MODEL 5
REMARK VINA RESULT:      -8.7      3.550      6.548
REMARK  7 active torsions:
REMARK  status: ('A' for Active; 'I' for Inactive)
REMARK    1  A    between atoms: C_2  and  C_3 
REMARK    2  A    between atoms: N_21  and  N_23 
REMARK       I    between atoms: N_23  and  C_24 
REMARK    3  A    between atoms: C_24  and  C_25 
REMARK    4  A    between atoms: C_25  and  N_26 
REMARK    5  A    between atoms: C_25  and  C_34 
REMARK       I    between atoms: N_26  and  C_27 
REMARK    6  A    between atoms: C_27  and  O_28 
REMARK    7  A    between atoms: O_28  and  C_29 
ROOT
HETATM    1  C   UNL     1      -4.671   1.843 -31.794  1.00  0.00    -0.041 C 
HETATM    2  C   UNL     1      -5.706   2.824 -31.428  1.00  0.00     0.005 C 
HETATM    3  C   UNL     1      -5.516   4.154 -31.813  1.00  0.00     0.091 C 
HETATM    4  C   UNL     1      -6.599   5.015 -31.966  1.00  0.00     0.075 C 
HETATM    5  C   UNL     1      -7.870   4.543 -31.647  1.00  0.00     0.079 C 
HETATM    6  C   UNL     1      -8.027   3.342 -30.951  1.00  0.00    -0.024 C 
HETATM    7  C   UNL     1      -9.373   2.929 -30.416  1.00  0.00     0.044 C 
HETATM    8  C   UNL     1     -10.471   3.899 -30.846  1.00  0.00     0.043 C 
HETATM    9  C   UNL     1     -10.165   4.468 -32.242  1.00  0.00     0.068 C 
HETATM   10  C   UNL     1     -10.068   3.343 -33.315  1.00  0.00     0.038 C 
HETATM   11  C   UNL     1      -9.851   3.885 -34.723  1.00  0.00     0.003 C 
HETATM   12  C   UNL     1     -10.970   4.838 -35.111  1.00  0.00     0.000 C 
HETATM   13  C   UNL     1     -11.110   5.967 -34.096  1.00  0.00     0.003 C 
HETATM   14  C   UNL     1     -11.286   5.443 -32.666  1.00  0.00     0.038 C 
HETATM   15  O   UNL     1      -8.942   5.247 -32.136  1.00  0.00    -0.340 OA
HETATM   16  C   UNL     1      -6.939   2.466 -30.874  1.00  0.00     0.024 C 
HETATM   17  O   UNL     1      -4.225   4.650 -32.098  1.00  0.00    -0.292 OA
HETATM   18  C   UNL     1      -3.217   3.733 -32.257  1.00  0.00     0.163 C 
HETATM   19  N   UNL     1      -2.045   4.219 -32.433  1.00  0.00    -0.277 N 
HETATM   20  H   UNL     1      -1.290   3.578 -32.728  1.00  0.00     0.189 HD
HETATM   21  C   UNL     1      -3.498   2.301 -32.254  1.00  0.00     0.065 C 
ENDROOT
BRANCH  19  22
HETATM   22  N   UNL     1      -1.643   5.521 -32.078  1.00  0.00    -0.266 N 
HETATM   23  C   UNL     1      -1.031   5.585 -30.835  1.00  0.00     0.263 C 
HETATM   24  O   UNL     1      -0.444   4.588 -30.399  1.00  0.00    -0.269 OA
HETATM   25  H   UNL     1      -2.158   6.292 -32.495  1.00  0.00     0.190 HD
BRANCH  23  26
HETATM   26  C   UNL     1      -1.369   6.834 -29.984  1.00  0.00     0.214 C 
BRANCH  26  27
HETATM   27  N   UNL     1      -2.723   6.652 -29.489  1.00  0.00    -0.319 N 
HETATM   28  C   UNL     1      -3.803   7.178 -30.125  1.00  0.00     0.362 C 
HETATM   29  O   UNL     1      -3.717   7.837 -31.153  1.00  0.00    -0.238 OA
HETATM   30  H   UNL     1      -2.905   6.073 -28.677  1.00  0.00     0.166 HD
BRANCH  28  31
HETATM   31  O   UNL     1      -4.925   6.779 -29.497  1.00  0.00    -0.294 OA
BRANCH  31  32
HETATM   32  C   UNL     1      -5.891   7.729 -28.977  1.00  0.00     0.061 C 
HETATM   33  C   UNL     1      -6.810   8.260 -30.085  1.00  0.00     0.046 C 
HETATM   34  C   UNL     1      -6.742   6.924 -27.982  1.00  0.00     0.046 C 
HETATM   35  C   UNL     1      -5.185   8.863 -28.230  1.00  0.00     0.046 C 
ENDBRANCH  31  32
ENDBRANCH  28  31
ENDBRANCH  26  27
BRANCH  26  36
HETATM   36  C   UNL     1      -0.422   7.056 -28.827  1.00  0.00    -0.026 A 
HETATM   37  C   UNL     1       0.661   7.939 -28.973  1.00  0.00     0.010 A 
HETATM   38  C   UNL     1       1.507   8.212 -27.898  1.00  0.00     0.001 A 
HETATM   39  C   UNL     1       1.282   7.614 -26.660  1.00  0.00     0.000 A 
HETATM   40  C   UNL     1       0.205   6.747 -26.495  1.00  0.00     0.001 A 
HETATM   41  C   UNL     1      -0.645   6.474 -27.567  1.00  0.00     0.010 A 
ENDBRANCH  26  36
ENDBRANCH  23  26
ENDBRANCH  19  22
BRANCH   1  42
HETATM   42  C   UNL     1      -5.010   0.371 -31.867  1.00  0.00     0.035 C 
HETATM   43  C   UNL     1      -5.243  -0.112 -33.288  1.00  0.00     0.010 C 
ENDBRANCH   1  42
TORSDOF 7
ENDMDL
MODEL 6
REMARK VINA RESULT:      -8.5      2.494      9.025
REMARK  7 active torsions:
REMARK  status: ('A' for Active; 'I' for Inactive)
REMARK    1  A    between atoms: C_2  and  C_3 
REMARK    2  A    between atoms: N_21  and  N_23 
REMARK       I    between atoms: N_23  and  C_24 
REMARK    3  A    between atoms: C_24  and  C_25 
REMARK    4  A    between atoms: C_25  and  N_26 
REMARK    5  A    between atoms: C_25  and  C_34 
REMARK       I    between atoms: N_26  and  C_27 
REMARK    6  A    between atoms: C_27  and  O_28 
REMARK    7  A    between atoms: O_28  and  C_29 
ROOT
HETATM    1  C   UNL     1      -4.247   1.338 -32.291  1.00  0.00    -0.041 C 
HETATM    2  C   UNL     1      -3.996   2.785 -32.385  1.00  0.00     0.005 C 
HETATM    3  C   UNL     1      -4.627   3.623 -31.461  1.00  0.00     0.091 C 
HETATM    4  C   UNL     1      -4.094   4.869 -31.147  1.00  0.00     0.075 C 
HETATM    5  C   UNL     1      -2.961   5.298 -31.835  1.00  0.00     0.079 C 
HETATM    6  C   UNL     1      -2.528   4.623 -32.979  1.00  0.00    -0.024 C 
HETATM    7  C   UNL     1      -1.440   5.195 -33.849  1.00  0.00     0.044 C 
HETATM    8  C   UNL     1      -0.846   6.465 -33.244  1.00  0.00     0.043 C 
HETATM    9  C   UNL     1      -0.854   6.379 -31.708  1.00  0.00     0.068 C 
HETATM   10  C   UNL     1      -0.025   5.165 -31.193  1.00  0.00     0.038 C 
HETATM   11  C   UNL     1       0.057   5.105 -29.672  1.00  0.00     0.003 C 
HETATM   12  C   UNL     1       0.662   6.384 -29.116  1.00  0.00     0.000 C 
HETATM   13  C   UNL     1      -0.115   7.610 -29.584  1.00  0.00     0.003 C 
HETATM   14  C   UNL     1      -0.245   7.667 -31.110  1.00  0.00     0.038 C 
HETATM   15  O   UNL     1      -2.243   6.328 -31.282  1.00  0.00    -0.340 OA
HETATM   16  C   UNL     1      -3.031   3.342 -33.231  1.00  0.00     0.024 C 
HETATM   17  O   UNL     1      -5.799   3.211 -30.790  1.00  0.00    -0.292 OA
HETATM   18  C   UNL     1      -6.133   1.882 -30.860  1.00  0.00     0.163 C 
HETATM   19  N   UNL     1      -7.244   1.558 -30.310  1.00  0.00    -0.277 N 
HETATM   20  H   UNL     1      -7.452   0.553 -30.186  1.00  0.00     0.189 HD
HETATM   21  C   UNL     1      -5.244   0.917 -31.498  1.00  0.00     0.065 C 
ENDROOT
BRANCH  19  22
HETATM   22  N   UNL     1      -8.300   2.444 -30.026  1.00  0.00    -0.266 N 
HETATM   23  C   UNL     1      -9.219   2.550 -31.061  1.00  0.00     0.263 C 
HETATM   24  O   UNL     1      -9.367   1.598 -31.836  1.00  0.00    -0.269 OA
HETATM   25  H   UNL     1      -8.111   3.188 -29.361  1.00  0.00     0.190 HD
BRANCH  23  26
HETATM   26  C   UNL     1      -9.792   3.967 -31.307  1.00  0.00     0.214 C 
BRANCH  26  27
HETATM   27  N   UNL     1      -8.700   4.904 -31.101  1.00  0.00    -0.319 N 
HETATM   28  C   UNL     1      -8.841   6.023 -30.343  1.00  0.00     0.362 C 
HETATM   29  O   UNL     1      -9.887   6.323 -29.781  1.00  0.00    -0.238 OA
HETATM   30  H   UNL     1      -7.778   4.715 -31.475  1.00  0.00     0.166 HD
BRANCH  28  31
HETATM   31  O   UNL     1      -7.654   6.651 -30.255  1.00  0.00    -0.294 OA
BRANCH  31  32
HETATM   32  C   UNL     1      -6.997   6.874 -28.980  1.00  0.00     0.061 C 
HETATM   33  C   UNL     1      -6.752   5.555 -28.236  1.00  0.00     0.046 C 
HETATM   34  C   UNL     1      -5.636   7.492 -29.338  1.00  0.00     0.046 C 
HETATM   35  C   UNL     1      -7.791   7.870 -28.131  1.00  0.00     0.046 C 
ENDBRANCH  31  32
ENDBRANCH  28  31
ENDBRANCH  26  27
BRANCH  26  36
HETATM   36  C   UNL     1     -10.378   4.154 -32.687  1.00  0.00    -0.026 A 
HETATM   37  C   UNL     1      -9.560   4.602 -33.737  1.00  0.00     0.010 A 
HETATM   38  C   UNL     1     -10.063   4.716 -35.034  1.00  0.00     0.001 A 
HETATM   39  C   UNL     1     -11.387   4.377 -35.303  1.00  0.00     0.000 A 
HETATM   40  C   UNL     1     -12.207   3.917 -34.277  1.00  0.00     0.001 A 
HETATM   41  C   UNL     1     -11.707   3.800 -32.979  1.00  0.00     0.010 A 
ENDBRANCH  26  36
ENDBRANCH  23  26
ENDBRANCH  19  22
BRANCH   1  42
HETATM   42  C   UNL     1      -3.265   0.354 -32.887  1.00  0.00     0.035 C 
HETATM   43  C   UNL     1      -3.929  -0.919 -33.382  1.00  0.00     0.010 C 
ENDBRANCH   1  42
TORSDOF 7
ENDMDL
MODEL 7
REMARK VINA RESULT:      -8.4      2.608      6.470
REMARK  7 active torsions:
REMARK  status: ('A' for Active; 'I' for Inactive)
REMARK    1  A    between atoms: C_2  and  C_3 
REMARK    2  A    between atoms: N_21  and  N_23 
REMARK       I    between atoms: N_23  and  C_24 
REMARK    3  A    between atoms: C_24  and  C_25 
REMARK    4  A    between atoms: C_25  and  N_26 
REMARK    5  A    between atoms: C_25  and  C_34 
REMARK       I    between atoms: N_26  and  C_27 
REMARK    6  A    between atoms: C_27  and  O_28 
REMARK    7  A    between atoms: O_28  and  C_29 
ROOT
HETATM    1  C   UNL     1      -3.541   5.189 -32.520  1.00  0.00    -0.041 C 
HETATM    2  C   UNL     1      -4.985   5.275 -32.247  1.00  0.00     0.005 C 
HETATM    3  C   UNL     1      -5.540   4.357 -31.350  1.00  0.00     0.091 C 
HETATM    4  C   UNL     1      -6.714   4.649 -30.664  1.00  0.00     0.075 C 
HETATM    5  C   UNL     1      -7.369   5.846 -30.950  1.00  0.00     0.079 C 
HETATM    6  C   UNL     1      -7.009   6.601 -32.070  1.00  0.00    -0.024 C 
HETATM    7  C   UNL     1      -7.842   7.776 -32.510  1.00  0.00     0.044 C 
HETATM    8  C   UNL     1      -8.976   8.061 -31.527  1.00  0.00     0.043 C 
HETATM    9  C   UNL     1      -8.537   7.723 -30.092  1.00  0.00     0.068 C 
HETATM   10  C   UNL     1      -7.298   8.560 -29.655  1.00  0.00     0.038 C 
HETATM   11  C   UNL     1      -6.894   8.309 -28.207  1.00  0.00     0.003 C 
HETATM   12  C   UNL     1      -8.048   8.613 -27.266  1.00  0.00     0.000 C 
HETATM   13  C   UNL     1      -9.292   7.815 -27.643  1.00  0.00     0.003 C 
HETATM   14  C   UNL     1      -9.691   8.021 -29.109  1.00  0.00     0.038 C 
HETATM   15  O   UNL     1      -8.291   6.291 -30.037  1.00  0.00    -0.340 OA
HETATM   16  C   UNL     1      -5.789   6.327 -32.697  1.00  0.00     0.024 C 
HETATM   17  O   UNL     1      -4.903   3.125 -31.087  1.00  0.00    -0.292 OA
HETATM   18  C   UNL     1      -3.606   2.981 -31.511  1.00  0.00     0.163 C 
HETATM   19  N   UNL     1      -3.087   1.824 -31.328  1.00  0.00    -0.277 N 
HETATM   20  H   UNL     1      -2.068   1.719 -31.470  1.00  0.00     0.189 HD
HETATM   21  C   UNL     1      -2.880   4.101 -32.100  1.00  0.00     0.065 C 
ENDROOT
BRANCH  19  22
HETATM   22  N   UNL     1      -3.806   0.630 -31.132  1.00  0.00    -0.266 N 
HETATM   23  C   UNL     1      -4.039  -0.068 -32.308  1.00  0.00     0.263 C 
HETATM   24  O   UNL     1      -3.252   0.062 -33.253  1.00  0.00    -0.269 OA
HETATM   25  H   UNL     1      -4.416   0.588 -30.320  1.00  0.00     0.190 HD
BRANCH  23  26
HETATM   26  C   UNL     1      -5.424  -0.752 -32.420  1.00  0.00     0.214 C 
BRANCH  26  27
HETATM   27  N   UNL     1      -6.361   0.267 -32.863  1.00  0.00    -0.319 N 
HETATM   28  C   UNL     1      -7.137   0.963 -31.991  1.00  0.00     0.362 C 
HETATM   29  O   UNL     1      -7.104   0.788 -30.779  1.00  0.00    -0.238 OA
HETATM   30  H   UNL     1      -6.420   0.526 -33.840  1.00  0.00     0.166 HD
BRANCH  28  31
HETATM   31  O   UNL     1      -7.837   1.893 -32.667  1.00  0.00    -0.294 OA
BRANCH  31  32
HETATM   32  C   UNL     1      -9.272   1.784 -32.855  1.00  0.00     0.061 C 
HETATM   33  C   UNL     1     -10.035   2.748 -31.938  1.00  0.00     0.046 C 
HETATM   34  C   UNL     1      -9.513   2.206 -34.313  1.00  0.00     0.046 C 
HETATM   35  C   UNL     1      -9.733   0.336 -32.671  1.00  0.00     0.046 C 
ENDBRANCH  31  32
ENDBRANCH  28  31
ENDBRANCH  26  27
BRANCH  26  36
HETATM   36  C   UNL     1      -5.447  -1.924 -33.373  1.00  0.00    -0.026 A 
HETATM   37  C   UNL     1      -4.345  -2.793 -33.435  1.00  0.00     0.010 A 
HETATM   38  C   UNL     1      -4.373  -3.921 -34.257  1.00  0.00     0.001 A 
HETATM   39  C   UNL     1      -5.502  -4.202 -35.022  1.00  0.00     0.000 A 
HETATM   40  C   UNL     1      -6.608  -3.358 -34.961  1.00  0.00     0.001 A 
HETATM   41  C   UNL     1      -6.585  -2.231 -34.139  1.00  0.00     0.010 A 
ENDBRANCH  26  36
ENDBRANCH  23  26
ENDBRANCH  19  22
BRANCH   1  42
HETATM   42  C   UNL     1      -2.794   6.393 -33.051  1.00  0.00     0.035 C 
HETATM   43  C   UNL     1      -1.664   6.018 -33.993  1.00  0.00     0.010 C 
ENDBRANCH   1  42
TORSDOF 7
ENDMDL
MODEL 8
REMARK VINA RESULT:      -8.1      2.948      9.151
REMARK  7 active torsions:
REMARK  status: ('A' for Active; 'I' for Inactive)
REMARK    1  A    between atoms: C_2  and  C_3 
REMARK    2  A    between atoms: N_21  and  N_23 
REMARK       I    between atoms: N_23  and  C_24 
REMARK    3  A    between atoms: C_24  and  C_25 
REMARK    4  A    between atoms: C_25  and  N_26 
REMARK    5  A    between atoms: C_25  and  C_34 
REMARK       I    between atoms: N_26  and  C_27 
REMARK    6  A    between atoms: C_27  and  O_28 
REMARK    7  A    between atoms: O_28  and  C_29 
ROOT
HETATM    1  C   UNL     1      -4.328   1.601 -31.960  1.00  0.00    -0.041 C 
HETATM    2  C   UNL     1      -3.993   3.030 -32.070  1.00  0.00     0.005 C 
HETATM    3  C   UNL     1      -4.608   3.919 -31.184  1.00  0.00     0.091 C 
HETATM    4  C   UNL     1      -4.018   5.140 -30.873  1.00  0.00     0.075 C 
HETATM    5  C   UNL     1      -2.839   5.492 -31.528  1.00  0.00     0.079 C 
HETATM    6  C   UNL     1      -2.405   4.772 -32.644  1.00  0.00    -0.024 C 
HETATM    7  C   UNL     1      -1.257   5.266 -33.484  1.00  0.00     0.044 C 
HETATM    8  C   UNL     1      -0.614   6.513 -32.881  1.00  0.00     0.043 C 
HETATM    9  C   UNL     1      -0.680   6.457 -31.345  1.00  0.00     0.068 C 
HETATM   10  C   UNL     1       0.061   5.210 -30.780  1.00  0.00     0.038 C 
HETATM   11  C   UNL     1       0.087   5.176 -29.256  1.00  0.00     0.003 C 
HETATM   12  C   UNL     1       0.742   6.430 -28.700  1.00  0.00     0.000 C 
HETATM   13  C   UNL     1       0.052   7.688 -29.218  1.00  0.00     0.003 C 
HETATM   14  C   UNL     1      -0.022   7.721 -30.748  1.00  0.00     0.038 C 
HETATM   15  O   UNL     1      -2.084   6.492 -30.968  1.00  0.00    -0.340 OA
HETATM   16  C   UNL     1      -2.970   3.516 -32.891  1.00  0.00     0.024 C 
HETATM   17  O   UNL     1      -5.823   3.586 -30.549  1.00  0.00    -0.292 OA
HETATM   18  C   UNL     1      -6.229   2.276 -30.607  1.00  0.00     0.163 C 
HETATM   19  N   UNL     1      -7.374   2.025 -30.092  1.00  0.00    -0.277 N 
HETATM   20  H   UNL     1      -7.642   1.035 -29.957  1.00  0.00     0.189 HD
HETATM   21  C   UNL     1      -5.373   1.251 -31.196  1.00  0.00     0.065 C 
ENDROOT
BRANCH  19  22
HETATM   22  N   UNL     1      -8.389   2.973 -29.861  1.00  0.00    -0.266 N 
HETATM   23  C   UNL     1      -9.337   3.016 -30.873  1.00  0.00     0.263 C 
HETATM   24  O   UNL     1      -9.545   2.002 -31.549  1.00  0.00    -0.269 OA
HETATM   25  H   UNL     1      -8.151   3.769 -29.275  1.00  0.00     0.190 HD
BRANCH  23  26
HETATM   26  C   UNL     1      -9.868   4.425 -31.235  1.00  0.00     0.214 C 
BRANCH  26  27
HETATM   27  N   UNL     1     -11.070   4.638 -30.447  1.00  0.00    -0.319 N 
HETATM   28  C   UNL     1     -12.314   4.564 -30.990  1.00  0.00     0.362 C 
HETATM   29  O   UNL     1     -12.513   4.314 -32.172  1.00  0.00    -0.238 OA
HETATM   30  H   UNL     1     -11.014   4.793 -29.447  1.00  0.00     0.166 HD
BRANCH  28  31
HETATM   31  O   UNL     1     -13.232   4.715 -30.018  1.00  0.00    -0.294 OA
BRANCH  31  32
HETATM   32  C   UNL     1     -14.074   5.894 -29.936  1.00  0.00     0.061 C 
HETATM   33  C   UNL     1     -15.373   5.715 -30.733  1.00  0.00     0.046 C 
HETATM   34  C   UNL     1     -14.431   6.024 -28.447  1.00  0.00     0.046 C 
HETATM   35  C   UNL     1     -13.302   7.141 -30.376  1.00  0.00     0.046 C 
ENDBRANCH  31  32
ENDBRANCH  28  31
ENDBRANCH  26  27
BRANCH  26  36
HETATM   36  C   UNL     1      -8.876   5.534 -30.972  1.00  0.00    -0.026 A 
HETATM   37  C   UNL     1      -8.799   6.111 -29.694  1.00  0.00     0.010 A 
HETATM   38  C   UNL     1      -7.843   7.088 -29.410  1.00  0.00     0.001 A 
HETATM   39  C   UNL     1      -6.947   7.498 -30.394  1.00  0.00     0.000 A 
HETATM   40  C   UNL     1      -7.001   6.926 -31.662  1.00  0.00     0.001 A 
HETATM   41  C   UNL     1      -7.953   5.947 -31.949  1.00  0.00     0.010 A 
ENDBRANCH  26  36
ENDBRANCH  23  26
ENDBRANCH  19  22
BRANCH   1  42
HETATM   42  C   UNL     1      -3.382   0.553 -32.503  1.00  0.00     0.035 C 
HETATM   43  C   UNL     1      -4.103  -0.641 -33.104  1.00  0.00     0.010 C 
ENDBRANCH   1  42
TORSDOF 7
ENDMDL
MODEL 9
REMARK VINA RESULT:      -8.0      2.942      9.275
REMARK  7 active torsions:
REMARK  status: ('A' for Active; 'I' for Inactive)
REMARK    1  A    between atoms: C_2  and  C_3 
REMARK    2  A    between atoms: N_21  and  N_23 
REMARK       I    between atoms: N_23  and  C_24 
REMARK    3  A    between atoms: C_24  and  C_25 
REMARK    4  A    between atoms: C_25  and  N_26 
REMARK    5  A    between atoms: C_25  and  C_34 
REMARK       I    between atoms: N_26  and  C_27 
REMARK    6  A    between atoms: C_27  and  O_28 
REMARK    7  A    between atoms: O_28  and  C_29 
ROOT
HETATM    1  C   UNL     1      -6.423   2.186 -31.393  1.00  0.00    -0.041 C 
HETATM    2  C   UNL     1      -5.768   3.239 -32.187  1.00  0.00     0.005 C 
HETATM    3  C   UNL     1      -6.432   4.461 -32.332  1.00  0.00     0.091 C 
HETATM    4  C   UNL     1      -5.727   5.629 -32.605  1.00  0.00     0.075 C 
HETATM    5  C   UNL     1      -4.351   5.539 -32.811  1.00  0.00     0.079 C 
HETATM    6  C   UNL     1      -3.742   4.296 -32.999  1.00  0.00    -0.024 C 
HETATM    7  C   UNL     1      -2.303   4.199 -33.433  1.00  0.00     0.044 C 
HETATM    8  C   UNL     1      -1.640   5.574 -33.495  1.00  0.00     0.043 C 
HETATM    9  C   UNL     1      -2.219   6.495 -32.408  1.00  0.00     0.068 C 
HETATM   10  C   UNL     1      -1.995   5.915 -30.979  1.00  0.00     0.038 C 
HETATM   11  C   UNL     1      -2.481   6.849 -29.877  1.00  0.00     0.003 C 
HETATM   12  C   UNL     1      -1.790   8.200 -29.973  1.00  0.00     0.000 C 
HETATM   13  C   UNL     1      -1.980   8.821 -31.353  1.00  0.00     0.003 C 
HETATM   14  C   UNL     1      -1.536   7.879 -32.478  1.00  0.00     0.038 C 
HETATM   15  O   UNL     1      -3.625   6.699 -32.714  1.00  0.00    -0.340 OA
HETATM   16  C   UNL     1      -4.452   3.143 -32.650  1.00  0.00     0.024 C 
HETATM   17  O   UNL     1      -7.831   4.551 -32.164  1.00  0.00    -0.292 OA
HETATM   18  C   UNL     1      -8.468   3.481 -31.588  1.00  0.00     0.163 C 
HETATM   19  N   UNL     1      -9.745   3.562 -31.526  1.00  0.00    -0.277 N 
HETATM   20  H   UNL     1     -10.251   2.868 -30.950  1.00  0.00     0.189 HD
HETATM   21  C   UNL     1      -7.711   2.352 -31.059  1.00  0.00     0.065 C 
ENDROOT
BRANCH  19  22
HETATM   22  N   UNL     1     -10.547   4.399 -32.324  1.00  0.00    -0.266 N 
HETATM   23  C   UNL     1     -11.868   4.455 -31.903  1.00  0.00     0.263 C 
HETATM   24  O   UNL     1     -12.131   4.256 -30.712  1.00  0.00    -0.269 OA
HETATM   25  H   UNL     1     -10.256   4.534 -33.288  1.00  0.00     0.190 HD
BRANCH  23  26
HETATM   26  C   UNL     1     -12.930   4.503 -33.030  1.00  0.00     0.214 C 
BRANCH  26  27
HETATM   27  N   UNL     1     -12.308   5.160 -34.167  1.00  0.00    -0.319 N 
HETATM   28  C   UNL     1     -12.952   6.112 -34.892  1.00  0.00     0.362 C 
HETATM   29  O   UNL     1     -14.091   6.485 -34.645  1.00  0.00    -0.238 OA
HETATM   30  H   UNL     1     -11.346   4.964 -34.416  1.00  0.00     0.166 HD
BRANCH  28  31
HETATM   31  O   UNL     1     -12.111   6.605 -35.821  1.00  0.00    -0.294 OA
BRANCH  31  32
HETATM   32  C   UNL     1     -11.680   7.991 -35.805  1.00  0.00     0.061 C 
HETATM   33  C   UNL     1     -11.257   8.433 -34.399  1.00  0.00     0.046 C 
HETATM   34  C   UNL     1     -10.446   8.033 -36.721  1.00  0.00     0.046 C 
HETATM   35  C   UNL     1     -12.765   8.900 -36.387  1.00  0.00     0.046 C 
ENDBRANCH  31  32
ENDBRANCH  28  31
ENDBRANCH  26  27
BRANCH  26  36
HETATM   36  C   UNL     1     -13.444   3.141 -33.439  1.00  0.00    -0.026 A 
HETATM   37  C   UNL     1     -12.756   2.401 -34.414  1.00  0.00     0.010 A 
HETATM   38  C   UNL     1     -13.172   1.114 -34.757  1.00  0.00     0.001 A 
HETATM   39  C   UNL     1     -14.276   0.544 -34.127  1.00  0.00     0.000 A 
HETATM   40  C   UNL     1     -14.960   1.259 -33.148  1.00  0.00     0.001 A 
HETATM   41  C   UNL     1     -14.545   2.545 -32.800  1.00  0.00     0.010 A 
ENDBRANCH  26  36
ENDBRANCH  23  26
ENDBRANCH  19  22
BRANCH   1  42
HETATM   42  C   UNL     1      -5.602   1.072 -30.783  1.00  0.00     0.035 C 
HETATM   43  C   UNL     1      -5.972  -0.299 -31.324  1.00  0.00     0.010 C 
ENDBRANCH   1  42
TORSDOF 7
ENDMDL
MODEL 10
REMARK VINA RESULT:      -8.0      2.652      4.985
REMARK  7 active torsions:
REMARK  status: ('A' for Active; 'I' for Inactive)
REMARK    1  A    between atoms: C_2  and  C_3 
REMARK    2  A    between atoms: N_21  and  N_23 
REMARK       I    between atoms: N_23  and  C_24 
REMARK    3  A    between atoms: C_24  and  C_25 
REMARK    4  A    between atoms: C_25  and  N_26 
REMARK    5  A    between atoms: C_25  and  C_34 
REMARK       I    between atoms: N_26  and  C_27 
REMARK    6  A    between atoms: C_27  and  O_28 
REMARK    7  A    between atoms: O_28  and  C_29 
ROOT
HETATM    1  C   UNL     1      -8.053   5.433 -29.462  1.00  0.00    -0.041 C 
HETATM    2  C   UNL     1      -9.189   5.673 -30.367  1.00  0.00     0.005 C 
HETATM    3  C   UNL     1      -9.932   4.569 -30.795  1.00  0.00     0.091 C 
HETATM    4  C   UNL     1     -11.254   4.714 -31.206  1.00  0.00     0.075 C 
HETATM    5  C   UNL     1     -11.794   5.998 -31.259  1.00  0.00     0.079 C 
HETATM    6  C   UNL     1     -10.968   7.120 -31.158  1.00  0.00    -0.024 C 
HETATM    7  C   UNL     1     -11.505   8.501 -31.426  1.00  0.00     0.044 C 
HETATM    8  C   UNL     1     -13.012   8.482 -31.672  1.00  0.00     0.043 C 
HETATM    9  C   UNL     1     -13.675   7.377 -30.831  1.00  0.00     0.068 C 
HETATM   10  C   UNL     1     -13.438   7.590 -29.307  1.00  0.00     0.038 C 
HETATM   11  C   UNL     1     -14.158   6.559 -28.445  1.00  0.00     0.003 C 
HETATM   12  C   UNL     1     -15.654   6.581 -28.717  1.00  0.00     0.000 C 
HETATM   13  C   UNL     1     -15.948   6.371 -30.199  1.00  0.00     0.003 C 
HETATM   14  C   UNL     1     -15.199   7.372 -31.086  1.00  0.00     0.038 C 
HETATM   15  O   UNL     1     -13.161   6.102 -31.304  1.00  0.00    -0.340 OA
HETATM   16  C   UNL     1      -9.665   6.951 -30.676  1.00  0.00     0.024 C 
HETATM   17  O   UNL     1      -9.377   3.272 -30.783  1.00  0.00    -0.292 OA
HETATM   18  C   UNL     1      -8.209   3.091 -30.086  1.00  0.00     0.163 C 
HETATM   19  N   UNL     1      -7.690   1.922 -30.164  1.00  0.00    -0.277 N 
HETATM   20  H   UNL     1      -6.912   1.690 -29.523  1.00  0.00     0.189 HD
HETATM   21  C   UNL     1      -7.635   4.171 -29.290  1.00  0.00     0.065 C 
ENDROOT
BRANCH  19  22
HETATM   22  N   UNL     1      -7.956   0.979 -31.174  1.00  0.00    -0.266 N 
HETATM   23  C   UNL     1      -6.808   0.482 -31.775  1.00  0.00     0.263 C 
HETATM   24  O   UNL     1      -5.753   0.456 -31.131  1.00  0.00    -0.269 OA
HETATM   25  H   UNL     1      -8.854   1.049 -31.644  1.00  0.00     0.190 HD
BRANCH  23  26
HETATM   26  C   UNL     1      -6.898   0.246 -33.303  1.00  0.00     0.214 C 
BRANCH  26  27
HETATM   27  N   UNL     1      -6.188   1.342 -33.940  1.00  0.00    -0.319 N 
HETATM   28  C   UNL     1      -6.724   2.586 -34.048  1.00  0.00     0.362 C 
HETATM   29  O   UNL     1      -7.834   2.875 -33.618  1.00  0.00    -0.238 OA
HETATM   30  H   UNL     1      -5.240   1.219 -34.276  1.00  0.00     0.166 HD
BRANCH  28  31
HETATM   31  O   UNL     1      -5.816   3.413 -34.599  1.00  0.00    -0.294 OA
BRANCH  31  32
HETATM   32  C   UNL     1      -5.157   4.450 -33.826  1.00  0.00     0.061 C 
HETATM   33  C   UNL     1      -4.347   3.859 -32.666  1.00  0.00     0.046 C 
HETATM   34  C   UNL     1      -4.182   5.118 -34.810  1.00  0.00     0.046 C 
HETATM   35  C   UNL     1      -6.171   5.490 -33.343  1.00  0.00     0.046 C 
ENDBRANCH  31  32
ENDBRANCH  28  31
ENDBRANCH  26  27
BRANCH  26  36
HETATM   36  C   UNL     1      -6.317  -1.076 -33.749  1.00  0.00    -0.026 A 
HETATM   37  C   UNL     1      -7.167  -2.082 -34.235  1.00  0.00     0.010 A 
HETATM   38  C   UNL     1      -6.646  -3.284 -34.717  1.00  0.00     0.001 A 
HETATM   39  C   UNL     1      -5.269  -3.496 -34.726  1.00  0.00     0.000 A 
HETATM   40  C   UNL     1      -4.412  -2.503 -34.261  1.00  0.00     0.001 A 
HETATM   41  C   UNL     1      -4.929  -1.299 -33.781  1.00  0.00     0.010 A 
ENDBRANCH  26  36
ENDBRANCH  23  26
ENDBRANCH  19  22
BRANCH   1  42
HETATM   42  C   UNL     1      -7.531   6.548 -28.583  1.00  0.00     0.035 C 
HETATM   43  C   UNL     1      -6.110   6.306 -28.103  1.00  0.00     0.010 C 
ENDBRANCH   1  42
TORSDOF 7
ENDMDL
