MODEL 1
REMARK VINA RESULT:      -9.3      0.000      0.000
REMARK  3 active torsions:
REMARK  status: ('A' for Active; 'I' for Inactive)
REMARK    1  A    between atoms: C_10  and  N_11 
REMARK       I    between atoms: N_11  and  C_12 
REMARK    2  A    between atoms: C_12  and  C_13 
REMARK    3  A    between atoms: C_18  and  N_19 
ROOT
HETATM    1  N   UNL     1      -7.888   1.442 -33.576  1.00  0.00    -0.323 N 
HETATM    2  C   UNL     1      -7.355   1.039 -32.369  1.00  0.00     0.258 C 
HETATM    3  O   UNL     1      -7.940   0.934 -31.297  1.00  0.00    -0.267 OA
HETATM    4  H   UNL     1      -7.257   1.468 -34.368  1.00  0.00     0.169 HD
ENDROOT
BRANCH   2   5
HETATM    5  C   UNL     1      -5.939   0.590 -32.428  1.00  0.00     0.056 A 
HETATM    6  C   UNL     1      -4.840   1.425 -32.218  1.00  0.00     0.050 A 
HETATM    7 CL   UNL     1      -4.982   3.085 -31.767  1.00  0.00    -0.083 Cl
HETATM    8  C   UNL     1      -3.554   0.906 -32.364  1.00  0.00     0.027 A 
HETATM    9  C   UNL     1      -3.364  -0.435 -32.722  1.00  0.00     0.031 A 
HETATM   10  C   UNL     1      -4.449  -1.294 -32.931  1.00  0.00     0.038 A 
HETATM   11  C   UNL     1      -5.736  -0.764 -32.758  1.00  0.00     0.048 A 
BRANCH  10  12
HETATM   12  N   UNL     1      -4.271  -2.649 -33.322  1.00  0.00    -0.318 N 
HETATM   13  C   UNL     1      -3.461  -3.599 -32.678  1.00  0.00     0.224 C 
HETATM   14  O   UNL     1      -2.807  -3.490 -31.653  1.00  0.00    -0.273 OA
HETATM   15  C   UNL     1      -3.434  -4.840 -33.539  1.00  0.00     0.105 C 
HETATM   16  C   UNL     1      -4.653  -4.676 -34.424  1.00  0.00     0.029 C 
HETATM   17  C   UNL     1      -4.782  -3.174 -34.568  1.00  0.00     0.133 C 
ENDBRANCH  10  12
ENDBRANCH   2   5
BRANCH   1  18
HETATM   18  C   UNL     1      -9.225   1.789 -33.861  1.00  0.00     0.035 A 
HETATM   19  C   UNL     1      -9.633   3.062 -34.259  1.00  0.00     0.032 A 
HETATM   20  C   UNL     1     -10.983   3.360 -34.493  1.00  0.00     0.033 A 
HETATM   21  C   UNL     1     -11.916   2.336 -34.305  1.00  0.00     0.042 A 
HETATM   22  N   UNL     1     -13.286   2.341 -34.440  1.00  0.00    -0.359 N 
HETATM   23  C   UNL     1     -11.548   1.051 -33.919  1.00  0.00    -0.005 A 
HETATM   24  C   UNL     1     -13.804   1.105 -34.136  1.00  0.00     0.006 A 
HETATM   25  H   UNL     1     -13.828   3.150 -34.710  1.00  0.00     0.166 HD
HETATM   26  C   UNL     1     -15.259   0.824 -34.169  1.00  0.00     0.068 C 
HETATM   27  C   UNL     1     -12.740   0.283 -33.822  1.00  0.00     0.038 A 
HETATM   28  C   UNL     1     -10.183   0.773 -33.704  1.00  0.00     0.043 A 
ENDBRANCH   1  18
TORSDOF 3
ENDMDL
MODEL 2
REMARK VINA RESULT:      -8.9      3.867      7.399
REMARK  3 active torsions:
REMARK  status: ('A' for Active; 'I' for Inactive)
REMARK    1  A    between atoms: C_10  and  N_11 
REMARK       I    between atoms: N_11  and  C_12 
REMARK    2  A    between atoms: C_12  and  C_13 
REMARK    3  A    between atoms: C_18  and  N_19 
ROOT
HETATM    1  N   UNL     1      -4.582   2.613 -32.784  1.00  0.00    -0.323 N 
HETATM    2  C   UNL     1      -5.339   1.586 -32.258  1.00  0.00     0.258 C 
HETATM    3  O   UNL     1      -5.658   1.424 -31.085  1.00  0.00    -0.267 OA
HETATM    4  H   UNL     1      -4.417   2.592 -33.784  1.00  0.00     0.169 HD
ENDROOT
BRANCH   2   5
HETATM    5  C   UNL     1      -5.902   0.644 -33.261  1.00  0.00     0.056 A 
HETATM    6  C   UNL     1      -7.000   0.927 -34.076  1.00  0.00     0.050 A 
HETATM    7 CL   UNL     1      -7.800   2.456 -34.094  1.00  0.00    -0.083 Cl
HETATM    8  C   UNL     1      -7.480  -0.061 -34.935  1.00  0.00     0.027 A 
HETATM    9  C   UNL     1      -6.875  -1.324 -34.978  1.00  0.00     0.031 A 
HETATM   10  C   UNL     1      -5.770  -1.629 -34.176  1.00  0.00     0.038 A 
HETATM   11  C   UNL     1      -5.283  -0.619 -33.334  1.00  0.00     0.048 A 
BRANCH  10  12
HETATM   12  N   UNL     1      -5.163  -2.915 -34.190  1.00  0.00    -0.318 N 
HETATM   13  C   UNL     1      -5.716  -4.088 -34.729  1.00  0.00     0.224 C 
HETATM   14  O   UNL     1      -6.768  -4.241 -35.331  1.00  0.00    -0.273 OA
HETATM   15  C   UNL     1      -4.810  -5.238 -34.358  1.00  0.00     0.105 C 
HETATM   16  C   UNL     1      -3.503  -4.552 -34.012  1.00  0.00     0.029 C 
HETATM   17  C   UNL     1      -3.944  -3.209 -33.470  1.00  0.00     0.133 C 
ENDBRANCH  10  12
ENDBRANCH   2   5
BRANCH   1  18
HETATM   18  C   UNL     1      -4.035   3.722 -32.106  1.00  0.00     0.035 A 
HETATM   19  C   UNL     1      -4.789   4.794 -31.629  1.00  0.00     0.032 A 
HETATM   20  C   UNL     1      -4.185   5.890 -30.995  1.00  0.00     0.033 A 
HETATM   21  C   UNL     1      -2.794   5.878 -30.862  1.00  0.00     0.042 A 
HETATM   22  N   UNL     1      -1.942   6.808 -30.310  1.00  0.00    -0.359 N 
HETATM   23  C   UNL     1      -2.009   4.823 -31.316  1.00  0.00    -0.005 A 
HETATM   24  C   UNL     1      -0.639   6.386 -30.412  1.00  0.00     0.006 A 
HETATM   25  H   UNL     1      -2.242   7.683 -29.902  1.00  0.00     0.166 HD
HETATM   26  C   UNL     1       0.500   7.201 -29.923  1.00  0.00     0.068 C 
HETATM   27  C   UNL     1      -0.657   5.148 -31.022  1.00  0.00     0.038 A 
HETATM   28  C   UNL     1      -2.640   3.727 -31.938  1.00  0.00     0.043 A 
ENDBRANCH   1  18
TORSDOF 3
ENDMDL
MODEL 3
REMARK VINA RESULT:      -8.8      4.581      7.950
REMARK  3 active torsions:
REMARK  status: ('A' for Active; 'I' for Inactive)
REMARK    1  A    between atoms: C_10  and  N_11 
REMARK       I    between atoms: N_11  and  C_12 
REMARK    2  A    between atoms: C_12  and  C_13 
REMARK    3  A    between atoms: C_18  and  N_19 
ROOT
HETATM    1  N   UNL     1      -4.636   2.126 -32.571  1.00  0.00    -0.323 N 
HETATM    2  C   UNL     1      -5.105   2.752 -31.434  1.00  0.00     0.258 C 
HETATM    3  O   UNL     1      -5.609   2.224 -30.450  1.00  0.00    -0.267 OA
HETATM    4  H   UNL     1      -4.244   2.721 -33.291  1.00  0.00     0.169 HD
ENDROOT
BRANCH   2   5
HETATM    5  C   UNL     1      -4.865   4.219 -31.383  1.00  0.00     0.056 A 
HETATM    6  C   UNL     1      -5.851   5.185 -31.589  1.00  0.00     0.050 A 
HETATM    7 CL   UNL     1      -7.515   4.803 -31.842  1.00  0.00    -0.083 Cl
HETATM    8  C   UNL     1      -5.494   6.533 -31.580  1.00  0.00     0.027 A 
HETATM    9  C   UNL     1      -4.163   6.916 -31.374  1.00  0.00     0.031 A 
HETATM   10  C   UNL     1      -3.157   5.967 -31.158  1.00  0.00     0.038 A 
HETATM   11  C   UNL     1      -3.534   4.617 -31.146  1.00  0.00     0.048 A 
BRANCH  10  12
HETATM   12  N   UNL     1      -1.798   6.340 -30.975  1.00  0.00    -0.318 N 
HETATM   13  C   UNL     1      -0.841   6.515 -31.989  1.00  0.00     0.224 C 
HETATM   14  O   UNL     1      -0.978   6.445 -33.200  1.00  0.00    -0.273 OA
HETATM   15  C   UNL     1       0.499   6.729 -31.326  1.00  0.00     0.105 C 
HETATM   16  C   UNL     1       0.128   7.140 -29.915  1.00  0.00     0.029 C 
HETATM   17  C   UNL     1      -1.178   6.414 -29.671  1.00  0.00     0.133 C 
ENDBRANCH  10  12
ENDBRANCH   2   5
BRANCH   1  18
HETATM   18  C   UNL     1      -4.597   0.743 -32.845  1.00  0.00     0.035 A 
HETATM   19  C   UNL     1      -3.550  -0.098 -32.469  1.00  0.00     0.032 A 
HETATM   20  C   UNL     1      -3.548  -1.460 -32.802  1.00  0.00     0.033 A 
HETATM   21  C   UNL     1      -4.631  -1.952 -33.536  1.00  0.00     0.042 A 
HETATM   22  N   UNL     1      -4.885  -3.218 -34.012  1.00  0.00    -0.359 N 
HETATM   23  C   UNL     1      -5.698  -1.147 -33.921  1.00  0.00    -0.005 A 
HETATM   24  C   UNL     1      -6.073  -3.242 -34.702  1.00  0.00     0.006 A 
HETATM   25  H   UNL     1      -4.271  -4.009 -33.880  1.00  0.00     0.166 HD
HETATM   26  C   UNL     1      -6.589  -4.472 -35.350  1.00  0.00     0.068 C 
HETATM   27  C   UNL     1      -6.603  -1.968 -34.648  1.00  0.00     0.038 A 
HETATM   28  C   UNL     1      -5.685   0.216 -33.562  1.00  0.00     0.043 A 
ENDBRANCH   1  18
TORSDOF 3
ENDMDL
MODEL 4
REMARK VINA RESULT:      -8.8      4.553      7.798
REMARK  3 active torsions:
REMARK  status: ('A' for Active; 'I' for Inactive)
REMARK    1  A    between atoms: C_10  and  N_11 
REMARK       I    between atoms: N_11  and  C_12 
REMARK    2  A    between atoms: C_12  and  C_13 
REMARK    3  A    between atoms: C_18  and  N_19 
ROOT
HETATM    1  N   UNL     1      -4.850   1.718 -32.200  1.00  0.00    -0.323 N 
HETATM    2  C   UNL     1      -5.245   2.169 -30.958  1.00  0.00     0.258 C 
HETATM    3  O   UNL     1      -5.611   1.492 -30.004  1.00  0.00    -0.267 OA
HETATM    4  H   UNL     1      -4.573   2.422 -32.874  1.00  0.00     0.169 HD
ENDROOT
BRANCH   2   5
HETATM    5  C   UNL     1      -5.101   3.634 -30.747  1.00  0.00     0.056 A 
HETATM    6  C   UNL     1      -6.068   4.440 -30.145  1.00  0.00     0.050 A 
HETATM    7 CL   UNL     1      -7.534   3.824 -29.474  1.00  0.00    -0.083 Cl
HETATM    8  C   UNL     1      -5.850   5.815 -30.061  1.00  0.00     0.027 A 
HETATM    9  C   UNL     1      -4.679   6.383 -30.579  1.00  0.00     0.031 A 
HETATM   10  C   UNL     1      -3.692   5.595 -31.180  1.00  0.00     0.038 A 
HETATM   11  C   UNL     1      -3.914   4.212 -31.237  1.00  0.00     0.048 A 
BRANCH  10  12
HETATM   12  N   UNL     1      -2.512   6.162 -31.735  1.00  0.00    -0.318 N 
HETATM   13  C   UNL     1      -2.346   6.607 -33.056  1.00  0.00     0.224 C 
HETATM   14  O   UNL     1      -3.163   6.656 -33.963  1.00  0.00    -0.273 OA
HETATM   15  C   UNL     1      -0.889   6.959 -33.245  1.00  0.00     0.105 C 
HETATM   16  C   UNL     1      -0.388   7.138 -31.826  1.00  0.00     0.029 C 
HETATM   17  C   UNL     1      -1.251   6.185 -31.027  1.00  0.00     0.133 C 
ENDBRANCH  10  12
ENDBRANCH   2   5
BRANCH   1  18
HETATM   18  C   UNL     1      -4.744   0.384 -32.646  1.00  0.00     0.035 A 
HETATM   19  C   UNL     1      -3.617  -0.414 -32.457  1.00  0.00     0.032 A 
HETATM   20  C   UNL     1      -3.554  -1.724 -32.956  1.00  0.00     0.033 A 
HETATM   21  C   UNL     1      -4.661  -2.205 -33.659  1.00  0.00     0.042 A 
HETATM   22  N   UNL     1      -4.873  -3.422 -34.267  1.00  0.00    -0.359 N 
HETATM   23  C   UNL     1      -5.808  -1.443 -33.859  1.00  0.00    -0.005 A 
HETATM   24  C   UNL     1      -6.111  -3.454 -34.861  1.00  0.00     0.006 A 
HETATM   25  H   UNL     1      -4.199  -4.175 -34.281  1.00  0.00     0.166 HD
HETATM   26  C   UNL     1      -6.600  -4.634 -35.614  1.00  0.00     0.068 C 
HETATM   27  C   UNL     1      -6.716  -2.239 -34.609  1.00  0.00     0.038 A 
HETATM   28  C   UNL     1      -5.853  -0.135 -33.336  1.00  0.00     0.043 A 
ENDBRANCH   1  18
TORSDOF 3
ENDMDL
MODEL 5
REMARK VINA RESULT:      -8.6      4.014      7.828
REMARK  3 active torsions:
REMARK  status: ('A' for Active; 'I' for Inactive)
REMARK    1  A    between atoms: C_10  and  N_11 
REMARK       I    between atoms: N_11  and  C_12 
REMARK    2  A    between atoms: C_12  and  C_13 
REMARK    3  A    between atoms: C_18  and  N_19 
ROOT
HETATM    1  N   UNL     1      -6.245   2.034 -33.481  1.00  0.00    -0.323 N 
HETATM    2  C   UNL     1      -6.523   2.537 -32.228  1.00  0.00     0.258 C 
HETATM    3  O   UNL     1      -6.783   1.901 -31.213  1.00  0.00    -0.267 OA
HETATM    4  H   UNL     1      -6.047   2.709 -34.211  1.00  0.00     0.169 HD
ENDROOT
BRANCH   2   5
HETATM    5  C   UNL     1      -6.385   4.012 -32.099  1.00  0.00     0.056 A 
HETATM    6  C   UNL     1      -7.422   4.871 -31.732  1.00  0.00     0.050 A 
HETATM    7 CL   UNL     1      -8.996   4.320 -31.284  1.00  0.00    -0.083 Cl
HETATM    8  C   UNL     1      -7.191   6.245 -31.708  1.00  0.00     0.027 A 
HETATM    9  C   UNL     1      -5.936   6.762 -32.053  1.00  0.00     0.031 A 
HETATM   10  C   UNL     1      -4.877   5.922 -32.418  1.00  0.00     0.038 A 
HETATM   11  C   UNL     1      -5.117   4.541 -32.415  1.00  0.00     0.048 A 
BRANCH  10  12
HETATM   12  N   UNL     1      -3.607   6.435 -32.798  1.00  0.00    -0.318 N 
HETATM   13  C   UNL     1      -3.010   6.321 -34.064  1.00  0.00     0.224 C 
HETATM   14  O   UNL     1      -3.459   5.830 -35.088  1.00  0.00    -0.273 OA
HETATM   15  C   UNL     1      -1.598   6.848 -33.957  1.00  0.00     0.105 C 
HETATM   16  C   UNL     1      -1.636   7.690 -32.698  1.00  0.00     0.029 C 
HETATM   17  C   UNL     1      -2.677   6.997 -31.844  1.00  0.00     0.133 C 
ENDBRANCH  10  12
ENDBRANCH   2   5
BRANCH   1  18
HETATM   18  C   UNL     1      -6.160   0.682 -33.874  1.00  0.00     0.035 A 
HETATM   19  C   UNL     1      -7.110   0.039 -34.667  1.00  0.00     0.032 A 
HETATM   20  C   UNL     1      -6.993  -1.320 -34.995  1.00  0.00     0.033 A 
HETATM   21  C   UNL     1      -5.891  -2.017 -34.492  1.00  0.00     0.042 A 
HETATM   22  N   UNL     1      -5.531  -3.338 -34.632  1.00  0.00    -0.359 N 
HETATM   23  C   UNL     1      -4.917  -1.408 -33.706  1.00  0.00    -0.005 A 
HETATM   24  C   UNL     1      -4.368  -3.595 -33.946  1.00  0.00     0.006 A 
HETATM   25  H   UNL     1      -6.063  -4.020 -35.155  1.00  0.00     0.166 HD
HETATM   26  C   UNL     1      -3.757  -4.945 -33.898  1.00  0.00     0.068 C 
HETATM   27  C   UNL     1      -3.961  -2.406 -33.374  1.00  0.00     0.038 A 
HETATM   28  C   UNL     1      -5.050  -0.038 -33.402  1.00  0.00     0.043 A 
ENDBRANCH   1  18
TORSDOF 3
ENDMDL
MODEL 6
REMARK VINA RESULT:      -8.4      4.153      7.584
REMARK  3 active torsions:
REMARK  status: ('A' for Active; 'I' for Inactive)
REMARK    1  A    between atoms: C_10  and  N_11 
REMARK       I    between atoms: N_11  and  C_12 
REMARK    2  A    between atoms: C_12  and  C_13 
REMARK    3  A    between atoms: C_18  and  N_19 
ROOT
HETATM    1  N   UNL     1      -5.686   2.233 -33.198  1.00  0.00    -0.323 N 
HETATM    2  C   UNL     1      -5.728   2.651 -31.884  1.00  0.00     0.258 C 
HETATM    3  O   UNL     1      -5.997   1.975 -30.898  1.00  0.00    -0.267 OA
HETATM    4  H   UNL     1      -5.440   2.930 -33.891  1.00  0.00     0.169 HD
ENDROOT
BRANCH   2   5
HETATM    5  C   UNL     1      -5.294   4.056 -31.659  1.00  0.00     0.056 A 
HETATM    6  C   UNL     1      -6.144   5.161 -31.725  1.00  0.00     0.050 A 
HETATM    7 CL   UNL     1      -7.845   5.037 -31.987  1.00  0.00    -0.083 Cl
HETATM    8  C   UNL     1      -5.611   6.439 -31.560  1.00  0.00     0.027 A 
HETATM    9  C   UNL     1      -4.239   6.615 -31.337  1.00  0.00     0.031 A 
HETATM   10  C   UNL     1      -3.368   5.522 -31.259  1.00  0.00     0.038 A 
HETATM   11  C   UNL     1      -3.921   4.242 -31.404  1.00  0.00     0.048 A 
BRANCH  10  12
HETATM   12  N   UNL     1      -1.970   5.688 -31.061  1.00  0.00    -0.318 N 
HETATM   13  C   UNL     1      -1.358   6.396 -30.014  1.00  0.00     0.224 C 
HETATM   14  O   UNL     1      -1.869   6.951 -29.054  1.00  0.00    -0.273 OA
HETATM   15  C   UNL     1       0.123   6.461 -30.306  1.00  0.00     0.105 C 
HETATM   16  C   UNL     1       0.330   5.341 -31.305  1.00  0.00     0.029 C 
HETATM   17  C   UNL     1      -0.990   5.281 -32.043  1.00  0.00     0.133 C 
ENDBRANCH  10  12
ENDBRANCH   2   5
BRANCH   1  18
HETATM   18  C   UNL     1      -5.906   0.934 -33.702  1.00  0.00     0.035 A 
HETATM   19  C   UNL     1      -7.026   0.566 -34.447  1.00  0.00     0.032 A 
HETATM   20  C   UNL     1      -7.210  -0.751 -34.891  1.00  0.00     0.033 A 
HETATM   21  C   UNL     1      -6.234  -1.693 -34.555  1.00  0.00     0.042 A 
HETATM   22  N   UNL     1      -6.159  -3.039 -34.832  1.00  0.00    -0.359 N 
HETATM   23  C   UNL     1      -5.099  -1.362 -33.822  1.00  0.00    -0.005 A 
HETATM   24  C   UNL     1      -5.020  -3.580 -34.286  1.00  0.00     0.006 A 
HETATM   25  H   UNL     1      -6.857  -3.552 -35.353  1.00  0.00     0.166 HD
HETATM   26  C   UNL     1      -4.691  -5.021 -34.403  1.00  0.00     0.068 C 
HETATM   27  C   UNL     1      -4.339  -2.553 -33.664  1.00  0.00     0.038 A 
HETATM   28  C   UNL     1      -4.929  -0.029 -33.399  1.00  0.00     0.043 A 
ENDBRANCH   1  18
TORSDOF 3
ENDMDL
MODEL 7
REMARK VINA RESULT:      -8.4     13.940     16.120
REMARK  3 active torsions:
REMARK  status: ('A' for Active; 'I' for Inactive)
REMARK    1  A    between atoms: C_10  and  N_11 
REMARK       I    between atoms: N_11  and  C_12 
REMARK    2  A    between atoms: C_12  and  C_13 
REMARK    3  A    between atoms: C_18  and  N_19 
ROOT
HETATM    1  N   UNL     1      -6.144 -13.337 -35.862  1.00  0.00    -0.323 N 
HETATM    2  C   UNL     1      -5.245 -13.569 -36.883  1.00  0.00     0.258 C 
HETATM    3  O   UNL     1      -4.194 -14.197 -36.819  1.00  0.00    -0.267 OA
HETATM    4  H   UNL     1      -6.969 -12.798 -36.095  1.00  0.00     0.169 HD
ENDROOT
BRANCH   2   5
HETATM    5  C   UNL     1      -5.676 -13.083 -38.221  1.00  0.00     0.056 A 
HETATM    6  C   UNL     1      -4.880 -12.317 -39.073  1.00  0.00     0.050 A 
HETATM    7 CL   UNL     1      -3.240 -11.906 -38.726  1.00  0.00    -0.083 Cl
HETATM    8  C   UNL     1      -5.415 -11.862 -40.277  1.00  0.00     0.027 A 
HETATM    9  C   UNL     1      -6.738 -12.163 -40.628  1.00  0.00     0.031 A 
HETATM   10  C   UNL     1      -7.554 -12.935 -39.794  1.00  0.00     0.038 A 
HETATM   11  C   UNL     1      -6.995 -13.405 -38.597  1.00  0.00     0.048 A 
BRANCH  10  12
HETATM   12  N   UNL     1      -8.906 -13.225 -40.124  1.00  0.00    -0.318 N 
HETATM   13  C   UNL     1      -9.404 -14.456 -40.578  1.00  0.00     0.224 C 
HETATM   14  O   UNL     1      -8.821 -15.519 -40.726  1.00  0.00    -0.273 OA
HETATM   15  C   UNL     1     -10.848 -14.252 -40.974  1.00  0.00     0.105 C 
HETATM   16  C   UNL     1     -11.228 -12.973 -40.256  1.00  0.00     0.029 C 
HETATM   17  C   UNL     1      -9.926 -12.202 -40.201  1.00  0.00     0.133 C 
ENDBRANCH  10  12
ENDBRANCH   2   5
BRANCH   1  18
HETATM   18  C   UNL     1      -6.078 -13.792 -34.529  1.00  0.00     0.035 A 
HETATM   19  C   UNL     1      -5.583 -13.033 -33.469  1.00  0.00     0.032 A 
HETATM   20  C   UNL     1      -5.507 -13.553 -32.169  1.00  0.00     0.033 A 
HETATM   21  C   UNL     1      -5.939 -14.867 -31.967  1.00  0.00     0.042 A 
HETATM   22  N   UNL     1      -5.964 -15.633 -30.824  1.00  0.00    -0.359 N 
HETATM   23  C   UNL     1      -6.448 -15.652 -32.997  1.00  0.00    -0.005 A 
HETATM   24  C   UNL     1      -6.458 -16.886 -31.096  1.00  0.00     0.006 A 
HETATM   25  H   UNL     1      -5.648 -15.314 -29.919  1.00  0.00     0.166 HD
HETATM   26  C   UNL     1      -6.576 -17.935 -30.054  1.00  0.00     0.068 C 
HETATM   27  C   UNL     1      -6.778 -16.916 -32.438  1.00  0.00     0.038 A 
HETATM   28  C   UNL     1      -6.527 -15.103 -34.293  1.00  0.00     0.043 A 
ENDBRANCH   1  18
TORSDOF 3
ENDMDL
MODEL 8
REMARK VINA RESULT:      -8.3      2.862      4.759
REMARK  3 active torsions:
REMARK  status: ('A' for Active; 'I' for Inactive)
REMARK    1  A    between atoms: C_10  and  N_11 
REMARK       I    between atoms: N_11  and  C_12 
REMARK    2  A    between atoms: C_12  and  C_13 
REMARK    3  A    between atoms: C_18  and  N_19 
ROOT
HETATM    1  N   UNL     1      -8.127   1.676 -33.297  1.00  0.00    -0.323 N 
HETATM    2  C   UNL     1      -7.067   1.176 -34.024  1.00  0.00     0.258 C 
HETATM    3  O   UNL     1      -7.072   0.821 -35.198  1.00  0.00    -0.267 OA
HETATM    4  H   UNL     1      -7.942   1.925 -32.332  1.00  0.00     0.169 HD
ENDROOT
BRANCH   2   5
HETATM    5  C   UNL     1      -5.762   1.177 -33.311  1.00  0.00     0.056 A 
HETATM    6  C   UNL     1      -5.047   0.025 -32.979  1.00  0.00     0.050 A 
HETATM    7 CL   UNL     1      -5.541  -1.564 -33.438  1.00  0.00    -0.083 Cl
HETATM    8  C   UNL     1      -3.864   0.146 -32.251  1.00  0.00     0.027 A 
HETATM    9  C   UNL     1      -3.399   1.405 -31.851  1.00  0.00     0.031 A 
HETATM   10  C   UNL     1      -4.094   2.575 -32.177  1.00  0.00     0.038 A 
HETATM   11  C   UNL     1      -5.269   2.441 -32.930  1.00  0.00     0.048 A 
BRANCH  10  12
HETATM   12  N   UNL     1      -3.649   3.857 -31.754  1.00  0.00    -0.318 N 
HETATM   13  C   UNL     1      -4.356   4.753 -30.936  1.00  0.00     0.224 C 
HETATM   14  O   UNL     1      -5.436   4.609 -30.385  1.00  0.00    -0.273 OA
HETATM   15  C   UNL     1      -3.584   6.051 -30.900  1.00  0.00     0.105 C 
HETATM   16  C   UNL     1      -2.194   5.642 -31.344  1.00  0.00     0.029 C 
HETATM   17  C   UNL     1      -2.453   4.479 -32.278  1.00  0.00     0.133 C 
ENDBRANCH  10  12
ENDBRANCH   2   5
BRANCH   1  18
HETATM   18  C   UNL     1      -9.443   1.925 -33.741  1.00  0.00     0.035 A 
HETATM   19  C   UNL     1      -9.843   3.100 -34.375  1.00  0.00     0.032 A 
HETATM   20  C   UNL     1     -11.175   3.307 -34.762  1.00  0.00     0.033 A 
HETATM   21  C   UNL     1     -12.098   2.296 -34.482  1.00  0.00     0.042 A 
HETATM   22  N   UNL     1     -13.452   2.230 -34.725  1.00  0.00    -0.359 N 
HETATM   23  C   UNL     1     -11.735   1.105 -33.860  1.00  0.00    -0.005 A 
HETATM   24  C   UNL     1     -13.966   1.043 -34.263  1.00  0.00     0.006 A 
HETATM   25  H   UNL     1     -13.986   2.965 -35.168  1.00  0.00     0.166 HD
HETATM   26  C   UNL     1     -15.407   0.709 -34.365  1.00  0.00     0.068 C 
HETATM   27  C   UNL     1     -12.915   0.321 -33.733  1.00  0.00     0.038 A 
HETATM   28  C   UNL     1     -10.388   0.914 -33.494  1.00  0.00     0.043 A 
ENDBRANCH   1  18
TORSDOF 3
ENDMDL
MODEL 9
REMARK VINA RESULT:      -8.3      3.798      7.351
REMARK  3 active torsions:
REMARK  status: ('A' for Active; 'I' for Inactive)
REMARK    1  A    between atoms: C_10  and  N_11 
REMARK       I    between atoms: N_11  and  C_12 
REMARK    2  A    between atoms: C_12  and  C_13 
REMARK    3  A    between atoms: C_18  and  N_19 
ROOT
HETATM    1  N   UNL     1      -5.233   2.762 -32.211  1.00  0.00    -0.323 N 
HETATM    2  C   UNL     1      -5.833   2.685 -33.451  1.00  0.00     0.258 C 
HETATM    3  O   UNL     1      -5.815   3.531 -34.338  1.00  0.00    -0.267 OA
HETATM    4  H   UNL     1      -5.347   1.962 -31.599  1.00  0.00     0.169 HD
ENDROOT
BRANCH   2   5
HETATM    5  C   UNL     1      -6.476   1.380 -33.758  1.00  0.00     0.056 A 
HETATM    6  C   UNL     1      -7.838   1.216 -34.016  1.00  0.00     0.050 A 
HETATM    7 CL   UNL     1      -8.952   2.532 -34.107  1.00  0.00    -0.083 Cl
HETATM    8  C   UNL     1      -8.340  -0.067 -34.226  1.00  0.00     0.027 A 
HETATM    9  C   UNL     1      -7.493  -1.181 -34.174  1.00  0.00     0.031 A 
HETATM   10  C   UNL     1      -6.123  -1.043 -33.923  1.00  0.00     0.038 A 
HETATM   11  C   UNL     1      -5.627   0.256 -33.737  1.00  0.00     0.048 A 
BRANCH  10  12
HETATM   12  N   UNL     1      -5.256  -2.167 -33.840  1.00  0.00    -0.318 N 
HETATM   13  C   UNL     1      -4.253  -2.371 -32.879  1.00  0.00     0.224 C 
HETATM   14  O   UNL     1      -3.956  -1.686 -31.913  1.00  0.00    -0.273 OA
HETATM   15  C   UNL     1      -3.470  -3.599 -33.284  1.00  0.00     0.105 C 
HETATM   16  C   UNL     1      -4.409  -4.310 -34.237  1.00  0.00     0.029 C 
HETATM   17  C   UNL     1      -5.189  -3.178 -34.871  1.00  0.00     0.133 C 
ENDBRANCH  10  12
ENDBRANCH   2   5
BRANCH   1  18
HETATM   18  C   UNL     1      -4.439   3.807 -31.695  1.00  0.00     0.035 A 
HETATM   19  C   UNL     1      -4.937   4.858 -30.926  1.00  0.00     0.032 A 
HETATM   20  C   UNL     1      -4.105   5.891 -30.470  1.00  0.00     0.033 A 
HETATM   21  C   UNL     1      -2.753   5.838 -30.820  1.00  0.00     0.042 A 
HETATM   22  N   UNL     1      -1.723   6.706 -30.535  1.00  0.00    -0.359 N 
HETATM   23  C   UNL     1      -2.217   4.801 -31.576  1.00  0.00    -0.005 A 
HETATM   24  C   UNL     1      -0.551   6.263 -31.099  1.00  0.00     0.006 A 
HETATM   25  H   UNL     1      -1.827   7.556 -29.998  1.00  0.00     0.166 HD
HETATM   26  C   UNL     1       0.721   7.015 -30.979  1.00  0.00     0.068 C 
HETATM   27  C   UNL     1      -0.831   5.073 -31.741  1.00  0.00     0.038 A 
HETATM   28  C   UNL     1      -3.070   3.767 -32.011  1.00  0.00     0.043 A 
ENDBRANCH   1  18
TORSDOF 3
ENDMDL
MODEL 10
REMARK VINA RESULT:      -8.3      2.898      8.941
REMARK  3 active torsions:
REMARK  status: ('A' for Active; 'I' for Inactive)
REMARK    1  A    between atoms: C_10  and  N_11 
REMARK       I    between atoms: N_11  and  C_12 
REMARK    2  A    between atoms: C_12  and  C_13 
REMARK    3  A    between atoms: C_18  and  N_19 
ROOT
HETATM    1  N   UNL     1      -8.878   0.571 -33.991  1.00  0.00    -0.323 N 
HETATM    2  C   UNL     1     -10.032   0.378 -33.261  1.00  0.00     0.258 C 
HETATM    3  O   UNL     1     -10.200  -0.397 -32.326  1.00  0.00    -0.267 OA
HETATM    4  H   UNL     1      -8.917   1.260 -34.733  1.00  0.00     0.169 HD
ENDROOT
BRANCH   2   5
HETATM    5  C   UNL     1     -11.150   1.298 -33.601  1.00  0.00     0.056 A 
HETATM    6  C   UNL     1     -12.468   0.889 -33.815  1.00  0.00     0.050 A 
HETATM    7 CL   UNL     1     -12.999  -0.741 -33.620  1.00  0.00    -0.083 Cl
HETATM    8  C   UNL     1     -13.420   1.835 -34.193  1.00  0.00     0.027 A 
HETATM    9  C   UNL     1     -13.061   3.178 -34.363  1.00  0.00     0.031 A 
HETATM   10  C   UNL     1     -11.748   3.614 -34.148  1.00  0.00     0.038 A 
HETATM   11  C   UNL     1     -10.807   2.657 -33.746  1.00  0.00     0.048 A 
BRANCH  10  12
HETATM   12  N   UNL     1     -11.364   4.969 -34.344  1.00  0.00    -0.318 N 
HETATM   13  C   UNL     1     -11.776   6.068 -33.574  1.00  0.00     0.224 C 
HETATM   14  O   UNL     1     -12.478   6.093 -32.575  1.00  0.00    -0.273 OA
HETATM   15  C   UNL     1     -11.270   7.321 -34.252  1.00  0.00     0.105 C 
HETATM   16  C   UNL     1     -10.163   6.807 -35.150  1.00  0.00     0.029 C 
HETATM   17  C   UNL     1     -10.620   5.408 -35.504  1.00  0.00     0.133 C 
ENDBRANCH  10  12
ENDBRANCH   2   5
BRANCH   1  18
HETATM   18  C   UNL     1      -7.623  -0.048 -33.809  1.00  0.00     0.035 A 
HETATM   19  C   UNL     1      -6.511   0.590 -33.260  1.00  0.00     0.032 A 
HETATM   20  C   UNL     1      -5.277  -0.065 -33.137  1.00  0.00     0.033 A 
HETATM   21  C   UNL     1      -5.192  -1.383 -33.594  1.00  0.00     0.042 A 
HETATM   22  N   UNL     1      -4.125  -2.252 -33.618  1.00  0.00    -0.359 N 
HETATM   23  C   UNL     1      -6.282  -2.056 -34.139  1.00  0.00    -0.005 A 
HETATM   24  C   UNL     1      -4.496  -3.452 -34.176  1.00  0.00     0.006 A 
HETATM   25  H   UNL     1      -3.199  -2.025 -33.284  1.00  0.00     0.166 HD
HETATM   26  C   UNL     1      -3.541  -4.572 -34.356  1.00  0.00     0.068 C 
HETATM   27  C   UNL     1      -5.836  -3.358 -34.495  1.00  0.00     0.038 A 
HETATM   28  C   UNL     1      -7.515  -1.381 -34.238  1.00  0.00     0.043 A 
ENDBRANCH   1  18
TORSDOF 3
ENDMDL
