MODEL 1
REMARK VINA RESULT:      -8.6      0.000      0.000
REMARK  4 active torsions:
REMARK  status: ('A' for Active; 'I' for Inactive)
REMARK    1  A    between atoms: C_3  and  C_4 
REMARK       I    between atoms: C_4  and  N_5 
REMARK    2  A    between atoms: N_5  and  C_6 
REMARK    3  A    between atoms: C_6  and  C_7 
REMARK    4  A    between atoms: C_23  and  O_24 
ROOT
HETATM    1  C   UNL     1      -5.144   2.341 -31.967  1.00  0.00     0.276 C 
HETATM    2  N   UNL     1      -4.930   3.375 -32.848  1.00  0.00    -0.348 N 
HETATM    3  O   UNL     1      -5.357   2.565 -30.776  1.00  0.00    -0.265 OA
HETATM    4  H   UNL     1      -4.755   3.189 -33.831  1.00  0.00     0.163 HD
ENDROOT
BRANCH   1   5
HETATM    5  C   UNL     1      -5.097   1.009 -32.541  1.00  0.00     0.150 A 
HETATM    6  C   UNL     1      -4.227  -0.054 -32.327  1.00  0.00    -0.009 A 
HETATM    7  C   UNL     1      -3.056  -0.119 -31.413  1.00  0.00     0.052 C 
HETATM    8  C   UNL     1      -4.679  -1.115 -33.171  1.00  0.00     0.009 A 
HETATM    9  C   UNL     1      -5.788  -0.629 -33.843  1.00  0.00     0.087 A 
HETATM   10  C   UNL     1      -4.263  -2.434 -33.432  1.00  0.00     0.051 A 
HETATM   11  O   UNL     1      -6.046   0.653 -33.470  1.00  0.00    -0.304 OA
HETATM   12  C   UNL     1      -6.521  -1.369 -34.769  1.00  0.00     0.041 A 
HETATM   13  C   UNL     1      -6.089  -2.682 -35.014  1.00  0.00     0.039 A 
HETATM   14  C   UNL     1      -4.975  -3.214 -34.357  1.00  0.00     0.069 A 
BRANCH  14  15
HETATM   15  O   UNL     1      -4.471  -4.477 -34.522  1.00  0.00    -0.356 OA
HETATM   16  C   UNL     1      -3.390  -4.860 -33.682  1.00  0.00     0.210 C 
ENDBRANCH  14  15
ENDBRANCH   1   5
BRANCH   2  17
HETATM   17  C   UNL     1      -4.948   4.734 -32.380  1.00  0.00     0.201 C 
BRANCH  17  18
HETATM   18  C   UNL     1      -3.571   5.213 -32.085  1.00  0.00     0.123 A 
HETATM   19  N   UNL     1      -2.939   6.258 -32.588  1.00  0.00    -0.232 NA
HETATM   20  C   UNL     1      -1.700   6.262 -31.989  1.00  0.00     0.085 A 
HETATM   21  C   UNL     1      -1.572   5.198 -31.103  1.00  0.00     0.062 A 
HETATM   22  C   UNL     1      -0.623   7.146 -32.150  1.00  0.00     0.034 A 
HETATM   23  N   UNL     1      -2.774   4.547 -31.183  1.00  0.00    -0.341 N 
HETATM   24  C   UNL     1      -0.421   4.953 -30.353  1.00  0.00     0.032 A 
HETATM   25  H   UNL     1      -3.031   3.719 -30.666  1.00  0.00     0.167 HD
HETATM   26  C   UNL     1       0.643   5.845 -30.527  1.00  0.00     0.002 A 
HETATM   27  C   UNL     1       0.546   6.924 -31.410  1.00  0.00     0.002 A 
ENDBRANCH  17  18
ENDBRANCH   2  17
TORSDOF 4
ENDMDL
MODEL 2
REMARK VINA RESULT:      -8.5      1.833      2.616
REMARK  4 active torsions:
REMARK  status: ('A' for Active; 'I' for Inactive)
REMARK    1  A    between atoms: C_3  and  C_4 
REMARK       I    between atoms: C_4  and  N_5 
REMARK    2  A    between atoms: N_5  and  C_6 
REMARK    3  A    between atoms: C_6  and  C_7 
REMARK    4  A    between atoms: C_23  and  O_24 
ROOT
HETATM    1  C   UNL     1      -6.256   2.510 -33.120  1.00  0.00     0.276 C 
HETATM    2  N   UNL     1      -6.097   3.384 -34.171  1.00  0.00    -0.348 N 
HETATM    3  O   UNL     1      -6.591   2.919 -32.010  1.00  0.00    -0.265 OA
HETATM    4  H   UNL     1      -5.822   3.045 -35.087  1.00  0.00     0.163 HD
ENDROOT
BRANCH   1   5
HETATM    5  C   UNL     1      -6.003   1.114 -33.424  1.00  0.00     0.150 A 
HETATM    6  C   UNL     1      -6.707   0.201 -34.202  1.00  0.00    -0.009 A 
HETATM    7  C   UNL     1      -7.965   0.416 -34.966  1.00  0.00     0.052 C 
HETATM    8  C   UNL     1      -5.976  -1.024 -34.138  1.00  0.00     0.009 A 
HETATM    9  C   UNL     1      -4.881  -0.780 -33.325  1.00  0.00     0.087 A 
HETATM   10  C   UNL     1      -6.128  -2.312 -34.684  1.00  0.00     0.051 A 
HETATM   11  O   UNL     1      -4.892   0.508 -32.889  1.00  0.00    -0.304 OA
HETATM   12  C   UNL     1      -3.917  -1.736 -33.012  1.00  0.00     0.041 A 
HETATM   13  C   UNL     1      -4.089  -3.014 -33.568  1.00  0.00     0.039 A 
HETATM   14  C   UNL     1      -5.179  -3.304 -34.394  1.00  0.00     0.069 A 
BRANCH  14  15
HETATM   15  O   UNL     1      -5.440  -4.512 -34.985  1.00  0.00    -0.356 OA
HETATM   16  C   UNL     1      -6.700  -4.664 -35.625  1.00  0.00     0.210 C 
ENDBRANCH  14  15
ENDBRANCH   1   5
BRANCH   2  17
HETATM   17  C   UNL     1      -6.317   4.791 -33.975  1.00  0.00     0.201 C 
BRANCH  17  18
HETATM   18  C   UNL     1      -5.041   5.491 -33.669  1.00  0.00     0.123 A 
HETATM   19  N   UNL     1      -3.955   5.582 -34.413  1.00  0.00    -0.232 NA
HETATM   20  C   UNL     1      -3.066   6.333 -33.678  1.00  0.00     0.085 A 
HETATM   21  C   UNL     1      -3.620   6.708 -32.460  1.00  0.00     0.062 A 
HETATM   22  C   UNL     1      -1.760   6.740 -33.985  1.00  0.00     0.034 A 
HETATM   23  N   UNL     1      -4.875   6.160 -32.478  1.00  0.00    -0.341 N 
HETATM   24  C   UNL     1      -2.946   7.476 -31.509  1.00  0.00     0.032 A 
HETATM   25  H   UNL     1      -5.562   6.236 -31.742  1.00  0.00     0.167 HD
HETATM   26  C   UNL     1      -1.644   7.873 -31.832  1.00  0.00     0.002 A 
HETATM   27  C   UNL     1      -1.058   7.513 -33.049  1.00  0.00     0.002 A 
ENDBRANCH  17  18
ENDBRANCH   2  17
TORSDOF 4
ENDMDL
MODEL 3
REMARK VINA RESULT:      -8.2      5.053      8.050
REMARK  4 active torsions:
REMARK  status: ('A' for Active; 'I' for Inactive)
REMARK    1  A    between atoms: C_3  and  C_4 
REMARK       I    between atoms: C_4  and  N_5 
REMARK    2  A    between atoms: N_5  and  C_6 
REMARK    3  A    between atoms: C_6  and  C_7 
REMARK    4  A    between atoms: C_23  and  O_24 
ROOT
HETATM    1  C   UNL     1      -8.082   1.417 -32.540  1.00  0.00     0.276 C 
HETATM    2  N   UNL     1      -8.783   2.049 -33.540  1.00  0.00    -0.348 N 
HETATM    3  O   UNL     1      -8.165   1.803 -31.375  1.00  0.00    -0.265 OA
HETATM    4  H   UNL     1      -8.714   1.728 -34.501  1.00  0.00     0.163 HD
ENDROOT
BRANCH   1   5
HETATM    5  C   UNL     1      -7.264   0.294 -32.961  1.00  0.00     0.150 A 
HETATM    6  C   UNL     1      -5.974  -0.087 -32.607  1.00  0.00    -0.009 A 
HETATM    7  C   UNL     1      -5.043   0.579 -31.658  1.00  0.00     0.052 C 
HETATM    8  C   UNL     1      -5.697  -1.282 -33.339  1.00  0.00     0.009 A 
HETATM    9  C   UNL     1      -6.829  -1.547 -34.092  1.00  0.00     0.087 A 
HETATM   10  C   UNL     1      -4.606  -2.164 -33.440  1.00  0.00     0.051 A 
HETATM   11  O   UNL     1      -7.778  -0.598 -33.870  1.00  0.00    -0.304 OA
HETATM   12  C   UNL     1      -6.954  -2.637 -34.949  1.00  0.00     0.041 A 
HETATM   13  C   UNL     1      -5.853  -3.504 -35.035  1.00  0.00     0.039 A 
HETATM   14  C   UNL     1      -4.690  -3.276 -34.292  1.00  0.00     0.069 A 
BRANCH  14  15
HETATM   15  O   UNL     1      -3.565  -4.056 -34.302  1.00  0.00    -0.356 OA
HETATM   16  C   UNL     1      -3.268  -4.784 -33.117  1.00  0.00     0.210 C 
ENDBRANCH  14  15
ENDBRANCH   1   5
BRANCH   2  17
HETATM   17  C   UNL     1      -9.619   3.176 -33.231  1.00  0.00     0.201 C 
BRANCH  17  18
HETATM   18  C   UNL     1     -11.055   2.786 -33.219  1.00  0.00     0.123 A 
HETATM   19  N   UNL     1     -12.032   3.269 -32.474  1.00  0.00    -0.232 NA
HETATM   20  C   UNL     1     -13.159   2.575 -32.849  1.00  0.00     0.085 A 
HETATM   21  C   UNL     1     -12.865   1.649 -33.843  1.00  0.00     0.062 A 
HETATM   22  C   UNL     1     -14.479   2.679 -32.385  1.00  0.00     0.034 A 
HETATM   23  N   UNL     1     -11.522   1.802 -34.060  1.00  0.00    -0.341 N 
HETATM   24  C   UNL     1     -13.818   0.804 -34.416  1.00  0.00     0.032 A 
HETATM   25  H   UNL     1     -10.970   1.281 -34.726  1.00  0.00     0.167 HD
HETATM   26  C   UNL     1     -15.128   0.922 -33.941  1.00  0.00     0.002 A 
HETATM   27  C   UNL     1     -15.456   1.843 -32.942  1.00  0.00     0.002 A 
ENDBRANCH  17  18
ENDBRANCH   2  17
TORSDOF 4
ENDMDL
MODEL 4
REMARK VINA RESULT:      -8.2      6.076      9.219
REMARK  4 active torsions:
REMARK  status: ('A' for Active; 'I' for Inactive)
REMARK    1  A    between atoms: C_3  and  C_4 
REMARK       I    between atoms: C_4  and  N_5 
REMARK    2  A    between atoms: N_5  and  C_6 
REMARK    3  A    between atoms: C_6  and  C_7 
REMARK    4  A    between atoms: C_23  and  O_24 
ROOT
HETATM    1  C   UNL     1      -9.427   2.513 -33.599  1.00  0.00     0.276 C 
HETATM    2  N   UNL     1      -8.655   1.495 -33.087  1.00  0.00    -0.348 N 
HETATM    3  O   UNL     1      -8.903   3.505 -34.102  1.00  0.00    -0.265 OA
HETATM    4  H   UNL     1      -9.089   0.676 -32.673  1.00  0.00     0.163 HD
ENDROOT
BRANCH   1   5
HETATM    5  C   UNL     1     -10.862   2.321 -33.497  1.00  0.00     0.150 A 
HETATM    6  C   UNL     1     -11.828   2.994 -32.757  1.00  0.00    -0.009 A 
HETATM    7  C   UNL     1     -11.646   4.140 -31.828  1.00  0.00     0.052 C 
HETATM    8  C   UNL     1     -13.074   2.366 -33.065  1.00  0.00     0.009 A 
HETATM    9  C   UNL     1     -12.785   1.354 -33.966  1.00  0.00     0.087 A 
HETATM   10  C   UNL     1     -14.413   2.552 -32.674  1.00  0.00     0.051 A 
HETATM   11  O   UNL     1     -11.452   1.320 -34.230  1.00  0.00    -0.304 OA
HETATM   12  C   UNL     1     -13.744   0.503 -34.511  1.00  0.00     0.041 A 
HETATM   13  C   UNL     1     -15.074   0.706 -34.107  1.00  0.00     0.039 A 
HETATM   14  C   UNL     1     -15.410   1.716 -33.201  1.00  0.00     0.069 A 
BRANCH  14  15
HETATM   15  O   UNL     1     -16.670   1.998 -32.743  1.00  0.00    -0.356 OA
HETATM   16  C   UNL     1     -16.865   3.256 -32.112  1.00  0.00     0.210 C 
ENDBRANCH  14  15
ENDBRANCH   1   5
BRANCH   2  17
HETATM   17  C   UNL     1      -7.221   1.588 -33.132  1.00  0.00     0.201 C 
BRANCH  17  18
HETATM   18  C   UNL     1      -6.614   0.273 -33.472  1.00  0.00     0.123 A 
HETATM   19  N   UNL     1      -5.356  -0.108 -33.347  1.00  0.00    -0.232 NA
HETATM   20  C   UNL     1      -5.319  -1.407 -33.798  1.00  0.00     0.085 A 
HETATM   21  C   UNL     1      -6.578  -1.829 -34.207  1.00  0.00     0.062 A 
HETATM   22  C   UNL     1      -4.240  -2.300 -33.889  1.00  0.00     0.034 A 
HETATM   23  N   UNL     1      -7.383  -0.742 -33.991  1.00  0.00    -0.341 N 
HETATM   24  C   UNL     1      -6.839  -3.105 -34.711  1.00  0.00     0.032 A 
HETATM   25  H   UNL     1      -8.374  -0.697 -34.179  1.00  0.00     0.167 HD
HETATM   26  C   UNL     1      -5.752  -3.981 -34.794  1.00  0.00     0.002 A 
HETATM   27  C   UNL     1      -4.473  -3.588 -34.391  1.00  0.00     0.002 A 
ENDBRANCH  17  18
ENDBRANCH   2  17
TORSDOF 4
ENDMDL
MODEL 5
REMARK VINA RESULT:      -8.0      4.753      8.054
REMARK  4 active torsions:
REMARK  status: ('A' for Active; 'I' for Inactive)
REMARK    1  A    between atoms: C_3  and  C_4 
REMARK       I    between atoms: C_4  and  N_5 
REMARK    2  A    between atoms: N_5  and  C_6 
REMARK    3  A    between atoms: C_6  and  C_7 
REMARK    4  A    between atoms: C_23  and  O_24 
ROOT
HETATM    1  C   UNL     1      -7.368   1.580 -33.890  1.00  0.00     0.276 C 
HETATM    2  N   UNL     1      -6.837   1.399 -32.634  1.00  0.00    -0.348 N 
HETATM    3  O   UNL     1      -6.635   1.690 -34.871  1.00  0.00    -0.265 OA
HETATM    4  H   UNL     1      -7.444   1.307 -31.825  1.00  0.00     0.163 HD
ENDROOT
BRANCH   1   5
HETATM    5  C   UNL     1      -8.817   1.629 -33.956  1.00  0.00     0.150 A 
HETATM    6  C   UNL     1      -9.789   0.777 -33.442  1.00  0.00    -0.009 A 
HETATM    7  C   UNL     1      -9.600  -0.469 -32.653  1.00  0.00     0.052 C 
HETATM    8  C   UNL     1     -11.048   1.337 -33.818  1.00  0.00     0.009 A 
HETATM    9  C   UNL     1     -10.762   2.487 -34.536  1.00  0.00     0.087 A 
HETATM   10  C   UNL     1     -12.398   0.989 -33.623  1.00  0.00     0.051 A 
HETATM   11  O   UNL     1      -9.418   2.668 -34.625  1.00  0.00    -0.304 OA
HETATM   12  C   UNL     1     -11.734   3.323 -35.082  1.00  0.00     0.041 A 
HETATM   13  C   UNL     1     -13.073   2.957 -34.875  1.00  0.00     0.039 A 
HETATM   14  C   UNL     1     -13.408   1.805 -34.155  1.00  0.00     0.069 A 
BRANCH  14  15
HETATM   15  O   UNL     1     -14.677   1.359 -33.896  1.00  0.00    -0.356 OA
HETATM   16  C   UNL     1     -15.314   1.856 -32.728  1.00  0.00     0.210 C 
ENDBRANCH  14  15
ENDBRANCH   1   5
BRANCH   2  17
HETATM   17  C   UNL     1      -5.412   1.343 -32.457  1.00  0.00     0.201 C 
BRANCH  17  18
HETATM   18  C   UNL     1      -4.909  -0.046 -32.634  1.00  0.00     0.123 A 
HETATM   19  N   UNL     1      -4.124  -0.744 -31.834  1.00  0.00    -0.232 NA
HETATM   20  C   UNL     1      -3.960  -1.963 -32.451  1.00  0.00     0.085 A 
HETATM   21  C   UNL     1      -4.659  -2.012 -33.651  1.00  0.00     0.062 A 
HETATM   22  C   UNL     1      -3.227  -3.088 -32.045  1.00  0.00     0.034 A 
HETATM   23  N   UNL     1      -5.252  -0.781 -33.745  1.00  0.00    -0.341 N 
HETATM   24  C   UNL     1      -4.675  -3.128 -34.490  1.00  0.00     0.032 A 
HETATM   25  H   UNL     1      -5.843  -0.469 -34.502  1.00  0.00     0.167 HD
HETATM   26  C   UNL     1      -3.938  -4.239 -34.070  1.00  0.00     0.002 A 
HETATM   27  C   UNL     1      -3.224  -4.223 -32.868  1.00  0.00     0.002 A 
ENDBRANCH  17  18
ENDBRANCH   2  17
TORSDOF 4
ENDMDL
MODEL 6
REMARK VINA RESULT:      -7.8      4.621      6.919
REMARK  4 active torsions:
REMARK  status: ('A' for Active; 'I' for Inactive)
REMARK    1  A    between atoms: C_3  and  C_4 
REMARK       I    between atoms: C_4  and  N_5 
REMARK    2  A    between atoms: N_5  and  C_6 
REMARK    3  A    between atoms: C_6  and  C_7 
REMARK    4  A    between atoms: C_23  and  O_24 
ROOT
HETATM    1  C   UNL     1      -6.870   2.173 -31.708  1.00  0.00     0.276 C 
HETATM    2  N   UNL     1      -7.945   2.009 -30.865  1.00  0.00    -0.348 N 
HETATM    3  O   UNL     1      -6.408   3.292 -31.924  1.00  0.00    -0.265 OA
HETATM    4  H   UNL     1      -8.325   1.084 -30.687  1.00  0.00     0.163 HD
ENDROOT
BRANCH   1   5
HETATM    5  C   UNL     1      -6.345   0.955 -32.298  1.00  0.00     0.150 A 
HETATM    6  C   UNL     1      -5.141   0.287 -32.108  1.00  0.00    -0.009 A 
HETATM    7  C   UNL     1      -4.014   0.653 -31.210  1.00  0.00     0.052 C 
HETATM    8  C   UNL     1      -5.184  -0.861 -32.957  1.00  0.00     0.009 A 
HETATM    9  C   UNL     1      -6.406  -0.815 -33.610  1.00  0.00     0.087 A 
HETATM   10  C   UNL     1      -4.317  -1.933 -33.239  1.00  0.00     0.051 A 
HETATM   11  O   UNL     1      -7.111   0.280 -33.218  1.00  0.00    -0.304 OA
HETATM   12  C   UNL     1      -6.829  -1.767 -34.534  1.00  0.00     0.041 A 
HETATM   13  C   UNL     1      -5.947  -2.827 -34.799  1.00  0.00     0.039 A 
HETATM   14  C   UNL     1      -4.705  -2.915 -34.163  1.00  0.00     0.069 A 
BRANCH  14  15
HETATM   15  O   UNL     1      -3.775  -3.902 -34.349  1.00  0.00    -0.356 OA
HETATM   16  C   UNL     1      -4.003  -5.142 -33.691  1.00  0.00     0.210 C 
ENDBRANCH  14  15
ENDBRANCH   1   5
BRANCH   2  17
HETATM   17  C   UNL     1      -8.544   3.152 -30.233  1.00  0.00     0.201 C 
BRANCH  17  18
HETATM   18  C   UNL     1      -9.878   3.446 -30.822  1.00  0.00     0.123 A 
HETATM   19  N   UNL     1     -10.229   3.465 -32.094  1.00  0.00    -0.232 NA
HETATM   20  C   UNL     1     -11.566   3.789 -32.103  1.00  0.00     0.085 A 
HETATM   21  C   UNL     1     -12.043   3.971 -30.811  1.00  0.00     0.062 A 
HETATM   22  C   UNL     1     -12.449   3.946 -33.182  1.00  0.00     0.034 A 
HETATM   23  N   UNL     1     -10.951   3.749 -30.015  1.00  0.00    -0.341 N 
HETATM   24  C   UNL     1     -13.366   4.306 -30.516  1.00  0.00     0.032 A 
HETATM   25  H   UNL     1     -10.937   3.797 -29.006  1.00  0.00     0.167 HD
HETATM   26  C   UNL     1     -14.231   4.459 -31.604  1.00  0.00     0.002 A 
HETATM   27  C   UNL     1     -13.783   4.282 -32.917  1.00  0.00     0.002 A 
ENDBRANCH  17  18
ENDBRANCH   2  17
TORSDOF 4
ENDMDL
MODEL 7
REMARK VINA RESULT:      -7.8      2.876      8.646
REMARK  4 active torsions:
REMARK  status: ('A' for Active; 'I' for Inactive)
REMARK    1  A    between atoms: C_3  and  C_4 
REMARK       I    between atoms: C_4  and  N_5 
REMARK    2  A    between atoms: N_5  and  C_6 
REMARK    3  A    between atoms: C_6  and  C_7 
REMARK    4  A    between atoms: C_23  and  O_24 
ROOT
HETATM    1  C   UNL     1      -5.728   3.525 -33.673  1.00  0.00     0.276 C 
HETATM    2  N   UNL     1      -5.664   2.163 -33.491  1.00  0.00    -0.348 N 
HETATM    3  O   UNL     1      -6.678   4.034 -34.264  1.00  0.00    -0.265 OA
HETATM    4  H   UNL     1      -4.879   1.744 -33.001  1.00  0.00     0.163 HD
ENDROOT
BRANCH   1   5
HETATM    5  C   UNL     1      -4.618   4.283 -33.125  1.00  0.00     0.150 A 
HETATM    6  C   UNL     1      -4.314   4.654 -31.820  1.00  0.00    -0.009 A 
HETATM    7  C   UNL     1      -5.076   4.363 -30.577  1.00  0.00     0.052 C 
HETATM    8  C   UNL     1      -3.090   5.386 -31.889  1.00  0.00     0.009 A 
HETATM    9  C   UNL     1      -2.732   5.417 -33.227  1.00  0.00     0.087 A 
HETATM   10  C   UNL     1      -2.250   6.024 -30.958  1.00  0.00     0.051 A 
HETATM   11  O   UNL     1      -3.651   4.755 -33.979  1.00  0.00    -0.304 OA
HETATM   12  C   UNL     1      -1.586   6.046 -33.710  1.00  0.00     0.041 A 
HETATM   13  C   UNL     1      -0.763   6.676 -32.763  1.00  0.00     0.039 A 
HETATM   14  C   UNL     1      -1.085   6.669 -31.403  1.00  0.00     0.069 A 
BRANCH  14  15
HETATM   15  O   UNL     1      -0.354   7.250 -30.400  1.00  0.00    -0.356 OA
HETATM   16  C   UNL     1      -0.792   7.032 -29.066  1.00  0.00     0.210 C 
ENDBRANCH  14  15
ENDBRANCH   1   5
BRANCH   2  17
HETATM   17  C   UNL     1      -6.710   1.319 -34.000  1.00  0.00     0.201 C 
BRANCH  17  18
HETATM   18  C   UNL     1      -6.251  -0.093 -34.101  1.00  0.00     0.123 A 
HETATM   19  N   UNL     1      -5.063  -0.593 -33.817  1.00  0.00    -0.232 NA
HETATM   20  C   UNL     1      -5.159  -1.941 -34.078  1.00  0.00     0.085 A 
HETATM   21  C   UNL     1      -6.430  -2.271 -34.532  1.00  0.00     0.062 A 
HETATM   22  C   UNL     1      -4.198  -2.955 -33.952  1.00  0.00     0.034 A 
HETATM   23  N   UNL     1      -7.105  -1.079 -34.538  1.00  0.00    -0.341 N 
HETATM   24  C   UNL     1      -6.815  -3.568 -34.874  1.00  0.00     0.032 A 
HETATM   25  H   UNL     1      -8.067  -0.948 -34.815  1.00  0.00     0.167 HD
HETATM   26  C   UNL     1      -5.844  -4.566 -34.742  1.00  0.00     0.002 A 
HETATM   27  C   UNL     1      -4.556  -4.267 -34.289  1.00  0.00     0.002 A 
ENDBRANCH  17  18
ENDBRANCH   2  17
TORSDOF 4
ENDMDL
MODEL 8
REMARK VINA RESULT:      -7.6      2.859      8.494
REMARK  4 active torsions:
REMARK  status: ('A' for Active; 'I' for Inactive)
REMARK    1  A    between atoms: C_3  and  C_4 
REMARK       I    between atoms: C_4  and  N_5 
REMARK    2  A    between atoms: N_5  and  C_6 
REMARK    3  A    between atoms: C_6  and  C_7 
REMARK    4  A    between atoms: C_23  and  O_24 
ROOT
HETATM    1  C   UNL     1      -5.666   2.613 -31.648  1.00  0.00     0.276 C 
HETATM    2  N   UNL     1      -6.617   2.306 -32.594  1.00  0.00    -0.348 N 
HETATM    3  O   UNL     1      -5.568   1.948 -30.619  1.00  0.00    -0.265 OA
HETATM    4  H   UNL     1      -6.696   2.855 -33.445  1.00  0.00     0.163 HD
ENDROOT
BRANCH   1   5
HETATM    5  C   UNL     1      -4.818   3.749 -31.959  1.00  0.00     0.150 A 
HETATM    6  C   UNL     1      -4.656   4.976 -31.324  1.00  0.00    -0.009 A 
HETATM    7  C   UNL     1      -5.337   5.478 -30.102  1.00  0.00     0.052 C 
HETATM    8  C   UNL     1      -3.678   5.690 -32.081  1.00  0.00     0.009 A 
HETATM    9  C   UNL     1      -3.313   4.857 -33.126  1.00  0.00     0.087 A 
HETATM   10  C   UNL     1      -3.066   6.954 -31.988  1.00  0.00     0.051 A 
HETATM   11  O   UNL     1      -3.998   3.684 -33.060  1.00  0.00    -0.304 OA
HETATM   12  C   UNL     1      -2.373   5.196 -34.097  1.00  0.00     0.041 A 
HETATM   13  C   UNL     1      -1.775   6.461 -33.985  1.00  0.00     0.039 A 
HETATM   14  C   UNL     1      -2.113   7.334 -32.946  1.00  0.00     0.069 A 
BRANCH  14  15
HETATM   15  O   UNL     1      -1.592   8.584 -32.745  1.00  0.00    -0.356 OA
HETATM   16  C   UNL     1      -2.094   9.328 -31.643  1.00  0.00     0.210 C 
ENDBRANCH  14  15
ENDBRANCH   1   5
BRANCH   2  17
HETATM   17  C   UNL     1      -7.513   1.202 -32.382  1.00  0.00     0.201 C 
BRANCH  17  18
HETATM   18  C   UNL     1      -6.989  -0.037 -33.017  1.00  0.00     0.123 A 
HETATM   19  N   UNL     1      -7.659  -0.981 -33.653  1.00  0.00    -0.232 NA
HETATM   20  C   UNL     1      -6.714  -1.901 -34.047  1.00  0.00     0.085 A 
HETATM   21  C   UNL     1      -5.442  -1.513 -33.643  1.00  0.00     0.062 A 
HETATM   22  C   UNL     1      -6.866  -3.100 -34.758  1.00  0.00     0.034 A 
HETATM   23  N   UNL     1      -5.644  -0.326 -32.990  1.00  0.00    -0.341 N 
HETATM   24  C   UNL     1      -4.289  -2.254 -33.906  1.00  0.00     0.032 A 
HETATM   25  H   UNL     1      -4.926   0.241 -32.564  1.00  0.00     0.167 HD
HETATM   26  C   UNL     1      -4.459  -3.448 -34.616  1.00  0.00     0.002 A 
HETATM   27  C   UNL     1      -5.725  -3.866 -35.036  1.00  0.00     0.002 A 
ENDBRANCH  17  18
ENDBRANCH   2  17
TORSDOF 4
ENDMDL
MODEL 9
REMARK VINA RESULT:      -7.6     15.996     17.705
REMARK  4 active torsions:
REMARK  status: ('A' for Active; 'I' for Inactive)
REMARK    1  A    between atoms: C_3  and  C_4 
REMARK       I    between atoms: C_4  and  N_5 
REMARK    2  A    between atoms: N_5  and  C_6 
REMARK    3  A    between atoms: C_6  and  C_7 
REMARK    4  A    between atoms: C_23  and  O_24 
ROOT
HETATM    1  C   UNL     1      -6.504 -13.566 -36.402  1.00  0.00     0.276 C 
HETATM    2  N   UNL     1      -5.265 -13.174 -36.855  1.00  0.00    -0.348 N 
HETATM    3  O   UNL     1      -6.691 -13.798 -35.209  1.00  0.00    -0.265 OA
HETATM    4  H   UNL     1      -5.112 -12.982 -37.840  1.00  0.00     0.163 HD
ENDROOT
BRANCH   1   5
HETATM    5  C   UNL     1      -7.535 -13.677 -37.417  1.00  0.00     0.150 A 
HETATM    6  C   UNL     1      -8.218 -14.781 -37.916  1.00  0.00    -0.009 A 
HETATM    7  C   UNL     1      -8.072 -16.209 -37.528  1.00  0.00     0.052 C 
HETATM    8  C   UNL     1      -9.124 -14.278 -38.899  1.00  0.00     0.009 A 
HETATM    9  C   UNL     1      -8.931 -12.906 -38.938  1.00  0.00     0.087 A 
HETATM   10  C   UNL     1     -10.085 -14.842 -39.758  1.00  0.00     0.051 A 
HETATM   11  O   UNL     1      -7.972 -12.537 -38.048  1.00  0.00    -0.304 OA
HETATM   12  C   UNL     1      -9.632 -12.047 -39.781  1.00  0.00     0.041 A 
HETATM   13  C   UNL     1     -10.587 -12.632 -40.629  1.00  0.00     0.039 A 
HETATM   14  C   UNL     1     -10.815 -14.011 -40.622  1.00  0.00     0.069 A 
BRANCH  14  15
HETATM   15  O   UNL     1     -11.718 -14.681 -41.405  1.00  0.00    -0.356 OA
HETATM   16  C   UNL     1     -11.408 -16.023 -41.752  1.00  0.00     0.210 C 
ENDBRANCH  14  15
ENDBRANCH   1   5
BRANCH   2  17
HETATM   17  C   UNL     1      -4.171 -13.040 -35.932  1.00  0.00     0.201 C 
BRANCH  17  18
HETATM   18  C   UNL     1      -2.916 -13.587 -36.512  1.00  0.00     0.123 A 
HETATM   19  N   UNL     1      -2.154 -14.561 -36.050  1.00  0.00    -0.232 NA
HETATM   20  C   UNL     1      -1.121 -14.680 -36.952  1.00  0.00     0.085 A 
HETATM   21  C   UNL     1      -1.254 -13.759 -37.985  1.00  0.00     0.062 A 
HETATM   22  C   UNL     1      -0.025 -15.555 -36.958  1.00  0.00     0.034 A 
HETATM   23  N   UNL     1      -2.401 -13.077 -37.681  1.00  0.00    -0.341 N 
HETATM   24  C   UNL     1      -0.350 -13.652 -39.043  1.00  0.00     0.032 A 
HETATM   25  H   UNL     1      -2.802 -12.327 -38.226  1.00  0.00     0.167 HD
HETATM   26  C   UNL     1       0.737 -14.532 -39.032  1.00  0.00     0.002 A 
HETATM   27  C   UNL     1       0.899 -15.470 -38.008  1.00  0.00     0.002 A 
ENDBRANCH  17  18
ENDBRANCH   2  17
TORSDOF 4
ENDMDL
MODEL 10
REMARK VINA RESULT:      -7.5      4.952      8.812
REMARK  4 active torsions:
REMARK  status: ('A' for Active; 'I' for Inactive)
REMARK    1  A    between atoms: C_3  and  C_4 
REMARK       I    between atoms: C_4  and  N_5 
REMARK    2  A    between atoms: N_5  and  C_6 
REMARK    3  A    between atoms: C_6  and  C_7 
REMARK    4  A    between atoms: C_23  and  O_24 
ROOT
HETATM    1  C   UNL     1      -7.565   1.570 -32.136  1.00  0.00     0.276 C 
HETATM    2  N   UNL     1      -6.812   1.343 -33.266  1.00  0.00    -0.348 N 
HETATM    3  O   UNL     1      -7.091   1.378 -31.018  1.00  0.00    -0.265 OA
HETATM    4  H   UNL     1      -7.204   1.503 -34.188  1.00  0.00     0.163 HD
ENDROOT
BRANCH   1   5
HETATM    5  C   UNL     1      -8.918   2.041 -32.371  1.00  0.00     0.150 A 
HETATM    6  C   UNL     1      -9.668   3.029 -31.743  1.00  0.00    -0.009 A 
HETATM    7  C   UNL     1      -9.272   3.911 -30.613  1.00  0.00     0.052 C 
HETATM    8  C   UNL     1     -10.933   3.051 -32.407  1.00  0.00     0.009 A 
HETATM    9  C   UNL     1     -10.872   2.076 -33.389  1.00  0.00     0.087 A 
HETATM   10  C   UNL     1     -12.119   3.796 -32.278  1.00  0.00     0.051 A 
HETATM   11  O   UNL     1      -9.659   1.461 -33.372  1.00  0.00    -0.304 OA
HETATM   12  C   UNL     1     -11.919   1.784 -34.260  1.00  0.00     0.041 A 
HETATM   13  C   UNL     1     -13.093   2.539 -34.113  1.00  0.00     0.039 A 
HETATM   14  C   UNL     1     -13.199   3.534 -33.136  1.00  0.00     0.069 A 
BRANCH  14  15
HETATM   15  O   UNL     1     -14.293   4.326 -32.909  1.00  0.00    -0.356 OA
HETATM   16  C   UNL     1     -14.899   4.245 -31.626  1.00  0.00     0.210 C 
ENDBRANCH  14  15
ENDBRANCH   1   5
BRANCH   2  17
HETATM   17  C   UNL     1      -5.460   0.869 -33.145  1.00  0.00     0.201 C 
BRANCH  17  18
HETATM   18  C   UNL     1      -5.365  -0.566 -33.524  1.00  0.00     0.123 A 
HETATM   19  N   UNL     1      -4.353  -1.396 -33.350  1.00  0.00    -0.232 NA
HETATM   20  C   UNL     1      -4.770  -2.600 -33.870  1.00  0.00     0.085 A 
HETATM   21  C   UNL     1      -6.062  -2.504 -34.372  1.00  0.00     0.062 A 
HETATM   22  C   UNL     1      -4.099  -3.829 -33.950  1.00  0.00     0.034 A 
HETATM   23  N   UNL     1      -6.417  -1.202 -34.141  1.00  0.00    -0.341 N 
HETATM   24  C   UNL     1      -6.743  -3.572 -34.960  1.00  0.00     0.032 A 
HETATM   25  H   UNL     1      -7.303  -0.781 -34.381  1.00  0.00     0.167 HD
HETATM   26  C   UNL     1      -6.058  -4.789 -35.031  1.00  0.00     0.002 A 
HETATM   27  C   UNL     1      -4.758  -4.919 -34.535  1.00  0.00     0.002 A 
ENDBRANCH  17  18
ENDBRANCH   2  17
TORSDOF 4
ENDMDL
