MODEL 1
REMARK VINA RESULT:      -9.8      0.000      0.000
REMARK  3 active torsions:
REMARK  status: ('A' for Active; 'I' for Inactive)
REMARK    1  A    between atoms: C_7  and  C_8 
REMARK       I    between atoms: C_8  and  N_9 
REMARK    2  A    between atoms: N_9  and  C_10 
REMARK    3  A    between atoms: C_17  and  C_18 
REMARK       I    between atoms: C_18  and  N_19 
ROOT
HETATM    1  C   UNL     1      -7.855   0.649 -34.097  1.00  0.00     0.258 C 
HETATM    2  N   UNL     1      -8.747   0.778 -33.044  1.00  0.00    -0.323 N 
HETATM    3  O   UNL     1      -7.863   1.319 -35.121  1.00  0.00    -0.267 OA
HETATM    4  H   UNL     1      -8.566   0.258 -32.197  1.00  0.00     0.169 HD
ENDROOT
BRANCH   2   5
HETATM    5  C   UNL     1      -9.928   1.552 -33.022  1.00  0.00     0.036 A 
HETATM    6  C   UNL     1     -11.176   1.067 -33.439  1.00  0.00     0.046 A 
HETATM    7  C   UNL     1     -12.319   1.882 -33.296  1.00  0.00     0.030 A 
HETATM    8  C   UNL     1     -12.169   3.167 -32.790  1.00  0.00     0.063 A 
HETATM    9  C   UNL     1     -13.724   1.737 -33.519  1.00  0.00     0.156 A 
HETATM   10  N   UNL     1     -13.424   3.708 -32.790  1.00  0.00    -0.277 N 
HETATM   11  C   UNL     1     -10.939   3.689 -32.385  1.00  0.00     0.034 A 
HETATM   12  H   UNL     1     -13.691   4.641 -32.497  1.00  0.00     0.189 HD
HETATM   13  N   UNL     1     -14.389   2.873 -33.207  1.00  0.00    -0.168 NA
HETATM   14  C   UNL     1      -9.827   2.845 -32.491  1.00  0.00     0.032 A 
BRANCH   9  15
HETATM   15  C   UNL     1     -14.437   0.540 -33.984  1.00  0.00     0.270 C 
HETATM   16  N   UNL     1     -13.986  -0.627 -33.429  1.00  0.00    -0.365 N 
HETATM   17  H   UNL     1     -13.204  -0.587 -32.787  1.00  0.00     0.159 HD
HETATM   18  H   UNL     1     -14.380  -1.505 -33.728  1.00  0.00     0.159 HD
HETATM   19  O   UNL     1     -15.342   0.541 -34.810  1.00  0.00    -0.266 OA
ENDBRANCH   9  15
ENDBRANCH   2   5
BRANCH   1  20
HETATM   20  C   UNL     1      -6.808  -0.402 -33.922  1.00  0.00     0.057 A 
HETATM   21  C   UNL     1      -5.573  -0.110 -33.338  1.00  0.00     0.047 A 
HETATM   22  C   UNL     1      -5.230   1.245 -32.785  1.00  0.00     0.071 C 
HETATM   23  N   UNL     1      -4.579  -1.037 -33.231  1.00  0.00    -0.252 NA
HETATM   24  C   UNL     1      -4.781  -2.279 -33.695  1.00  0.00     0.070 A 
HETATM   25  C   UNL     1      -6.006  -2.672 -34.272  1.00  0.00    -0.006 A 
HETATM   26  C   UNL     1      -3.758  -3.210 -33.613  1.00  0.00     0.074 A 
HETATM   27  C   UNL     1      -7.026  -1.715 -34.364  1.00  0.00     0.033 A 
HETATM   28  C   UNL     1      -6.177  -3.985 -34.749  1.00  0.00     0.017 A 
HETATM   29  C   UNL     1      -5.132  -4.900 -34.662  1.00  0.00     0.043 A 
HETATM   30  C   UNL     1      -3.930  -4.503 -34.093  1.00  0.00     0.118 A 
HETATM   31  F   UNL     1      -2.921  -5.378 -34.011  1.00  0.00    -0.206 F 
ENDBRANCH   1  20
TORSDOF 3
ENDMDL
MODEL 2
REMARK VINA RESULT:      -9.7      5.176      8.852
REMARK  3 active torsions:
REMARK  status: ('A' for Active; 'I' for Inactive)
REMARK    1  A    between atoms: C_7  and  C_8 
REMARK       I    between atoms: C_8  and  N_9 
REMARK    2  A    between atoms: N_9  and  C_10 
REMARK    3  A    between atoms: C_17  and  C_18 
REMARK       I    between atoms: C_18  and  N_19 
ROOT
HETATM    1  C   UNL     1      -4.815   2.237 -31.982  1.00  0.00     0.258 C 
HETATM    2  N   UNL     1      -4.138   3.195 -32.720  1.00  0.00    -0.323 N 
HETATM    3  O   UNL     1      -5.036   2.292 -30.779  1.00  0.00    -0.267 OA
HETATM    4  H   UNL     1      -4.126   3.104 -33.726  1.00  0.00     0.169 HD
ENDROOT
BRANCH   2   5
HETATM    5  C   UNL     1      -3.418   4.303 -32.217  1.00  0.00     0.036 A 
HETATM    6  C   UNL     1      -2.153   4.194 -31.622  1.00  0.00     0.046 A 
HETATM    7  C   UNL     1      -1.470   5.366 -31.230  1.00  0.00     0.030 A 
HETATM    8  C   UNL     1      -2.093   6.596 -31.401  1.00  0.00     0.063 A 
HETATM    9  C   UNL     1      -0.185   5.676 -30.683  1.00  0.00     0.156 A 
HETATM   10  N   UNL     1      -1.209   7.521 -30.919  1.00  0.00    -0.277 N 
HETATM   11  C   UNL     1      -3.358   6.737 -31.970  1.00  0.00     0.034 A 
HETATM   12  H   UNL     1      -1.336   8.525 -30.872  1.00  0.00     0.189 HD
HETATM   13  N   UNL     1      -0.044   7.007 -30.493  1.00  0.00    -0.168 NA
HETATM   14  C   UNL     1      -3.997   5.566 -32.395  1.00  0.00     0.032 A 
BRANCH   9  15
HETATM   15  C   UNL     1       0.906   4.742 -30.375  1.00  0.00     0.270 C 
HETATM   16  N   UNL     1       0.987   4.399 -29.052  1.00  0.00    -0.365 N 
HETATM   17  H   UNL     1       0.335   4.822 -28.402  1.00  0.00     0.159 HD
HETATM   18  H   UNL     1       1.737   3.805 -28.737  1.00  0.00     0.159 HD
HETATM   19  O   UNL     1       1.706   4.305 -31.193  1.00  0.00    -0.266 OA
ENDBRANCH   9  15
ENDBRANCH   2   5
BRANCH   1  20
HETATM   20  C   UNL     1      -5.304   1.060 -32.760  1.00  0.00     0.057 A 
HETATM   21  C   UNL     1      -6.577   1.047 -33.336  1.00  0.00     0.047 A 
HETATM   22  C   UNL     1      -7.513   2.221 -33.279  1.00  0.00     0.071 C 
HETATM   23  N   UNL     1      -7.069  -0.043 -33.992  1.00  0.00    -0.252 NA
HETATM   24  C   UNL     1      -6.315  -1.147 -34.099  1.00  0.00     0.070 A 
HETATM   25  C   UNL     1      -5.008  -1.213 -33.575  1.00  0.00    -0.006 A 
HETATM   26  C   UNL     1      -6.830  -2.262 -34.739  1.00  0.00     0.074 A 
HETATM   27  C   UNL     1      -4.506  -0.082 -32.916  1.00  0.00     0.033 A 
HETATM   28  C   UNL     1      -4.249  -2.391 -33.707  1.00  0.00     0.017 A 
HETATM   29  C   UNL     1      -4.792  -3.501 -34.348  1.00  0.00     0.043 A 
HETATM   30  C   UNL     1      -6.079  -3.426 -34.858  1.00  0.00     0.118 A 
HETATM   31  F   UNL     1      -6.606  -4.492 -35.472  1.00  0.00    -0.206 F 
ENDBRANCH   1  20
TORSDOF 3
ENDMDL
MODEL 3
REMARK VINA RESULT:      -9.3      4.080      5.757
REMARK  3 active torsions:
REMARK  status: ('A' for Active; 'I' for Inactive)
REMARK    1  A    between atoms: C_7  and  C_8 
REMARK       I    between atoms: C_8  and  N_9 
REMARK    2  A    between atoms: N_9  and  C_10 
REMARK    3  A    between atoms: C_17  and  C_18 
REMARK       I    between atoms: C_18  and  N_19 
ROOT
HETATM    1  C   UNL     1      -6.213   1.515 -32.526  1.00  0.00     0.258 C 
HETATM    2  N   UNL     1      -6.621   1.632 -31.207  1.00  0.00    -0.323 N 
HETATM    3  O   UNL     1      -6.184   2.425 -33.345  1.00  0.00    -0.267 OA
HETATM    4  H   UNL     1      -6.482   0.843 -30.592  1.00  0.00     0.169 HD
ENDROOT
BRANCH   2   5
HETATM    5  C   UNL     1      -7.251   2.746 -30.609  1.00  0.00     0.036 A 
HETATM    6  C   UNL     1      -6.601   3.613 -29.719  1.00  0.00     0.046 A 
HETATM    7  C   UNL     1      -7.282   4.753 -29.240  1.00  0.00     0.030 A 
HETATM    8  C   UNL     1      -8.601   4.958 -29.626  1.00  0.00     0.063 A 
HETATM    9  C   UNL     1      -6.960   5.876 -28.417  1.00  0.00     0.156 A 
HETATM   10  N   UNL     1      -8.989   6.108 -28.998  1.00  0.00    -0.277 N 
HETATM   11  C   UNL     1      -9.284   4.104 -30.493  1.00  0.00     0.034 A 
HETATM   12  H   UNL     1      -9.898   6.554 -29.040  1.00  0.00     0.189 HD
HETATM   13  N   UNL     1      -8.024   6.698 -28.273  1.00  0.00    -0.168 NA
HETATM   14  C   UNL     1      -8.573   3.007 -30.992  1.00  0.00     0.032 A 
BRANCH   9  15
HETATM   15  C   UNL     1      -5.665   6.193 -27.801  1.00  0.00     0.270 C 
HETATM   16  N   UNL     1      -5.183   5.207 -26.982  1.00  0.00    -0.365 N 
HETATM   17  H   UNL     1      -5.746   4.377 -26.841  1.00  0.00     0.159 HD
HETATM   18  H   UNL     1      -4.326   5.357 -26.474  1.00  0.00     0.159 HD
HETATM   19  O   UNL     1      -5.051   7.241 -27.960  1.00  0.00    -0.266 OA
ENDBRANCH   9  15
ENDBRANCH   2   5
BRANCH   1  20
HETATM   20  C   UNL     1      -5.773   0.149 -32.940  1.00  0.00     0.057 A 
HETATM   21  C   UNL     1      -4.443  -0.258 -32.807  1.00  0.00     0.047 A 
HETATM   22  C   UNL     1      -3.382   0.604 -32.184  1.00  0.00     0.071 C 
HETATM   23  N   UNL     1      -4.006  -1.475 -33.241  1.00  0.00    -0.252 NA
HETATM   24  C   UNL     1      -4.873  -2.323 -33.814  1.00  0.00     0.070 A 
HETATM   25  C   UNL     1      -6.239  -2.008 -33.963  1.00  0.00    -0.006 A 
HETATM   26  C   UNL     1      -4.419  -3.546 -34.281  1.00  0.00     0.074 A 
HETATM   27  C   UNL     1      -6.680  -0.761 -33.500  1.00  0.00     0.033 A 
HETATM   28  C   UNL     1      -7.116  -2.926 -34.572  1.00  0.00     0.017 A 
HETATM   29  C   UNL     1      -6.635  -4.145 -35.040  1.00  0.00     0.043 A 
HETATM   30  C   UNL     1      -5.288  -4.443 -34.890  1.00  0.00     0.118 A 
HETATM   31  F   UNL     1      -4.820  -5.613 -35.342  1.00  0.00    -0.206 F 
ENDBRANCH   1  20
TORSDOF 3
ENDMDL
MODEL 4
REMARK VINA RESULT:      -9.2      1.965      2.932
REMARK  3 active torsions:
REMARK  status: ('A' for Active; 'I' for Inactive)
REMARK    1  A    between atoms: C_7  and  C_8 
REMARK       I    between atoms: C_8  and  N_9 
REMARK    2  A    between atoms: N_9  and  C_10 
REMARK    3  A    between atoms: C_17  and  C_18 
REMARK       I    between atoms: C_18  and  N_19 
ROOT
HETATM    1  C   UNL     1      -7.725   0.652 -34.459  1.00  0.00     0.258 C 
HETATM    2  N   UNL     1      -8.813   0.704 -33.602  1.00  0.00    -0.323 N 
HETATM    3  O   UNL     1      -7.538   1.392 -35.416  1.00  0.00    -0.267 OA
HETATM    4  H   UNL     1      -8.797   0.127 -32.773  1.00  0.00     0.169 HD
ENDROOT
BRANCH   2   5
HETATM    5  C   UNL     1      -9.988   1.470 -33.767  1.00  0.00     0.036 A 
HETATM    6  C   UNL     1      -9.979   2.838 -34.077  1.00  0.00     0.046 A 
HETATM    7  C   UNL     1     -11.202   3.502 -34.313  1.00  0.00     0.030 A 
HETATM    8  C   UNL     1     -12.389   2.792 -34.183  1.00  0.00     0.063 A 
HETATM    9  C   UNL     1     -11.601   4.815 -34.714  1.00  0.00     0.156 A 
HETATM   10  N   UNL     1     -13.382   3.691 -34.448  1.00  0.00    -0.277 N 
HETATM   11  C   UNL     1     -12.434   1.436 -33.855  1.00  0.00     0.034 A 
HETATM   12  H   UNL     1     -14.382   3.525 -34.432  1.00  0.00     0.189 HD
HETATM   13  N   UNL     1     -12.948   4.916 -34.787  1.00  0.00    -0.168 NA
HETATM   14  C   UNL     1     -11.208   0.787 -33.672  1.00  0.00     0.032 A 
BRANCH   9  15
HETATM   15  C   UNL     1     -10.733   5.949 -35.058  1.00  0.00     0.270 C 
HETATM   16  N   UNL     1     -11.123   7.137 -34.499  1.00  0.00    -0.365 N 
HETATM   17  H   UNL     1     -11.966   7.154 -33.938  1.00  0.00     0.159 HD
HETATM   18  H   UNL     1     -10.619   7.981 -34.722  1.00  0.00     0.159 HD
HETATM   19  O   UNL     1      -9.755   5.885 -35.792  1.00  0.00    -0.266 OA
ENDBRANCH   9  15
ENDBRANCH   2   5
BRANCH   1  20
HETATM   20  C   UNL     1      -6.716  -0.405 -34.147  1.00  0.00     0.057 A 
HETATM   21  C   UNL     1      -5.552  -0.112 -33.433  1.00  0.00     0.047 A 
HETATM   22  C   UNL     1      -5.258   1.251 -32.872  1.00  0.00     0.071 C 
HETATM   23  N   UNL     1      -4.586  -1.046 -33.197  1.00  0.00    -0.252 NA
HETATM   24  C   UNL     1      -4.749  -2.295 -33.657  1.00  0.00     0.070 A 
HETATM   25  C   UNL     1      -5.905  -2.689 -34.361  1.00  0.00    -0.006 A 
HETATM   26  C   UNL     1      -3.752  -3.233 -33.442  1.00  0.00     0.074 A 
HETATM   27  C   UNL     1      -6.898  -1.724 -34.585  1.00  0.00     0.033 A 
HETATM   28  C   UNL     1      -6.037  -4.010 -34.828  1.00  0.00     0.017 A 
HETATM   29  C   UNL     1      -5.018  -4.932 -34.606  1.00  0.00     0.043 A 
HETATM   30  C   UNL     1      -3.884  -4.534 -33.914  1.00  0.00     0.118 A 
HETATM   31  F   UNL     1      -2.900  -5.417 -33.701  1.00  0.00    -0.206 F 
ENDBRANCH   1  20
TORSDOF 3
ENDMDL
MODEL 5
REMARK VINA RESULT:      -9.2      3.734      8.803
REMARK  3 active torsions:
REMARK  status: ('A' for Active; 'I' for Inactive)
REMARK    1  A    between atoms: C_7  and  C_8 
REMARK       I    between atoms: C_8  and  N_9 
REMARK    2  A    between atoms: N_9  and  C_10 
REMARK    3  A    between atoms: C_17  and  C_18 
REMARK       I    between atoms: C_18  and  N_19 
ROOT
HETATM    1  C   UNL     1      -8.697   1.525 -33.208  1.00  0.00     0.258 C 
HETATM    2  N   UNL     1      -8.250   0.657 -32.223  1.00  0.00    -0.323 N 
HETATM    3  O   UNL     1      -7.997   2.050 -34.064  1.00  0.00    -0.267 OA
HETATM    4  H   UNL     1      -8.938   0.188 -31.652  1.00  0.00     0.169 HD
ENDROOT
BRANCH   2   5
HETATM    5  C   UNL     1      -6.908   0.363 -31.897  1.00  0.00     0.036 A 
HETATM    6  C   UNL     1      -6.216  -0.745 -32.407  1.00  0.00     0.046 A 
HETATM    7  C   UNL     1      -4.849  -0.911 -32.098  1.00  0.00     0.030 A 
HETATM    8  C   UNL     1      -4.236   0.006 -31.253  1.00  0.00     0.063 A 
HETATM    9  C   UNL     1      -3.811  -1.823 -32.466  1.00  0.00     0.156 A 
HETATM   10  N   UNL     1      -2.944  -0.422 -31.127  1.00  0.00    -0.277 N 
HETATM   11  C   UNL     1      -4.900   1.107 -30.711  1.00  0.00     0.034 A 
HETATM   12  H   UNL     1      -2.208  -0.000 -30.572  1.00  0.00     0.189 HD
HETATM   13  N   UNL     1      -2.646  -1.511 -31.855  1.00  0.00    -0.168 NA
HETATM   14  C   UNL     1      -6.242   1.277 -31.070  1.00  0.00     0.032 A 
BRANCH   9  15
HETATM   15  C   UNL     1      -3.901  -2.951 -33.403  1.00  0.00     0.270 C 
HETATM   16  N   UNL     1      -3.354  -4.113 -32.929  1.00  0.00    -0.365 N 
HETATM   17  H   UNL     1      -2.915  -4.104 -32.016  1.00  0.00     0.159 HD
HETATM   18  H   UNL     1      -3.321  -4.927 -33.522  1.00  0.00     0.159 HD
HETATM   19  O   UNL     1      -4.392  -2.893 -34.524  1.00  0.00    -0.266 OA
ENDBRANCH   9  15
ENDBRANCH   2   5
BRANCH   1  20
HETATM   20  C   UNL     1     -10.163   1.810 -33.190  1.00  0.00     0.057 A 
HETATM   21  C   UNL     1     -10.669   2.987 -32.633  1.00  0.00     0.047 A 
HETATM   22  C   UNL     1      -9.791   4.072 -32.077  1.00  0.00     0.071 C 
HETATM   23  N   UNL     1     -12.007   3.236 -32.545  1.00  0.00    -0.252 NA
HETATM   24  C   UNL     1     -12.880   2.330 -33.010  1.00  0.00     0.070 A 
HETATM   25  C   UNL     1     -12.459   1.128 -33.615  1.00  0.00    -0.006 A 
HETATM   26  C   UNL     1     -14.239   2.572 -32.891  1.00  0.00     0.074 A 
HETATM   27  C   UNL     1     -11.082   0.890 -33.714  1.00  0.00     0.033 A 
HETATM   28  C   UNL     1     -13.408   0.202 -34.089  1.00  0.00     0.017 A 
HETATM   29  C   UNL     1     -14.768   0.465 -33.952  1.00  0.00     0.043 A 
HETATM   30  C   UNL     1     -15.171   1.650 -33.353  1.00  0.00     0.118 A 
HETATM   31  F   UNL     1     -16.477   1.905 -33.215  1.00  0.00    -0.206 F 
ENDBRANCH   1  20
TORSDOF 3
ENDMDL
MODEL 6
REMARK VINA RESULT:      -9.2      5.220      8.374
REMARK  3 active torsions:
REMARK  status: ('A' for Active; 'I' for Inactive)
REMARK    1  A    between atoms: C_7  and  C_8 
REMARK       I    between atoms: C_8  and  N_9 
REMARK    2  A    between atoms: N_9  and  C_10 
REMARK    3  A    between atoms: C_17  and  C_18 
REMARK       I    between atoms: C_18  and  N_19 
ROOT
HETATM    1  C   UNL     1      -3.795   1.705 -32.100  1.00  0.00     0.258 C 
HETATM    2  N   UNL     1      -3.937   2.965 -32.658  1.00  0.00    -0.323 N 
HETATM    3  O   UNL     1      -3.068   1.422 -31.157  1.00  0.00    -0.267 OA
HETATM    4  H   UNL     1      -4.660   3.104 -33.349  1.00  0.00     0.169 HD
ENDROOT
BRANCH   2   5
HETATM    5  C   UNL     1      -3.150   4.107 -32.387  1.00  0.00     0.036 A 
HETATM    6  C   UNL     1      -3.355   4.938 -31.277  1.00  0.00     0.046 A 
HETATM    7  C   UNL     1      -2.462   6.005 -31.037  1.00  0.00     0.030 A 
HETATM    8  C   UNL     1      -1.430   6.233 -31.939  1.00  0.00     0.063 A 
HETATM    9  C   UNL     1      -2.285   6.992 -30.017  1.00  0.00     0.156 A 
HETATM   10  N   UNL     1      -0.761   7.324 -31.458  1.00  0.00    -0.277 N 
HETATM   11  C   UNL     1      -1.211   5.439 -33.064  1.00  0.00     0.034 A 
HETATM   12  H   UNL     1       0.044   7.782 -31.870  1.00  0.00     0.189 HD
HETATM   13  N   UNL     1      -1.237   7.800 -30.295  1.00  0.00    -0.168 NA
HETATM   14  C   UNL     1      -2.079   4.358 -33.256  1.00  0.00     0.032 A 
BRANCH   9  15
HETATM   15  C   UNL     1      -3.066   7.155 -28.784  1.00  0.00     0.270 C 
HETATM   16  N   UNL     1      -2.393   6.794 -27.648  1.00  0.00    -0.365 N 
HETATM   17  H   UNL     1      -1.454   6.425 -27.739  1.00  0.00     0.159 HD
HETATM   18  H   UNL     1      -2.867   6.821 -26.759  1.00  0.00     0.159 HD
HETATM   19  O   UNL     1      -4.224   7.552 -28.736  1.00  0.00    -0.266 OA
ENDBRANCH   9  15
ENDBRANCH   2   5
BRANCH   1  20
HETATM   20  C   UNL     1      -4.624   0.632 -32.727  1.00  0.00     0.057 A 
HETATM   21  C   UNL     1      -6.019   0.711 -32.753  1.00  0.00     0.047 A 
HETATM   22  C   UNL     1      -6.781   1.893 -32.223  1.00  0.00     0.071 C 
HETATM   23  N   UNL     1      -6.797  -0.288 -33.259  1.00  0.00    -0.252 NA
HETATM   24  C   UNL     1      -6.217  -1.390 -33.757  1.00  0.00     0.070 A 
HETATM   25  C   UNL     1      -4.816  -1.543 -33.800  1.00  0.00    -0.006 A 
HETATM   26  C   UNL     1      -7.011  -2.416 -34.242  1.00  0.00     0.074 A 
HETATM   27  C   UNL     1      -4.026  -0.504 -33.291  1.00  0.00     0.033 A 
HETATM   28  C   UNL     1      -4.246  -2.717 -34.329  1.00  0.00     0.017 A 
HETATM   29  C   UNL     1      -5.065  -3.737 -34.803  1.00  0.00     0.043 A 
HETATM   30  C   UNL     1      -6.442  -3.576 -34.755  1.00  0.00     0.118 A 
HETATM   31  F   UNL     1      -7.235  -4.556 -35.207  1.00  0.00    -0.206 F 
ENDBRANCH   1  20
TORSDOF 3
ENDMDL
MODEL 7
REMARK VINA RESULT:      -9.1      5.515      8.034
REMARK  3 active torsions:
REMARK  status: ('A' for Active; 'I' for Inactive)
REMARK    1  A    between atoms: C_7  and  C_8 
REMARK       I    between atoms: C_8  and  N_9 
REMARK    2  A    between atoms: N_9  and  C_10 
REMARK    3  A    between atoms: C_17  and  C_18 
REMARK       I    between atoms: C_18  and  N_19 
ROOT
HETATM    1  C   UNL     1      -4.943   1.361 -31.986  1.00  0.00     0.258 C 
HETATM    2  N   UNL     1      -4.268   2.297 -32.754  1.00  0.00    -0.323 N 
HETATM    3  O   UNL     1      -5.585   1.603 -30.973  1.00  0.00    -0.267 OA
HETATM    4  H   UNL     1      -3.879   2.000 -33.638  1.00  0.00     0.169 HD
ENDROOT
BRANCH   2   5
HETATM    5  C   UNL     1      -4.029   3.651 -32.428  1.00  0.00     0.036 A 
HETATM    6  C   UNL     1      -2.859   4.096 -31.796  1.00  0.00     0.046 A 
HETATM    7  C   UNL     1      -2.667   5.479 -31.590  1.00  0.00     0.030 A 
HETATM    8  C   UNL     1      -3.669   6.361 -31.976  1.00  0.00     0.063 A 
HETATM    9  C   UNL     1      -1.624   6.310 -31.075  1.00  0.00     0.156 A 
HETATM   10  N   UNL     1      -3.211   7.603 -31.636  1.00  0.00    -0.277 N 
HETATM   11  C   UNL     1      -4.854   5.950 -32.587  1.00  0.00     0.034 A 
HETATM   12  H   UNL     1      -3.688   8.489 -31.759  1.00  0.00     0.189 HD
HETATM   13  N   UNL     1      -1.977   7.615 -31.105  1.00  0.00    -0.168 NA
HETATM   14  C   UNL     1      -5.001   4.578 -32.825  1.00  0.00     0.032 A 
BRANCH   9  15
HETATM   15  C   UNL     1      -0.301   5.891 -30.593  1.00  0.00     0.270 C 
HETATM   16  N   UNL     1      -0.333   5.205 -29.408  1.00  0.00    -0.365 N 
HETATM   17  H   UNL     1      -1.227   5.070 -28.952  1.00  0.00     0.159 HD
HETATM   18  H   UNL     1       0.531   4.924 -28.972  1.00  0.00     0.159 HD
HETATM   19  O   UNL     1       0.759   6.133 -31.157  1.00  0.00    -0.266 OA
ENDBRANCH   9  15
ENDBRANCH   2   5
BRANCH   1  20
HETATM   20  C   UNL     1      -4.860  -0.047 -32.477  1.00  0.00     0.057 A 
HETATM   21  C   UNL     1      -3.756  -0.854 -32.190  1.00  0.00     0.047 A 
HETATM   22  C   UNL     1      -2.615  -0.400 -31.324  1.00  0.00     0.071 C 
HETATM   23  N   UNL     1      -3.628  -2.118 -32.685  1.00  0.00    -0.252 NA
HETATM   24  C   UNL     1      -4.591  -2.621 -33.472  1.00  0.00     0.070 A 
HETATM   25  C   UNL     1      -5.754  -1.890 -33.789  1.00  0.00    -0.006 A 
HETATM   26  C   UNL     1      -4.443  -3.894 -33.997  1.00  0.00     0.074 A 
HETATM   27  C   UNL     1      -5.882  -0.597 -33.263  1.00  0.00     0.033 A 
HETATM   28  C   UNL     1      -6.741  -2.453 -34.620  1.00  0.00     0.017 A 
HETATM   29  C   UNL     1      -6.567  -3.732 -35.142  1.00  0.00     0.043 A 
HETATM   30  C   UNL     1      -5.417  -4.441 -34.824  1.00  0.00     0.118 A 
HETATM   31  F   UNL     1      -5.243  -5.669 -35.327  1.00  0.00    -0.206 F 
ENDBRANCH   1  20
TORSDOF 3
ENDMDL
MODEL 8
REMARK VINA RESULT:      -8.9      1.906      2.560
REMARK  3 active torsions:
REMARK  status: ('A' for Active; 'I' for Inactive)
REMARK    1  A    between atoms: C_7  and  C_8 
REMARK       I    between atoms: C_8  and  N_9 
REMARK    2  A    between atoms: N_9  and  C_10 
REMARK    3  A    between atoms: C_17  and  C_18 
REMARK       I    between atoms: C_18  and  N_19 
ROOT
HETATM    1  C   UNL     1      -6.771   1.540 -32.876  1.00  0.00     0.258 C 
HETATM    2  N   UNL     1      -7.645   1.582 -31.801  1.00  0.00    -0.323 N 
HETATM    3  O   UNL     1      -6.464   2.493 -33.581  1.00  0.00    -0.267 OA
HETATM    4  H   UNL     1      -7.724   0.763 -31.216  1.00  0.00     0.169 HD
ENDROOT
BRANCH   2   5
HETATM    5  C   UNL     1      -8.483   2.657 -31.430  1.00  0.00     0.036 A 
HETATM    6  C   UNL     1      -9.815   2.779 -31.853  1.00  0.00     0.046 A 
HETATM    7  C   UNL     1     -10.605   3.839 -31.358  1.00  0.00     0.030 A 
HETATM    8  C   UNL     1     -10.024   4.766 -30.501  1.00  0.00     0.063 A 
HETATM    9  C   UNL     1     -11.968   4.252 -31.478  1.00  0.00     0.156 A 
HETATM   10  N   UNL     1     -11.012   5.666 -30.215  1.00  0.00    -0.277 N 
HETATM   11  C   UNL     1      -8.697   4.687 -30.077  1.00  0.00     0.034 A 
HETATM   12  H   UNL     1     -10.943   6.488 -29.628  1.00  0.00     0.189 HD
HETATM   13  N   UNL     1     -12.201   5.382 -30.772  1.00  0.00    -0.168 NA
HETATM   14  C   UNL     1      -7.947   3.600 -30.542  1.00  0.00     0.032 A 
BRANCH   9  15
HETATM   15  C   UNL     1     -13.046   3.579 -32.215  1.00  0.00     0.270 C 
HETATM   16  N   UNL     1     -13.824   2.762 -31.439  1.00  0.00    -0.365 N 
HETATM   17  H   UNL     1     -13.591   2.660 -30.459  1.00  0.00     0.159 HD
HETATM   18  H   UNL     1     -14.555   2.217 -31.868  1.00  0.00     0.159 HD
HETATM   19  O   UNL     1     -13.249   3.693 -33.418  1.00  0.00    -0.266 OA
ENDBRANCH   9  15
ENDBRANCH   2   5
BRANCH   1  20
HETATM   20  C   UNL     1      -6.171   0.202 -33.158  1.00  0.00     0.057 A 
HETATM   21  C   UNL     1      -4.811  -0.045 -32.951  1.00  0.00     0.047 A 
HETATM   22  C   UNL     1      -3.874   0.978 -32.373  1.00  0.00     0.071 C 
HETATM   23  N   UNL     1      -4.230  -1.237 -33.267  1.00  0.00    -0.252 NA
HETATM   24  C   UNL     1      -4.978  -2.219 -33.791  1.00  0.00     0.070 A 
HETATM   25  C   UNL     1      -6.363  -2.070 -34.007  1.00  0.00    -0.006 A 
HETATM   26  C   UNL     1      -4.377  -3.418 -34.139  1.00  0.00     0.074 A 
HETATM   27  C   UNL     1      -6.953  -0.846 -33.665  1.00  0.00     0.033 A 
HETATM   28  C   UNL     1      -7.113  -3.125 -34.561  1.00  0.00     0.017 A 
HETATM   29  C   UNL     1      -6.485  -4.318 -34.910  1.00  0.00     0.043 A 
HETATM   30  C   UNL     1      -5.121  -4.453 -34.694  1.00  0.00     0.118 A 
HETATM   31  F   UNL     1      -4.513  -5.597 -35.031  1.00  0.00    -0.206 F 
ENDBRANCH   1  20
TORSDOF 3
ENDMDL
MODEL 9
REMARK VINA RESULT:      -8.6      1.974      2.611
REMARK  3 active torsions:
REMARK  status: ('A' for Active; 'I' for Inactive)
REMARK    1  A    between atoms: C_7  and  C_8 
REMARK       I    between atoms: C_8  and  N_9 
REMARK    2  A    between atoms: N_9  and  C_10 
REMARK    3  A    between atoms: C_17  and  C_18 
REMARK       I    between atoms: C_18  and  N_19 
ROOT
HETATM    1  C   UNL     1      -8.133   1.325 -33.849  1.00  0.00     0.258 C 
HETATM    2  N   UNL     1      -9.399   1.011 -33.381  1.00  0.00    -0.323 N 
HETATM    3  O   UNL     1      -7.792   2.410 -34.304  1.00  0.00    -0.267 OA
HETATM    4  H   UNL     1      -9.530   0.126 -32.912  1.00  0.00     0.169 HD
ENDROOT
BRANCH   2   5
HETATM    5  C   UNL     1     -10.569   1.793 -33.506  1.00  0.00     0.036 A 
HETATM    6  C   UNL     1     -11.080   2.587 -32.470  1.00  0.00     0.046 A 
HETATM    7  C   UNL     1     -12.204   3.406 -32.715  1.00  0.00     0.030 A 
HETATM    8  C   UNL     1     -12.805   3.365 -33.967  1.00  0.00     0.063 A 
HETATM    9  C   UNL     1     -12.951   4.378 -31.979  1.00  0.00     0.156 A 
HETATM   10  N   UNL     1     -13.858   4.232 -33.893  1.00  0.00    -0.277 N 
HETATM   11  C   UNL     1     -12.335   2.571 -35.013  1.00  0.00     0.034 A 
HETATM   12  H   UNL     1     -14.530   4.447 -34.621  1.00  0.00     0.189 HD
HETATM   13  N   UNL     1     -13.970   4.873 -32.718  1.00  0.00    -0.168 NA
HETATM   14  C   UNL     1     -11.191   1.803 -34.762  1.00  0.00     0.032 A 
BRANCH   9  15
HETATM   15  C   UNL     1     -12.694   4.861 -30.616  1.00  0.00     0.270 C 
HETATM   16  N   UNL     1     -11.424   5.335 -30.424  1.00  0.00    -0.365 N 
HETATM   17  H   UNL     1     -10.770   5.291 -31.196  1.00  0.00     0.159 HD
HETATM   18  H   UNL     1     -11.139   5.638 -29.507  1.00  0.00     0.159 HD
HETATM   19  O   UNL     1     -13.507   4.838 -29.700  1.00  0.00    -0.266 OA
ENDBRANCH   9  15
ENDBRANCH   2   5
BRANCH   1  20
HETATM   20  C   UNL     1      -7.130   0.221 -33.768  1.00  0.00     0.057 A 
HETATM   21  C   UNL     1      -5.868   0.425 -33.204  1.00  0.00     0.047 A 
HETATM   22  C   UNL     1      -5.450   1.728 -32.584  1.00  0.00     0.071 C 
HETATM   23  N   UNL     1      -4.914  -0.549 -33.182  1.00  0.00    -0.252 NA
HETATM   24  C   UNL     1      -5.183  -1.751 -33.711  1.00  0.00     0.070 A 
HETATM   25  C   UNL     1      -6.440  -2.055 -34.274  1.00  0.00    -0.006 A 
HETATM   26  C   UNL     1      -4.201  -2.728 -33.714  1.00  0.00     0.074 A 
HETATM   27  C   UNL     1      -7.418  -1.052 -34.279  1.00  0.00     0.033 A 
HETATM   28  C   UNL     1      -6.682  -3.329 -34.822  1.00  0.00     0.017 A 
HETATM   29  C   UNL     1      -5.676  -4.292 -34.820  1.00  0.00     0.043 A 
HETATM   30  C   UNL     1      -4.444  -3.981 -34.265  1.00  0.00     0.118 A 
HETATM   31  F   UNL     1      -3.472  -4.902 -34.264  1.00  0.00    -0.206 F 
ENDBRANCH   1  20
TORSDOF 3
ENDMDL
MODEL 10
REMARK VINA RESULT:      -8.5      4.581      6.623
REMARK  3 active torsions:
REMARK  status: ('A' for Active; 'I' for Inactive)
REMARK    1  A    between atoms: C_7  and  C_8 
REMARK       I    between atoms: C_8  and  N_9 
REMARK    2  A    between atoms: N_9  and  C_10 
REMARK    3  A    between atoms: C_17  and  C_18 
REMARK       I    between atoms: C_18  and  N_19 
ROOT
HETATM    1  C   UNL     1      -5.655   3.348 -33.417  1.00  0.00     0.258 C 
HETATM    2  N   UNL     1      -6.581   3.091 -32.419  1.00  0.00    -0.323 N 
HETATM    3  O   UNL     1      -5.835   3.177 -34.616  1.00  0.00    -0.267 OA
HETATM    4  H   UNL     1      -6.366   3.390 -31.478  1.00  0.00     0.169 HD
ENDROOT
BRANCH   2   5
HETATM    5  C   UNL     1      -7.815   2.417 -32.558  1.00  0.00     0.036 A 
HETATM    6  C   UNL     1      -8.904   2.943 -33.267  1.00  0.00     0.046 A 
HETATM    7  C   UNL     1     -10.067   2.159 -33.432  1.00  0.00     0.030 A 
HETATM    8  C   UNL     1     -10.119   0.902 -32.842  1.00  0.00     0.063 A 
HETATM    9  C   UNL     1     -11.312   2.294 -34.122  1.00  0.00     0.156 A 
HETATM   10  N   UNL     1     -11.353   0.405 -33.154  1.00  0.00    -0.277 N 
HETATM   11  C   UNL     1      -9.061   0.358 -32.113  1.00  0.00     0.034 A 
HETATM   12  H   UNL     1     -11.742  -0.489 -32.877  1.00  0.00     0.189 HD
HETATM   13  N   UNL     1     -12.094   1.207 -33.936  1.00  0.00    -0.168 NA
HETATM   14  C   UNL     1      -7.901   1.133 -32.004  1.00  0.00     0.032 A 
BRANCH   9  15
HETATM   15  C   UNL     1     -11.748   3.410 -34.972  1.00  0.00     0.270 C 
HETATM   16  N   UNL     1     -13.088   3.681 -34.888  1.00  0.00    -0.365 N 
HETATM   17  H   UNL     1     -13.663   3.097 -34.294  1.00  0.00     0.159 HD
HETATM   18  H   UNL     1     -13.489   4.395 -35.475  1.00  0.00     0.159 HD
HETATM   19  O   UNL     1     -11.018   4.049 -35.719  1.00  0.00    -0.266 OA
ENDBRANCH   9  15
ENDBRANCH   2   5
BRANCH   1  20
HETATM   20  C   UNL     1      -4.342   3.886 -32.947  1.00  0.00     0.057 A 
HETATM   21  C   UNL     1      -3.473   3.111 -32.175  1.00  0.00     0.047 A 
HETATM   22  C   UNL     1      -3.751   1.678 -31.820  1.00  0.00     0.071 C 
HETATM   23  N   UNL     1      -2.302   3.604 -31.679  1.00  0.00    -0.252 NA
HETATM   24  C   UNL     1      -1.958   4.875 -31.937  1.00  0.00     0.070 A 
HETATM   25  C   UNL     1      -2.759   5.720 -32.732  1.00  0.00    -0.006 A 
HETATM   26  C   UNL     1      -0.783   5.381 -31.405  1.00  0.00     0.074 A 
HETATM   27  C   UNL     1      -3.952   5.198 -33.248  1.00  0.00     0.033 A 
HETATM   28  C   UNL     1      -2.363   7.048 -32.977  1.00  0.00     0.017 A 
HETATM   29  C   UNL     1      -1.181   7.536 -32.426  1.00  0.00     0.043 A 
HETATM   30  C   UNL     1      -0.402   6.696 -31.644  1.00  0.00     0.118 A 
HETATM   31  F   UNL     1       0.733   7.163 -31.109  1.00  0.00    -0.206 F 
ENDBRANCH   1  20
TORSDOF 3
ENDMDL
