MODEL 1
REMARK VINA RESULT:      -9.2      0.000      0.000
REMARK  6 active torsions:
REMARK  status: ('A' for Active; 'I' for Inactive)
REMARK    1  A    between atoms: C_2  and  C_3 
REMARK    2  A    between atoms: C_3  and  N_4 
REMARK       I    between atoms: N_4  and  C_5 
REMARK    3  A    between atoms: C_5  and  C_6 
REMARK    4  A    between atoms: C_8  and  N_9 
REMARK       I    between atoms: N_9  and  C_10 
REMARK    5  A    between atoms: C_10  and  C_11 
REMARK    6  A    between atoms: C_15  and  C_16 
ROOT
HETATM    1  N   UNL     1      -3.002   3.903 -32.584  1.00  0.00    -0.322 N 
HETATM    2  C   UNL     1      -4.199   3.636 -31.946  1.00  0.00     0.274 C 
HETATM    3  O   UNL     1      -4.690   4.324 -31.057  1.00  0.00    -0.266 OA
HETATM    4  H   UNL     1      -2.818   3.393 -33.436  1.00  0.00     0.169 HD
ENDROOT
BRANCH   1   5
HETATM    5  C   UNL     1      -2.043   4.873 -32.219  1.00  0.00     0.036 A 
HETATM    6  C   UNL     1      -1.352   4.850 -31.004  1.00  0.00     0.046 A 
HETATM    7  C   UNL     1      -0.388   5.826 -30.716  1.00  0.00     0.034 A 
HETATM    8  C   UNL     1      -0.103   6.820 -31.659  1.00  0.00     0.017 A 
HETATM    9  C   UNL     1      -0.784   6.843 -32.875  1.00  0.00     0.003 A 
HETATM   10  C   UNL     1      -1.746   5.871 -33.155  1.00  0.00     0.029 A 
BRANCH   7  11
HETATM   11  C   UNL     1       0.399   5.806 -29.449  1.00  0.00     0.251 C 
HETATM   12  N   UNL     1       0.377   6.955 -28.686  1.00  0.00    -0.357 N 
HETATM   13  H   UNL     1      -0.026   7.803 -29.065  1.00  0.00     0.162 HD
HETATM   14  O   UNL     1       1.035   4.805 -29.142  1.00  0.00    -0.268 OA
BRANCH  12  15
HETATM   15  C   UNL     1       1.096   7.051 -27.433  1.00  0.00     0.122 C 
BRANCH  15  16
HETATM   16  C   UNL     1       1.540   8.477 -27.110  1.00  0.00     0.015 C 
HETATM   17  C   UNL     1       2.261   8.578 -25.774  1.00  0.00     0.006 C 
ENDBRANCH  15  16
ENDBRANCH  12  15
ENDBRANCH   7  11
ENDBRANCH   1   5
BRANCH   2  18
HETATM   18  C   UNL     1      -4.881   2.462 -32.429  1.00  0.00     0.120 A 
HETATM   19  N   UNL     1      -6.236   2.325 -32.309  1.00  0.00    -0.272 N 
HETATM   20  H   UNL     1      -6.882   3.001 -31.911  1.00  0.00     0.189 HD
HETATM   21  N   UNL     1      -6.714   1.158 -32.759  1.00  0.00    -0.174 NA
HETATM   22  C   UNL     1      -5.631   0.480 -33.173  1.00  0.00     0.089 A 
HETATM   23  C   UNL     1      -4.462   1.277 -33.003  1.00  0.00     0.071 A 
BRANCH  22  24
HETATM   24  C   UNL     1      -5.729  -0.896 -33.675  1.00  0.00    -0.006 A 
HETATM   25  C   UNL     1      -4.578  -1.688 -33.798  1.00  0.00     0.014 A 
HETATM   26  C   UNL     1      -4.647  -2.986 -34.311  1.00  0.00     0.007 A 
HETATM   27  C   UNL     1      -5.873  -3.524 -34.710  1.00  0.00    -0.062 A 
HETATM   28  C   UNL     1      -5.962  -4.913 -35.269  1.00  0.00     0.048 C 
HETATM   29  C   UNL     1      -7.029  -2.748 -34.576  1.00  0.00     0.007 A 
HETATM   30  C   UNL     1      -6.958  -1.446 -34.064  1.00  0.00     0.014 A 
ENDBRANCH  22  24
ENDBRANCH   2  18
TORSDOF 6
ENDMDL
MODEL 2
REMARK VINA RESULT:      -9.0      1.614      1.673
REMARK  6 active torsions:
REMARK  status: ('A' for Active; 'I' for Inactive)
REMARK    1  A    between atoms: C_2  and  C_3 
REMARK    2  A    between atoms: C_3  and  N_4 
REMARK       I    between atoms: N_4  and  C_5 
REMARK    3  A    between atoms: C_5  and  C_6 
REMARK    4  A    between atoms: C_8  and  N_9 
REMARK       I    between atoms: N_9  and  C_10 
REMARK    5  A    between atoms: C_10  and  C_11 
REMARK    6  A    between atoms: C_15  and  C_16 
ROOT
HETATM    1  N   UNL     1      -2.636   3.732 -32.281  1.00  0.00    -0.322 N 
HETATM    2  C   UNL     1      -3.700   3.188 -31.587  1.00  0.00     0.274 C 
HETATM    3  O   UNL     1      -4.422   3.803 -30.811  1.00  0.00    -0.266 OA
HETATM    4  H   UNL     1      -2.263   3.185 -33.044  1.00  0.00     0.169 HD
ENDROOT
BRANCH   1   5
HETATM    5  C   UNL     1      -2.064   5.009 -32.093  1.00  0.00     0.036 A 
HETATM    6  C   UNL     1      -1.945   5.619 -30.841  1.00  0.00     0.046 A 
HETATM    7  C   UNL     1      -1.337   6.877 -30.718  1.00  0.00     0.034 A 
HETATM    8  C   UNL     1      -0.830   7.516 -31.854  1.00  0.00     0.017 A 
HETATM    9  C   UNL     1      -0.939   6.909 -33.104  1.00  0.00     0.003 A 
HETATM   10  C   UNL     1      -1.549   5.658 -33.221  1.00  0.00     0.029 A 
BRANCH   7  11
HETATM   11  C   UNL     1      -1.154   7.537 -29.393  1.00  0.00     0.251 C 
HETATM   12  N   UNL     1      -0.790   6.723 -28.340  1.00  0.00    -0.357 N 
HETATM   13  H   UNL     1      -0.810   5.717 -28.451  1.00  0.00     0.162 HD
HETATM   14  O   UNL     1      -1.342   8.742 -29.280  1.00  0.00    -0.268 OA
BRANCH  12  15
HETATM   15  C   UNL     1      -0.575   7.251 -27.009  1.00  0.00     0.122 C 
BRANCH  15  16
HETATM   16  C   UNL     1       0.905   7.388 -26.655  1.00  0.00     0.015 C 
HETATM   17  C   UNL     1       1.605   8.464 -27.471  1.00  0.00     0.006 C 
ENDBRANCH  15  16
ENDBRANCH  12  15
ENDBRANCH   7  11
ENDBRANCH   1   5
BRANCH   2  18
HETATM   18  C   UNL     1      -3.940   1.794 -31.865  1.00  0.00     0.120 A 
HETATM   19  N   UNL     1      -3.200   0.811 -31.269  1.00  0.00    -0.272 N 
HETATM   20  H   UNL     1      -2.456   0.938 -30.588  1.00  0.00     0.189 HD
HETATM   21  N   UNL     1      -3.508  -0.430 -31.667  1.00  0.00    -0.174 NA
HETATM   22  C   UNL     1      -4.476  -0.266 -32.583  1.00  0.00     0.089 A 
HETATM   23  C   UNL     1      -4.791   1.118 -32.718  1.00  0.00     0.071 A 
BRANCH  22  24
HETATM   24  C   UNL     1      -5.040  -1.403 -33.321  1.00  0.00    -0.006 A 
HETATM   25  C   UNL     1      -4.227  -2.488 -33.678  1.00  0.00     0.014 A 
HETATM   26  C   UNL     1      -4.737  -3.562 -34.414  1.00  0.00     0.007 A 
HETATM   27  C   UNL     1      -6.078  -3.574 -34.807  1.00  0.00    -0.062 A 
HETATM   28  C   UNL     1      -6.638  -4.715 -35.603  1.00  0.00     0.048 C 
HETATM   29  C   UNL     1      -6.901  -2.504 -34.442  1.00  0.00     0.007 A 
HETATM   30  C   UNL     1      -6.388  -1.428 -33.706  1.00  0.00     0.014 A 
ENDBRANCH  22  24
ENDBRANCH   2  18
TORSDOF 6
ENDMDL
MODEL 3
REMARK VINA RESULT:      -8.6      1.936     10.728
REMARK  6 active torsions:
REMARK  status: ('A' for Active; 'I' for Inactive)
REMARK    1  A    between atoms: C_2  and  C_3 
REMARK    2  A    between atoms: C_3  and  N_4 
REMARK       I    between atoms: N_4  and  C_5 
REMARK    3  A    between atoms: C_5  and  C_6 
REMARK    4  A    between atoms: C_8  and  N_9 
REMARK       I    between atoms: N_9  and  C_10 
REMARK    5  A    between atoms: C_10  and  C_11 
REMARK    6  A    between atoms: C_15  and  C_16 
ROOT
HETATM    1  N   UNL     1      -3.030   3.755 -31.288  1.00  0.00    -0.322 N 
HETATM    2  C   UNL     1      -2.261   4.690 -31.956  1.00  0.00     0.274 C 
HETATM    3  O   UNL     1      -2.395   4.999 -33.134  1.00  0.00    -0.266 OA
HETATM    4  H   UNL     1      -2.967   3.751 -30.280  1.00  0.00     0.169 HD
ENDROOT
BRANCH   1   5
HETATM    5  C   UNL     1      -3.959   2.858 -31.858  1.00  0.00     0.036 A 
HETATM    6  C   UNL     1      -3.689   1.502 -32.064  1.00  0.00     0.046 A 
HETATM    7  C   UNL     1      -4.668   0.656 -32.606  1.00  0.00     0.034 A 
HETATM    8  C   UNL     1      -5.929   1.171 -32.925  1.00  0.00     0.017 A 
HETATM    9  C   UNL     1      -6.206   2.521 -32.716  1.00  0.00     0.003 A 
HETATM   10  C   UNL     1      -5.226   3.358 -32.179  1.00  0.00     0.029 A 
BRANCH   7  11
HETATM   11  C   UNL     1      -4.429  -0.803 -32.798  1.00  0.00     0.251 C 
HETATM   12  N   UNL     1      -4.903  -1.361 -33.967  1.00  0.00    -0.357 N 
HETATM   13  H   UNL     1      -5.514  -0.825 -34.569  1.00  0.00     0.162 HD
HETATM   14  O   UNL     1      -3.851  -1.446 -31.929  1.00  0.00    -0.268 OA
BRANCH  12  15
HETATM   15  C   UNL     1      -4.724  -2.766 -34.268  1.00  0.00     0.122 C 
BRANCH  15  16
HETATM   16  C   UNL     1      -5.769  -3.304 -35.243  1.00  0.00     0.015 C 
HETATM   17  C   UNL     1      -6.124  -4.760 -34.978  1.00  0.00     0.006 C 
ENDBRANCH  15  16
ENDBRANCH  12  15
ENDBRANCH   7  11
ENDBRANCH   1   5
BRANCH   2  18
HETATM   18  C   UNL     1      -1.262   5.330 -31.137  1.00  0.00     0.120 A 
HETATM   19  N   UNL     1       0.072   5.176 -31.390  1.00  0.00    -0.272 N 
HETATM   20  H   UNL     1       0.490   4.643 -32.147  1.00  0.00     0.189 HD
HETATM   21  N   UNL     1       0.874   5.792 -30.512  1.00  0.00    -0.174 NA
HETATM   22  C   UNL     1       0.041   6.360 -29.625  1.00  0.00     0.089 A 
HETATM   23  C   UNL     1      -1.312   6.112 -29.999  1.00  0.00     0.071 A 
BRANCH  22  24
HETATM   24  C   UNL     1       0.543   7.079 -28.448  1.00  0.00    -0.006 A 
HETATM   25  C   UNL     1       1.261   8.274 -28.601  1.00  0.00     0.014 A 
HETATM   26  C   UNL     1       1.780   8.951 -27.494  1.00  0.00     0.007 A 
HETATM   27  C   UNL     1       1.588   8.449 -26.204  1.00  0.00    -0.062 A 
HETATM   28  C   UNL     1       2.144   9.161 -25.008  1.00  0.00     0.048 C 
HETATM   29  C   UNL     1       0.859   7.266 -26.040  1.00  0.00     0.007 A 
HETATM   30  C   UNL     1       0.342   6.587 -27.150  1.00  0.00     0.014 A 
ENDBRANCH  22  24
ENDBRANCH   2  18
TORSDOF 6
ENDMDL
MODEL 4
REMARK VINA RESULT:      -8.3      2.150     10.593
REMARK  6 active torsions:
REMARK  status: ('A' for Active; 'I' for Inactive)
REMARK    1  A    between atoms: C_2  and  C_3 
REMARK    2  A    between atoms: C_3  and  N_4 
REMARK       I    between atoms: N_4  and  C_5 
REMARK    3  A    between atoms: C_5  and  C_6 
REMARK    4  A    between atoms: C_8  and  N_9 
REMARK       I    between atoms: N_9  and  C_10 
REMARK    5  A    between atoms: C_10  and  C_11 
REMARK    6  A    between atoms: C_15  and  C_16 
ROOT
HETATM    1  N   UNL     1      -4.522   4.045 -31.601  1.00  0.00    -0.322 N 
HETATM    2  C   UNL     1      -3.864   5.215 -31.930  1.00  0.00     0.274 C 
HETATM    3  O   UNL     1      -4.248   6.028 -32.763  1.00  0.00    -0.266 OA
HETATM    4  H   UNL     1      -4.224   3.578 -30.756  1.00  0.00     0.169 HD
ENDROOT
BRANCH   1   5
HETATM    5  C   UNL     1      -5.623   3.472 -32.274  1.00  0.00     0.036 A 
HETATM    6  C   UNL     1      -5.516   2.353 -33.106  1.00  0.00     0.046 A 
HETATM    7  C   UNL     1      -6.655   1.814 -33.721  1.00  0.00     0.034 A 
HETATM    8  C   UNL     1      -7.909   2.389 -33.485  1.00  0.00     0.017 A 
HETATM    9  C   UNL     1      -8.022   3.500 -32.652  1.00  0.00     0.003 A 
HETATM   10  C   UNL     1      -6.884   4.035 -32.045  1.00  0.00     0.029 A 
BRANCH   7  11
HETATM   11  C   UNL     1      -6.584   0.595 -34.578  1.00  0.00     0.251 C 
HETATM   12  N   UNL     1      -5.962  -0.510 -34.034  1.00  0.00    -0.357 N 
HETATM   13  H   UNL     1      -5.449  -0.422 -33.166  1.00  0.00     0.162 HD
HETATM   14  O   UNL     1      -7.053   0.617 -35.710  1.00  0.00    -0.268 OA
BRANCH  12  15
HETATM   15  C   UNL     1      -5.840  -1.752 -34.767  1.00  0.00     0.122 C 
BRANCH  15  16
HETATM   16  C   UNL     1      -7.007  -2.706 -34.521  1.00  0.00     0.015 C 
HETATM   17  C   UNL     1      -6.692  -4.137 -34.929  1.00  0.00     0.006 C 
ENDBRANCH  15  16
ENDBRANCH  12  15
ENDBRANCH   7  11
ENDBRANCH   1   5
BRANCH   2  18
HETATM   18  C   UNL     1      -2.657   5.449 -31.178  1.00  0.00     0.120 A 
HETATM   19  N   UNL     1      -1.622   4.555 -31.194  1.00  0.00    -0.272 N 
HETATM   20  H   UNL     1      -1.577   3.687 -31.721  1.00  0.00     0.189 HD
HETATM   21  N   UNL     1      -0.592   4.889 -30.407  1.00  0.00    -0.174 NA
HETATM   22  C   UNL     1      -0.965   6.040 -29.824  1.00  0.00     0.089 A 
HETATM   23  C   UNL     1      -2.248   6.436 -30.302  1.00  0.00     0.071 A 
BRANCH  22  24
HETATM   24  C   UNL     1      -0.125   6.701 -28.818  1.00  0.00    -0.006 A 
HETATM   25  C   UNL     1      -0.121   6.250 -27.490  1.00  0.00     0.014 A 
HETATM   26  C   UNL     1       0.642   6.892 -26.511  1.00  0.00     0.007 A 
HETATM   27  C   UNL     1       1.425   8.002 -26.841  1.00  0.00    -0.062 A 
HETATM   28  C   UNL     1       2.244   8.705 -25.800  1.00  0.00     0.048 C 
HETATM   29  C   UNL     1       1.441   8.450 -28.166  1.00  0.00     0.007 A 
HETATM   30  C   UNL     1       0.673   7.807 -29.145  1.00  0.00     0.014 A 
ENDBRANCH  22  24
ENDBRANCH   2  18
TORSDOF 6
ENDMDL
MODEL 5
REMARK VINA RESULT:      -8.1      2.473      2.949
REMARK  6 active torsions:
REMARK  status: ('A' for Active; 'I' for Inactive)
REMARK    1  A    between atoms: C_2  and  C_3 
REMARK    2  A    between atoms: C_3  and  N_4 
REMARK       I    between atoms: N_4  and  C_5 
REMARK    3  A    between atoms: C_5  and  C_6 
REMARK    4  A    between atoms: C_8  and  N_9 
REMARK       I    between atoms: N_9  and  C_10 
REMARK    5  A    between atoms: C_10  and  C_11 
REMARK    6  A    between atoms: C_15  and  C_16 
ROOT
HETATM    1  N   UNL     1      -2.958   3.805 -31.798  1.00  0.00    -0.322 N 
HETATM    2  C   UNL     1      -4.154   3.504 -31.175  1.00  0.00     0.274 C 
HETATM    3  O   UNL     1      -4.765   4.257 -30.424  1.00  0.00    -0.266 OA
HETATM    4  H   UNL     1      -2.673   3.197 -32.552  1.00  0.00     0.169 HD
ENDROOT
BRANCH   1   5
HETATM    5  C   UNL     1      -2.129   4.920 -31.550  1.00  0.00     0.036 A 
HETATM    6  C   UNL     1      -2.602   6.235 -31.513  1.00  0.00     0.046 A 
HETATM    7  C   UNL     1      -1.730   7.297 -31.229  1.00  0.00     0.034 A 
HETATM    8  C   UNL     1      -0.382   7.035 -30.964  1.00  0.00     0.017 A 
HETATM    9  C   UNL     1       0.094   5.725 -30.993  1.00  0.00     0.003 A 
HETATM   10  C   UNL     1      -0.778   4.673 -31.280  1.00  0.00     0.029 A 
BRANCH   7  11
HETATM   11  C   UNL     1      -2.209   8.706 -31.137  1.00  0.00     0.251 C 
HETATM   12  N   UNL     1      -3.024   9.015 -30.067  1.00  0.00    -0.357 N 
HETATM   13  H   UNL     1      -3.390   8.275 -29.483  1.00  0.00     0.162 HD
HETATM   14  O   UNL     1      -1.888   9.517 -31.998  1.00  0.00    -0.268 OA
BRANCH  12  15
HETATM   15  C   UNL     1      -3.544  10.352 -29.868  1.00  0.00     0.122 C 
BRANCH  15  16
HETATM   16  C   UNL     1      -3.263  10.897 -28.468  1.00  0.00     0.015 C 
HETATM   17  C   UNL     1      -1.873  11.502 -28.343  1.00  0.00     0.006 C 
ENDBRANCH  15  16
ENDBRANCH  12  15
ENDBRANCH   7  11
ENDBRANCH   1   5
BRANCH   2  18
HETATM   18  C   UNL     1      -4.680   2.201 -31.496  1.00  0.00     0.120 A 
HETATM   19  N   UNL     1      -5.231   1.398 -30.537  1.00  0.00    -0.272 N 
HETATM   20  H   UNL     1      -5.346   1.619 -29.552  1.00  0.00     0.189 HD
HETATM   21  N   UNL     1      -5.628   0.199 -30.983  1.00  0.00    -0.174 NA
HETATM   22  C   UNL     1      -5.308   0.195 -32.287  1.00  0.00     0.089 A 
HETATM   23  C   UNL     1      -4.731   1.446 -32.652  1.00  0.00     0.071 A 
BRANCH  22  24
HETATM   24  C   UNL     1      -5.520  -0.990 -33.128  1.00  0.00    -0.006 A 
HETATM   25  C   UNL     1      -6.799  -1.290 -33.618  1.00  0.00     0.014 A 
HETATM   26  C   UNL     1      -7.028  -2.434 -34.387  1.00  0.00     0.007 A 
HETATM   27  C   UNL     1      -5.977  -3.305 -34.688  1.00  0.00    -0.062 A 
HETATM   28  C   UNL     1      -6.208  -4.540 -35.506  1.00  0.00     0.048 C 
HETATM   29  C   UNL     1      -4.694  -3.006 -34.217  1.00  0.00     0.007 A 
HETATM   30  C   UNL     1      -4.467  -1.860 -33.444  1.00  0.00     0.014 A 
ENDBRANCH  22  24
ENDBRANCH   2  18
TORSDOF 6
ENDMDL
MODEL 6
REMARK VINA RESULT:      -8.1      2.363     10.371
REMARK  6 active torsions:
REMARK  status: ('A' for Active; 'I' for Inactive)
REMARK    1  A    between atoms: C_2  and  C_3 
REMARK    2  A    between atoms: C_3  and  N_4 
REMARK       I    between atoms: N_4  and  C_5 
REMARK    3  A    between atoms: C_5  and  C_6 
REMARK    4  A    between atoms: C_8  and  N_9 
REMARK       I    between atoms: N_9  and  C_10 
REMARK    5  A    between atoms: C_10  and  C_11 
REMARK    6  A    between atoms: C_15  and  C_16 
ROOT
HETATM    1  N   UNL     1      -5.064   3.241 -31.798  1.00  0.00    -0.322 N 
HETATM    2  C   UNL     1      -4.799   4.278 -32.673  1.00  0.00     0.274 C 
HETATM    3  O   UNL     1      -5.252   4.374 -33.808  1.00  0.00    -0.266 OA
HETATM    4  H   UNL     1      -4.812   3.386 -30.831  1.00  0.00     0.169 HD
ENDROOT
BRANCH   1   5
HETATM    5  C   UNL     1      -5.725   2.029 -32.095  1.00  0.00     0.036 A 
HETATM    6  C   UNL     1      -5.124   0.978 -32.793  1.00  0.00     0.046 A 
HETATM    7  C   UNL     1      -5.826  -0.213 -33.028  1.00  0.00     0.034 A 
HETATM    8  C   UNL     1      -7.130  -0.357 -32.542  1.00  0.00     0.017 A 
HETATM    9  C   UNL     1      -7.732   0.686 -31.839  1.00  0.00     0.003 A 
HETATM   10  C   UNL     1      -7.029   1.871 -31.612  1.00  0.00     0.029 A 
BRANCH   7  11
HETATM   11  C   UNL     1      -5.200  -1.371 -33.730  1.00  0.00     0.251 C 
HETATM   12  N   UNL     1      -5.982  -2.033 -34.654  1.00  0.00    -0.357 N 
HETATM   13  H   UNL     1      -6.971  -1.826 -34.716  1.00  0.00     0.162 HD
HETATM   14  O   UNL     1      -4.050  -1.698 -33.461  1.00  0.00    -0.268 OA
BRANCH  12  15
HETATM   15  C   UNL     1      -5.481  -3.166 -35.403  1.00  0.00     0.122 C 
BRANCH  15  16
HETATM   16  C   UNL     1      -5.784  -4.504 -34.732  1.00  0.00     0.015 C 
HETATM   17  C   UNL     1      -4.548  -5.147 -34.121  1.00  0.00     0.006 C 
ENDBRANCH  15  16
ENDBRANCH  12  15
ENDBRANCH   7  11
ENDBRANCH   1   5
BRANCH   2  18
HETATM   18  C   UNL     1      -3.940   5.303 -32.135  1.00  0.00     0.120 A 
HETATM   19  N   UNL     1      -3.755   6.492 -32.785  1.00  0.00    -0.272 N 
HETATM   20  H   UNL     1      -4.191   6.782 -33.656  1.00  0.00     0.189 HD
HETATM   21  N   UNL     1      -2.890   7.319 -32.186  1.00  0.00    -0.174 NA
HETATM   22  C   UNL     1      -2.462   6.645 -31.106  1.00  0.00     0.089 A 
HETATM   23  C   UNL     1      -3.118   5.382 -31.027  1.00  0.00     0.071 A 
BRANCH  22  24
HETATM   24  C   UNL     1      -1.433   7.193 -30.214  1.00  0.00    -0.006 A 
HETATM   25  C   UNL     1      -0.141   6.645 -30.203  1.00  0.00     0.014 A 
HETATM   26  C   UNL     1       0.840   7.128 -29.332  1.00  0.00     0.007 A 
HETATM   27  C   UNL     1       0.551   8.175 -28.453  1.00  0.00    -0.062 A 
HETATM   28  C   UNL     1       1.591   8.699 -27.509  1.00  0.00     0.048 C 
HETATM   29  C   UNL     1      -0.729   8.739 -28.469  1.00  0.00     0.007 A 
HETATM   30  C   UNL     1      -1.712   8.253 -29.340  1.00  0.00     0.014 A 
ENDBRANCH  22  24
ENDBRANCH   2  18
TORSDOF 6
ENDMDL
MODEL 7
REMARK VINA RESULT:      -7.8      2.603      2.915
REMARK  6 active torsions:
REMARK  status: ('A' for Active; 'I' for Inactive)
REMARK    1  A    between atoms: C_2  and  C_3 
REMARK    2  A    between atoms: C_3  and  N_4 
REMARK       I    between atoms: N_4  and  C_5 
REMARK    3  A    between atoms: C_5  and  C_6 
REMARK    4  A    between atoms: C_8  and  N_9 
REMARK       I    between atoms: N_9  and  C_10 
REMARK    5  A    between atoms: C_10  and  C_11 
REMARK    6  A    between atoms: C_15  and  C_16 
ROOT
HETATM    1  N   UNL     1      -4.450   4.339 -30.608  1.00  0.00    -0.322 N 
HETATM    2  C   UNL     1      -4.352   3.896 -31.914  1.00  0.00     0.274 C 
HETATM    3  O   UNL     1      -4.127   4.611 -32.884  1.00  0.00    -0.266 OA
HETATM    4  H   UNL     1      -4.420   3.634 -29.886  1.00  0.00     0.169 HD
ENDROOT
BRANCH   1   5
HETATM    5  C   UNL     1      -4.506   5.679 -30.168  1.00  0.00     0.036 A 
HETATM    6  C   UNL     1      -3.369   6.443 -29.887  1.00  0.00     0.046 A 
HETATM    7  C   UNL     1      -3.493   7.780 -29.483  1.00  0.00     0.034 A 
HETATM    8  C   UNL     1      -4.763   8.359 -29.380  1.00  0.00     0.017 A 
HETATM    9  C   UNL     1      -5.899   7.604 -29.666  1.00  0.00     0.003 A 
HETATM   10  C   UNL     1      -5.770   6.272 -30.064  1.00  0.00     0.029 A 
BRANCH   7  11
HETATM   11  C   UNL     1      -2.301   8.636 -29.219  1.00  0.00     0.251 C 
HETATM   12  N   UNL     1      -1.514   8.288 -28.140  1.00  0.00    -0.357 N 
HETATM   13  H   UNL     1      -1.838   7.585 -27.487  1.00  0.00     0.162 HD
HETATM   14  O   UNL     1      -2.073   9.603 -29.936  1.00  0.00    -0.268 OA
BRANCH  12  15
HETATM   15  C   UNL     1      -0.327   9.039 -27.790  1.00  0.00     0.122 C 
BRANCH  15  16
HETATM   16  C   UNL     1       0.966   8.282 -28.090  1.00  0.00     0.015 C 
HETATM   17  C   UNL     1       0.744   6.786 -28.257  1.00  0.00     0.006 C 
ENDBRANCH  15  16
ENDBRANCH  12  15
ENDBRANCH   7  11
ENDBRANCH   1   5
BRANCH   2  18
HETATM   18  C   UNL     1      -4.511   2.473 -32.072  1.00  0.00     0.120 A 
HETATM   19  N   UNL     1      -3.842   1.588 -31.273  1.00  0.00    -0.272 N 
HETATM   20  H   UNL     1      -3.212   1.815 -30.509  1.00  0.00     0.189 HD
HETATM   21  N   UNL     1      -4.055   0.301 -31.576  1.00  0.00    -0.174 NA
HETATM   22  C   UNL     1      -4.880   0.330 -32.635  1.00  0.00     0.089 A 
HETATM   23  C   UNL     1      -5.208   1.678 -32.961  1.00  0.00     0.071 A 
BRANCH  22  24
HETATM   24  C   UNL     1      -5.298  -0.900 -33.320  1.00  0.00    -0.006 A 
HETATM   25  C   UNL     1      -4.344  -1.849 -33.715  1.00  0.00     0.014 A 
HETATM   26  C   UNL     1      -4.719  -3.006 -34.403  1.00  0.00     0.007 A 
HETATM   27  C   UNL     1      -6.062  -3.243 -34.709  1.00  0.00    -0.062 A 
HETATM   28  C   UNL     1      -6.479  -4.476 -35.452  1.00  0.00     0.048 C 
HETATM   29  C   UNL     1      -7.022  -2.310 -34.305  1.00  0.00     0.007 A 
HETATM   30  C   UNL     1      -6.645  -1.149 -33.618  1.00  0.00     0.014 A 
ENDBRANCH  22  24
ENDBRANCH   2  18
TORSDOF 6
ENDMDL
MODEL 8
REMARK VINA RESULT:      -7.8      2.569     10.527
REMARK  6 active torsions:
REMARK  status: ('A' for Active; 'I' for Inactive)
REMARK    1  A    between atoms: C_2  and  C_3 
REMARK    2  A    between atoms: C_3  and  N_4 
REMARK       I    between atoms: N_4  and  C_5 
REMARK    3  A    between atoms: C_5  and  C_6 
REMARK    4  A    between atoms: C_8  and  N_9 
REMARK       I    between atoms: N_9  and  C_10 
REMARK    5  A    between atoms: C_10  and  C_11 
REMARK    6  A    between atoms: C_15  and  C_16 
ROOT
HETATM    1  N   UNL     1      -3.007   3.597 -31.328  1.00  0.00    -0.322 N 
HETATM    2  C   UNL     1      -2.152   4.351 -32.108  1.00  0.00     0.274 C 
HETATM    3  O   UNL     1      -2.063   4.277 -33.329  1.00  0.00    -0.266 OA
HETATM    4  H   UNL     1      -3.141   3.903 -30.374  1.00  0.00     0.169 HD
ENDROOT
BRANCH   1   5
HETATM    5  C   UNL     1      -3.779   2.490 -31.741  1.00  0.00     0.036 A 
HETATM    6  C   UNL     1      -4.922   2.605 -32.538  1.00  0.00     0.046 A 
HETATM    7  C   UNL     1      -5.627   1.462 -32.940  1.00  0.00     0.034 A 
HETATM    8  C   UNL     1      -5.172   0.196 -32.557  1.00  0.00     0.017 A 
HETATM    9  C   UNL     1      -4.029   0.074 -31.768  1.00  0.00     0.003 A 
HETATM   10  C   UNL     1      -3.333   1.217 -31.367  1.00  0.00     0.029 A 
BRANCH   7  11
HETATM   11  C   UNL     1      -6.823   1.546 -33.827  1.00  0.00     0.251 C 
HETATM   12  N   UNL     1      -7.914   2.231 -33.333  1.00  0.00    -0.357 N 
HETATM   13  H   UNL     1      -7.934   2.512 -32.361  1.00  0.00     0.162 HD
HETATM   14  O   UNL     1      -6.806   1.007 -34.927  1.00  0.00    -0.268 OA
BRANCH  12  15
HETATM   15  C   UNL     1      -9.129   2.386 -34.105  1.00  0.00     0.122 C 
BRANCH  15  16
HETATM   16  C   UNL     1      -9.568   3.843 -34.238  1.00  0.00     0.015 C 
HETATM   17  C   UNL     1      -8.451   4.824 -33.912  1.00  0.00     0.006 C 
ENDBRANCH  15  16
ENDBRANCH  12  15
ENDBRANCH   7  11
ENDBRANCH   1   5
BRANCH   2  18
HETATM   18  C   UNL     1      -1.352   5.296 -31.370  1.00  0.00     0.120 A 
HETATM   19  N   UNL     1       0.011   5.317 -31.481  1.00  0.00    -0.272 N 
HETATM   20  H   UNL     1       0.582   4.721 -32.074  1.00  0.00     0.189 HD
HETATM   21  N   UNL     1       0.614   6.217 -30.695  1.00  0.00    -0.174 NA
HETATM   22  C   UNL     1      -0.384   6.804 -30.015  1.00  0.00     0.089 A 
HETATM   23  C   UNL     1      -1.638   6.268 -30.430  1.00  0.00     0.071 A 
BRANCH  22  24
HETATM   24  C   UNL     1      -0.123   7.813 -28.982  1.00  0.00    -0.006 A 
HETATM   25  C   UNL     1      -1.127   8.718 -28.607  1.00  0.00     0.014 A 
HETATM   26  C   UNL     1      -0.885   9.711 -27.654  1.00  0.00     0.007 A 
HETATM   27  C   UNL     1       0.370   9.819 -27.049  1.00  0.00    -0.062 A 
HETATM   28  C   UNL     1       0.647  10.883 -26.030  1.00  0.00     0.048 C 
HETATM   29  C   UNL     1       1.373   8.911 -27.404  1.00  0.00     0.007 A 
HETATM   30  C   UNL     1       1.130   7.918 -28.361  1.00  0.00     0.014 A 
ENDBRANCH  22  24
ENDBRANCH   2  18
TORSDOF 6
ENDMDL
MODEL 9
REMARK VINA RESULT:      -7.7      1.973      2.779
REMARK  6 active torsions:
REMARK  status: ('A' for Active; 'I' for Inactive)
REMARK    1  A    between atoms: C_2  and  C_3 
REMARK    2  A    between atoms: C_3  and  N_4 
REMARK       I    between atoms: N_4  and  C_5 
REMARK    3  A    between atoms: C_5  and  C_6 
REMARK    4  A    between atoms: C_8  and  N_9 
REMARK       I    between atoms: N_9  and  C_10 
REMARK    5  A    between atoms: C_10  and  C_11 
REMARK    6  A    between atoms: C_15  and  C_16 
ROOT
HETATM    1  N   UNL     1      -2.391   5.170 -30.958  1.00  0.00    -0.322 N 
HETATM    2  C   UNL     1      -3.476   5.494 -31.751  1.00  0.00     0.274 C 
HETATM    3  O   UNL     1      -3.720   6.614 -32.186  1.00  0.00    -0.266 OA
HETATM    4  H   UNL     1      -2.184   4.187 -30.850  1.00  0.00     0.169 HD
ENDROOT
BRANCH   1   5
HETATM    5  C   UNL     1      -1.488   6.067 -30.348  1.00  0.00     0.036 A 
HETATM    6  C   UNL     1      -1.803   6.821 -29.214  1.00  0.00     0.046 A 
HETATM    7  C   UNL     1      -0.849   7.672 -28.638  1.00  0.00     0.034 A 
HETATM    8  C   UNL     1       0.434   7.752 -29.192  1.00  0.00     0.017 A 
HETATM    9  C   UNL     1       0.756   6.997 -30.319  1.00  0.00     0.003 A 
HETATM   10  C   UNL     1      -0.200   6.155 -30.890  1.00  0.00     0.029 A 
BRANCH   7  11
HETATM   11  C   UNL     1      -1.137   8.456 -27.402  1.00  0.00     0.251 C 
HETATM   12  N   UNL     1      -0.110   8.572 -26.488  1.00  0.00    -0.357 N 
HETATM   13  H   UNL     1       0.727   8.014 -26.598  1.00  0.00     0.162 HD
HETATM   14  O   UNL     1      -2.248   8.945 -27.235  1.00  0.00    -0.268 OA
BRANCH  12  15
HETATM   15  C   UNL     1      -0.268   9.316 -25.256  1.00  0.00     0.122 C 
BRANCH  15  16
HETATM   16  C   UNL     1       1.056   9.561 -24.535  1.00  0.00     0.015 C 
HETATM   17  C   UNL     1       2.247   8.974 -25.279  1.00  0.00     0.006 C 
ENDBRANCH  15  16
ENDBRANCH  12  15
ENDBRANCH   7  11
ENDBRANCH   1   5
BRANCH   2  18
HETATM   18  C   UNL     1      -4.329   4.378 -32.074  1.00  0.00     0.120 A 
HETATM   19  N   UNL     1      -5.588   4.269 -31.553  1.00  0.00    -0.272 N 
HETATM   20  H   UNL     1      -6.049   4.930 -30.933  1.00  0.00     0.189 HD
HETATM   21  N   UNL     1      -6.237   3.153 -31.907  1.00  0.00    -0.174 NA
HETATM   22  C   UNL     1      -5.367   2.479 -32.676  1.00  0.00     0.089 A 
HETATM   23  C   UNL     1      -4.164   3.230 -32.824  1.00  0.00     0.071 A 
BRANCH  22  24
HETATM   24  C   UNL     1      -5.680   1.148 -33.210  1.00  0.00    -0.006 A 
HETATM   25  C   UNL     1      -6.563   1.009 -34.291  1.00  0.00     0.014 A 
HETATM   26  C   UNL     1      -6.904  -0.252 -34.787  1.00  0.00     0.007 A 
HETATM   27  C   UNL     1      -6.364  -1.407 -34.214  1.00  0.00    -0.062 A 
HETATM   28  C   UNL     1      -6.726  -2.767 -34.731  1.00  0.00     0.048 C 
HETATM   29  C   UNL     1      -5.470  -1.278 -33.146  1.00  0.00     0.007 A 
HETATM   30  C   UNL     1      -5.132  -0.013 -32.648  1.00  0.00     0.014 A 
ENDBRANCH  22  24
ENDBRANCH   2  18
TORSDOF 6
ENDMDL
MODEL 10
REMARK VINA RESULT:      -7.6      7.611     10.600
REMARK  6 active torsions:
REMARK  status: ('A' for Active; 'I' for Inactive)
REMARK    1  A    between atoms: C_2  and  C_3 
REMARK    2  A    between atoms: C_3  and  N_4 
REMARK       I    between atoms: N_4  and  C_5 
REMARK    3  A    between atoms: C_5  and  C_6 
REMARK    4  A    between atoms: C_8  and  N_9 
REMARK       I    between atoms: N_9  and  C_10 
REMARK    5  A    between atoms: C_10  and  C_11 
REMARK    6  A    between atoms: C_15  and  C_16 
ROOT
HETATM    1  N   UNL     1     -10.460   2.153 -34.539  1.00  0.00    -0.322 N 
HETATM    2  C   UNL     1      -9.538   1.813 -33.567  1.00  0.00     0.274 C 
HETATM    3  O   UNL     1      -9.547   2.227 -32.413  1.00  0.00    -0.266 OA
HETATM    4  H   UNL     1     -10.472   1.583 -35.374  1.00  0.00     0.169 HD
ENDROOT
BRANCH   1   5
HETATM    5  C   UNL     1     -11.444   3.161 -34.460  1.00  0.00     0.036 A 
HETATM    6  C   UNL     1     -12.482   3.148 -33.523  1.00  0.00     0.046 A 
HETATM    7  C   UNL     1     -13.411   4.198 -33.476  1.00  0.00     0.034 A 
HETATM    8  C   UNL     1     -13.286   5.275 -34.361  1.00  0.00     0.017 A 
HETATM    9  C   UNL     1     -12.249   5.296 -35.293  1.00  0.00     0.003 A 
HETATM   10  C   UNL     1     -11.330   4.246 -35.337  1.00  0.00     0.029 A 
BRANCH   7  11
HETATM   11  C   UNL     1     -14.503   4.239 -32.461  1.00  0.00     0.251 C 
HETATM   12  N   UNL     1     -15.420   5.263 -32.578  1.00  0.00    -0.357 N 
HETATM   13  H   UNL     1     -15.247   6.022 -33.225  1.00  0.00     0.162 HD
HETATM   14  O   UNL     1     -14.541   3.396 -31.572  1.00  0.00    -0.268 OA
BRANCH  12  15
HETATM   15  C   UNL     1     -16.528   5.401 -31.656  1.00  0.00     0.122 C 
BRANCH  15  16
HETATM   16  C   UNL     1     -17.880   5.102 -32.302  1.00  0.00     0.015 C 
HETATM   17  C   UNL     1     -18.699   4.095 -31.507  1.00  0.00     0.006 C 
ENDBRANCH  15  16
ENDBRANCH  12  15
ENDBRANCH   7  11
ENDBRANCH   1   5
BRANCH   2  18
HETATM   18  C   UNL     1      -8.533   0.876 -34.003  1.00  0.00     0.120 A 
HETATM   19  N   UNL     1      -8.202   0.748 -35.324  1.00  0.00    -0.272 N 
HETATM   20  H   UNL     1      -8.586   1.279 -36.101  1.00  0.00     0.189 HD
HETATM   21  N   UNL     1      -7.289  -0.199 -35.574  1.00  0.00    -0.174 NA
HETATM   22  C   UNL     1      -7.018  -0.740 -34.376  1.00  0.00     0.089 A 
HETATM   23  C   UNL     1      -7.764  -0.074 -33.359  1.00  0.00     0.071 A 
BRANCH  22  24
HETATM   24  C   UNL     1      -6.103  -1.879 -34.234  1.00  0.00    -0.006 A 
HETATM   25  C   UNL     1      -4.891  -1.731 -33.545  1.00  0.00     0.014 A 
HETATM   26  C   UNL     1      -3.989  -2.794 -33.433  1.00  0.00     0.007 A 
HETATM   27  C   UNL     1      -4.283  -4.033 -34.009  1.00  0.00    -0.062 A 
HETATM   28  C   UNL     1      -3.323  -5.180 -33.904  1.00  0.00     0.048 C 
HETATM   29  C   UNL     1      -5.497  -4.195 -34.685  1.00  0.00     0.007 A 
HETATM   30  C   UNL     1      -6.398  -3.129 -34.797  1.00  0.00     0.014 A 
ENDBRANCH  22  24
ENDBRANCH   2  18
TORSDOF 6
ENDMDL
