MODEL 1
REMARK VINA RESULT:      -8.4      0.000      0.000
REMARK  6 active torsions:
REMARK  status: ('A' for Active; 'I' for Inactive)
REMARK    1  A    between atoms: O_2  and  C_3 
REMARK    2  A    between atoms: C_4  and  C_5 
REMARK    3  A    between atoms: C_5  and  N_6 
REMARK    4  A    between atoms: N_6  and  C_7 
REMARK    5  A    between atoms: C_9  and  N_10 
REMARK    6  A    between atoms: N_10  and  C_11 
ROOT
HETATM    1  C   UNL     1      -4.041  -0.741 -33.340  1.00  0.00     0.181 A 
HETATM    2  N   UNL     1      -5.179  -0.198 -33.783  1.00  0.00    -0.207 NA
HETATM    3  C   UNL     1      -6.084  -1.007 -34.359  1.00  0.00     0.119 A 
HETATM    4  C   UNL     1      -5.850  -2.393 -34.498  1.00  0.00     0.031 A 
HETATM    5  C   UNL     1      -4.621  -2.885 -34.010  1.00  0.00     0.048 A 
HETATM    6  N   UNL     1      -3.760  -2.036 -33.434  1.00  0.00    -0.330 N 
HETATM    7  H   UNL     1      -2.900  -2.357 -33.006  1.00  0.00     0.168 HD
HETATM    8  C   UNL     1      -6.758  -3.318 -35.063  1.00  0.00     0.017 A 
HETATM    9  C   UNL     1      -6.439  -4.675 -35.156  1.00  0.00     0.001 A 
HETATM   10  C   UNL     1      -5.215  -5.139 -34.682  1.00  0.00     0.002 A 
HETATM   11  C   UNL     1      -4.308  -4.250 -34.105  1.00  0.00     0.030 A 
ENDROOT
BRANCH   1  12
HETATM   12  N   UNL     1      -3.182   0.100 -32.664  1.00  0.00    -0.258 NA
HETATM   13  H   UNL     1      -2.238  -0.177 -32.942  1.00  0.00     0.130 HD
BRANCH  12  14
HETATM   14  C   UNL     1      -3.300   0.187 -31.210  1.00  0.00     0.136 C 
BRANCH  14  15
HETATM   15  C   UNL     1      -4.289   1.257 -30.802  1.00  0.00    -0.012 A 
HETATM   16  C   UNL     1      -4.002   2.609 -31.081  1.00  0.00     0.075 A 
HETATM   17  C   UNL     1      -4.936   3.603 -30.767  1.00  0.00     0.037 A 
HETATM   18  C   UNL     1      -6.166   3.263 -30.202  1.00  0.00     0.003 A 
HETATM   19  C   UNL     1      -6.471   1.932 -29.947  1.00  0.00     0.001 A 
HETATM   20  C   UNL     1      -5.544   0.936 -30.249  1.00  0.00     0.011 A 
BRANCH  16  21
HETATM   21  O   UNL     1      -2.776   2.858 -31.645  1.00  0.00    -0.355 OA
HETATM   22  C   UNL     1      -2.744   3.850 -32.670  1.00  0.00     0.210 C 
ENDBRANCH  16  21
ENDBRANCH  14  15
ENDBRANCH  12  14
ENDBRANCH   1  12
BRANCH   3  23
HETATM   23  N   UNL     1      -7.314  -0.465 -34.755  1.00  0.00    -0.272 NA
HETATM   24  H   UNL     1      -7.274  -0.160 -35.727  1.00  0.00     0.129 HD
BRANCH  23  25
HETATM   25  C   UNL     1      -7.911   0.561 -33.899  1.00  0.00     0.061 C 
HETATM   26  C   UNL     1      -9.258   1.004 -34.469  1.00  0.00     0.020 C 
HETATM   27  C   UNL     1      -9.926   1.680 -33.284  1.00  0.00     0.002 C 
HETATM   28  C   UNL     1      -9.516   0.843 -32.077  1.00  0.00     0.002 C 
HETATM   29  C   UNL     1      -8.298   0.029 -32.515  1.00  0.00     0.020 C 
ENDBRANCH  23  25
ENDBRANCH   3  23
TORSDOF 6
ENDMDL
MODEL 2
REMARK VINA RESULT:      -8.3      2.047      7.099
REMARK  6 active torsions:
REMARK  status: ('A' for Active; 'I' for Inactive)
REMARK    1  A    between atoms: O_2  and  C_3 
REMARK    2  A    between atoms: C_4  and  C_5 
REMARK    3  A    between atoms: C_5  and  N_6 
REMARK    4  A    between atoms: N_6  and  C_7 
REMARK    5  A    between atoms: C_9  and  N_10 
REMARK    6  A    between atoms: N_10  and  C_11 
ROOT
HETATM    1  C   UNL     1      -4.212   0.422 -31.715  1.00  0.00     0.181 A 
HETATM    2  N   UNL     1      -3.210   1.306 -31.710  1.00  0.00    -0.207 NA
HETATM    3  C   UNL     1      -3.462   2.546 -31.258  1.00  0.00     0.119 A 
HETATM    4  C   UNL     1      -4.746   2.916 -30.801  1.00  0.00     0.031 A 
HETATM    5  C   UNL     1      -5.750   1.926 -30.846  1.00  0.00     0.048 A 
HETATM    6  N   UNL     1      -5.441   0.702 -31.294  1.00  0.00    -0.330 N 
HETATM    7  H   UNL     1      -6.110  -0.058 -31.275  1.00  0.00     0.168 HD
HETATM    8  C   UNL     1      -5.090   4.186 -30.284  1.00  0.00     0.017 A 
HETATM    9  C   UNL     1      -6.389   4.460 -29.851  1.00  0.00     0.001 A 
HETATM   10  C   UNL     1      -7.369   3.475 -29.917  1.00  0.00     0.002 A 
HETATM   11  C   UNL     1      -7.054   2.208 -30.407  1.00  0.00     0.030 A 
ENDROOT
BRANCH   1  12
HETATM   12  N   UNL     1      -3.893  -0.868 -32.088  1.00  0.00    -0.258 NA
HETATM   13  H   UNL     1      -3.037  -1.104 -31.581  1.00  0.00     0.130 HD
BRANCH  12  14
HETATM   14  C   UNL     1      -3.763  -1.164 -33.512  1.00  0.00     0.136 C 
BRANCH  14  15
HETATM   15  C   UNL     1      -4.700  -2.277 -33.929  1.00  0.00    -0.012 A 
HETATM   16  C   UNL     1      -6.038  -1.972 -34.254  1.00  0.00     0.075 A 
HETATM   17  C   UNL     1      -6.898  -2.981 -34.703  1.00  0.00     0.037 A 
HETATM   18  C   UNL     1      -6.433  -4.287 -34.858  1.00  0.00     0.003 A 
HETATM   19  C   UNL     1      -5.110  -4.595 -34.567  1.00  0.00     0.001 A 
HETATM   20  C   UNL     1      -4.248  -3.598 -34.112  1.00  0.00     0.011 A 
BRANCH  16  21
HETATM   21  O   UNL     1      -6.412  -0.663 -34.083  1.00  0.00    -0.355 OA
HETATM   22  C   UNL     1      -7.295  -0.126 -35.067  1.00  0.00     0.210 C 
ENDBRANCH  16  21
ENDBRANCH  14  15
ENDBRANCH  12  14
ENDBRANCH   1  12
BRANCH   3  23
HETATM   23  N   UNL     1      -2.402   3.458 -31.174  1.00  0.00    -0.272 NA
HETATM   24  H   UNL     1      -2.267   3.761 -30.210  1.00  0.00     0.129 HD
BRANCH  23  25
HETATM   25  C   UNL     1      -2.412   4.597 -32.094  1.00  0.00     0.061 C 
HETATM   26  C   UNL     1      -1.097   5.369 -31.989  1.00  0.00     0.020 C 
HETATM   27  C   UNL     1      -1.076   6.185 -33.271  1.00  0.00     0.002 C 
HETATM   28  C   UNL     1      -1.678   5.265 -34.327  1.00  0.00     0.002 C 
HETATM   29  C   UNL     1      -2.430   4.172 -33.565  1.00  0.00     0.020 C 
ENDBRANCH  23  25
ENDBRANCH   3  23
TORSDOF 6
ENDMDL
MODEL 3
REMARK VINA RESULT:      -8.1      1.677      3.055
REMARK  6 active torsions:
REMARK  status: ('A' for Active; 'I' for Inactive)
REMARK    1  A    between atoms: O_2  and  C_3 
REMARK    2  A    between atoms: C_4  and  C_5 
REMARK    3  A    between atoms: C_5  and  N_6 
REMARK    4  A    between atoms: N_6  and  C_7 
REMARK    5  A    between atoms: C_9  and  N_10 
REMARK    6  A    between atoms: N_10  and  C_11 
ROOT
HETATM    1  C   UNL     1      -4.491   0.849 -32.505  1.00  0.00     0.181 A 
HETATM    2  N   UNL     1      -5.790   1.121 -32.340  1.00  0.00    -0.207 NA
HETATM    3  C   UNL     1      -6.687   0.248 -32.828  1.00  0.00     0.119 A 
HETATM    4  C   UNL     1      -6.281  -0.927 -33.499  1.00  0.00     0.031 A 
HETATM    5  C   UNL     1      -4.893  -1.137 -33.637  1.00  0.00     0.048 A 
HETATM    6  N   UNL     1      -4.043  -0.240 -33.121  1.00  0.00    -0.330 N 
HETATM    7  H   UNL     1      -3.041  -0.386 -33.133  1.00  0.00     0.168 HD
HETATM    8  C   UNL     1      -7.156  -1.910 -34.016  1.00  0.00     0.017 A 
HETATM    9  C   UNL     1      -6.661  -3.044 -34.664  1.00  0.00     0.001 A 
HETATM   10  C   UNL     1      -5.289  -3.226 -34.804  1.00  0.00     0.002 A 
HETATM   11  C   UNL     1      -4.403  -2.280 -34.288  1.00  0.00     0.030 A 
ENDROOT
BRANCH   1  12
HETATM   12  N   UNL     1      -3.601   1.712 -31.903  1.00  0.00    -0.258 NA
HETATM   13  H   UNL     1      -3.292   1.248 -31.046  1.00  0.00     0.130 HD
BRANCH  12  14
HETATM   14  C   UNL     1      -4.037   3.081 -31.634  1.00  0.00     0.136 C 
BRANCH  14  15
HETATM   15  C   UNL     1      -3.481   4.046 -32.660  1.00  0.00    -0.012 A 
HETATM   16  C   UNL     1      -2.163   4.526 -32.517  1.00  0.00     0.075 A 
HETATM   17  C   UNL     1      -1.615   5.369 -33.491  1.00  0.00     0.037 A 
HETATM   18  C   UNL     1      -2.356   5.716 -34.621  1.00  0.00     0.003 A 
HETATM   19  C   UNL     1      -3.645   5.228 -34.787  1.00  0.00     0.001 A 
HETATM   20  C   UNL     1      -4.203   4.395 -33.817  1.00  0.00     0.011 A 
BRANCH  16  21
HETATM   21  O   UNL     1      -1.501   4.130 -31.383  1.00  0.00    -0.355 OA
HETATM   22  C   UNL     1      -0.587   5.073 -30.824  1.00  0.00     0.210 C 
ENDBRANCH  16  21
ENDBRANCH  14  15
ENDBRANCH  12  14
ENDBRANCH   1  12
BRANCH   3  23
HETATM   23  N   UNL     1      -8.048   0.482 -32.592  1.00  0.00    -0.272 NA
HETATM   24  H   UNL     1      -8.481  -0.332 -32.158  1.00  0.00     0.129 HD
BRANCH  23  25
HETATM   25  C   UNL     1      -8.854   0.983 -33.707  1.00  0.00     0.061 C 
HETATM   26  C   UNL     1     -10.332   0.681 -33.465  1.00  0.00     0.020 C 
HETATM   27  C   UNL     1     -11.036   1.629 -34.421  1.00  0.00     0.002 C 
HETATM   28  C   UNL     1     -10.201   2.904 -34.390  1.00  0.00     0.002 C 
HETATM   29  C   UNL     1      -8.841   2.511 -33.810  1.00  0.00     0.020 C 
ENDBRANCH  23  25
ENDBRANCH   3  23
TORSDOF 6
ENDMDL
MODEL 4
REMARK VINA RESULT:      -8.1      2.249      6.369
REMARK  6 active torsions:
REMARK  status: ('A' for Active; 'I' for Inactive)
REMARK    1  A    between atoms: O_2  and  C_3 
REMARK    2  A    between atoms: C_4  and  C_5 
REMARK    3  A    between atoms: C_5  and  N_6 
REMARK    4  A    between atoms: N_6  and  C_7 
REMARK    5  A    between atoms: C_9  and  N_10 
REMARK    6  A    between atoms: N_10  and  C_11 
ROOT
HETATM    1  C   UNL     1      -6.994   0.419 -31.955  1.00  0.00     0.181 A 
HETATM    2  N   UNL     1      -8.283   0.343 -32.302  1.00  0.00    -0.207 NA
HETATM    3  C   UNL     1      -9.105   1.329 -31.904  1.00  0.00     0.119 A 
HETATM    4  C   UNL     1      -8.632   2.419 -31.140  1.00  0.00     0.031 A 
HETATM    5  C   UNL     1      -7.261   2.420 -30.810  1.00  0.00     0.048 A 
HETATM    6  N   UNL     1      -6.484   1.418 -31.243  1.00  0.00    -0.330 N 
HETATM    7  H   UNL     1      -5.482   1.417 -31.092  1.00  0.00     0.168 HD
HETATM    8  C   UNL     1      -9.420   3.509 -30.707  1.00  0.00     0.017 A 
HETATM    9  C   UNL     1      -8.863   4.546 -29.955  1.00  0.00     0.001 A 
HETATM   10  C   UNL     1      -7.511   4.523 -29.628  1.00  0.00     0.002 A 
HETATM   11  C   UNL     1      -6.707   3.467 -30.057  1.00  0.00     0.030 A 
ENDROOT
BRANCH   1  12
HETATM   12  N   UNL     1      -6.162  -0.554 -32.466  1.00  0.00    -0.258 NA
HETATM   13  H   UNL     1      -5.222  -0.323 -32.137  1.00  0.00     0.130 HD
BRANCH  12  14
HETATM   14  C   UNL     1      -6.174  -0.788 -33.908  1.00  0.00     0.136 C 
BRANCH  14  15
HETATM   15  C   UNL     1      -5.847  -2.230 -34.233  1.00  0.00    -0.012 A 
HETATM   16  C   UNL     1      -4.604  -2.765 -33.838  1.00  0.00     0.075 A 
HETATM   17  C   UNL     1      -4.314  -4.114 -34.076  1.00  0.00     0.037 A 
HETATM   18  C   UNL     1      -5.259  -4.943 -34.679  1.00  0.00     0.003 A 
HETATM   19  C   UNL     1      -6.498  -4.434 -35.049  1.00  0.00     0.001 A 
HETATM   20  C   UNL     1      -6.792  -3.090 -34.823  1.00  0.00     0.011 A 
BRANCH  16  21
HETATM   21  O   UNL     1      -3.735  -1.886 -33.243  1.00  0.00    -0.355 OA
HETATM   22  C   UNL     1      -3.129  -2.323 -32.027  1.00  0.00     0.210 C 
ENDBRANCH  16  21
ENDBRANCH  14  15
ENDBRANCH  12  14
ENDBRANCH   1  12
BRANCH   3  23
HETATM   23  N   UNL     1     -10.440   1.302 -32.328  1.00  0.00    -0.272 NA
HETATM   24  H   UNL     1     -10.913   0.473 -31.970  1.00  0.00     0.129 HD
BRANCH  23  25
HETATM   25  C   UNL     1     -10.703   1.489 -33.756  1.00  0.00     0.061 C 
HETATM   26  C   UNL     1     -12.151   1.123 -34.077  1.00  0.00     0.020 C 
HETATM   27  C   UNL     1     -12.382   1.788 -35.423  1.00  0.00     0.002 C 
HETATM   28  C   UNL     1     -11.622   3.106 -35.341  1.00  0.00     0.002 C 
HETATM   29  C   UNL     1     -10.631   2.958 -34.186  1.00  0.00     0.020 C 
ENDBRANCH  23  25
ENDBRANCH   3  23
TORSDOF 6
ENDMDL
MODEL 5
REMARK VINA RESULT:      -8.1     13.620     15.194
REMARK  6 active torsions:
REMARK  status: ('A' for Active; 'I' for Inactive)
REMARK    1  A    between atoms: O_2  and  C_3 
REMARK    2  A    between atoms: C_4  and  C_5 
REMARK    3  A    between atoms: C_5  and  N_6 
REMARK    4  A    between atoms: N_6  and  C_7 
REMARK    5  A    between atoms: C_9  and  N_10 
REMARK    6  A    between atoms: N_10  and  C_11 
ROOT
HETATM    1  C   UNL     1      -4.468 -12.447 -38.780  1.00  0.00     0.181 A 
HETATM    2  N   UNL     1      -5.680 -12.143 -39.255  1.00  0.00    -0.207 NA
HETATM    3  C   UNL     1      -6.012 -12.595 -40.476  1.00  0.00     0.119 A 
HETATM    4  C   UNL     1      -5.114 -13.368 -41.245  1.00  0.00     0.031 A 
HETATM    5  C   UNL     1      -3.853 -13.638 -40.674  1.00  0.00     0.048 A 
HETATM    6  N   UNL     1      -3.578 -13.174 -39.448  1.00  0.00    -0.330 N 
HETATM    7  H   UNL     1      -2.715 -13.405 -38.971  1.00  0.00     0.168 HD
HETATM    8  C   UNL     1      -5.393 -13.905 -42.523  1.00  0.00     0.017 A 
HETATM    9  C   UNL     1      -4.441 -14.662 -43.209  1.00  0.00     0.001 A 
HETATM   10  C   UNL     1      -3.197 -14.906 -42.635  1.00  0.00     0.002 A 
HETATM   11  C   UNL     1      -2.901 -14.401 -41.368  1.00  0.00     0.030 A 
ENDROOT
BRANCH   1  12
HETATM   12  N   UNL     1      -4.200 -12.056 -37.485  1.00  0.00    -0.258 NA
HETATM   13  H   UNL     1      -3.521 -11.294 -37.555  1.00  0.00     0.130 HD
BRANCH  12  14
HETATM   14  C   UNL     1      -3.758 -13.071 -36.532  1.00  0.00     0.136 C 
BRANCH  14  15
HETATM   15  C   UNL     1      -4.914 -13.584 -35.700  1.00  0.00    -0.012 A 
HETATM   16  C   UNL     1      -5.663 -14.687 -36.158  1.00  0.00     0.075 A 
HETATM   17  C   UNL     1      -6.693 -15.211 -35.369  1.00  0.00     0.037 A 
HETATM   18  C   UNL     1      -6.969 -14.666 -34.115  1.00  0.00     0.003 A 
HETATM   19  C   UNL     1      -6.221 -13.596 -33.641  1.00  0.00     0.001 A 
HETATM   20  C   UNL     1      -5.198 -13.062 -34.424  1.00  0.00     0.011 A 
BRANCH  16  21
HETATM   21  O   UNL     1      -5.322 -15.170 -37.397  1.00  0.00    -0.355 OA
HETATM   22  C   UNL     1      -6.402 -15.593 -38.227  1.00  0.00     0.210 C 
ENDBRANCH  16  21
ENDBRANCH  14  15
ENDBRANCH  12  14
ENDBRANCH   1  12
BRANCH   3  23
HETATM   23  N   UNL     1      -7.307 -12.351 -40.953  1.00  0.00    -0.272 NA
HETATM   24  H   UNL     1      -7.430 -11.363 -41.167  1.00  0.00     0.129 HD
BRANCH  23  25
HETATM   25  C   UNL     1      -8.428 -12.869 -40.166  1.00  0.00     0.061 C 
HETATM   26  C   UNL     1      -9.651 -11.970 -40.339  1.00  0.00     0.020 C 
HETATM   27  C   UNL     1     -10.795 -12.854 -39.870  1.00  0.00     0.002 C 
HETATM   28  C   UNL     1     -10.435 -14.250 -40.364  1.00  0.00     0.002 C 
HETATM   29  C   UNL     1      -8.938 -14.221 -40.675  1.00  0.00     0.020 C 
ENDBRANCH  23  25
ENDBRANCH   3  23
TORSDOF 6
ENDMDL
MODEL 6
REMARK VINA RESULT:      -7.8     13.636     15.505
REMARK  6 active torsions:
REMARK  status: ('A' for Active; 'I' for Inactive)
REMARK    1  A    between atoms: O_2  and  C_3 
REMARK    2  A    between atoms: C_4  and  C_5 
REMARK    3  A    between atoms: C_5  and  N_6 
REMARK    4  A    between atoms: N_6  and  C_7 
REMARK    5  A    between atoms: C_9  and  N_10 
REMARK    6  A    between atoms: N_10  and  C_11 
ROOT
HETATM    1  C   UNL     1      -4.645 -13.161 -36.250  1.00  0.00     0.181 A 
HETATM    2  N   UNL     1      -3.542 -13.088 -37.002  1.00  0.00    -0.207 NA
HETATM    3  C   UNL     1      -3.687 -12.841 -38.315  1.00  0.00     0.119 A 
HETATM    4  C   UNL     1      -4.962 -12.665 -38.895  1.00  0.00     0.031 A 
HETATM    5  C   UNL     1      -6.075 -12.764 -38.034  1.00  0.00     0.048 A 
HETATM    6  N   UNL     1      -5.873 -12.999 -36.731  1.00  0.00    -0.330 N 
HETATM    7  H   UNL     1      -6.637 -13.005 -36.065  1.00  0.00     0.168 HD
HETATM    8  C   UNL     1      -5.201 -12.374 -40.258  1.00  0.00     0.017 A 
HETATM    9  C   UNL     1      -6.502 -12.213 -40.742  1.00  0.00     0.001 A 
HETATM   10  C   UNL     1      -7.587 -12.329 -39.879  1.00  0.00     0.002 A 
HETATM   11  C   UNL     1      -7.379 -12.599 -38.527  1.00  0.00     0.030 A 
ENDROOT
BRANCH   1  12
HETATM   12  N   UNL     1      -4.454 -13.312 -34.892  1.00  0.00    -0.258 NA
HETATM   13  H   UNL     1      -4.093 -14.259 -34.762  1.00  0.00     0.130 HD
BRANCH  12  14
HETATM   14  C   UNL     1      -5.582 -13.048 -34.002  1.00  0.00     0.136 C 
BRANCH  14  15
HETATM   15  C   UNL     1      -5.906 -14.259 -33.152  1.00  0.00    -0.012 A 
HETATM   16  C   UNL     1      -6.706 -15.288 -33.690  1.00  0.00     0.075 A 
HETATM   17  C   UNL     1      -6.961 -16.442 -32.939  1.00  0.00     0.037 A 
HETATM   18  C   UNL     1      -6.405 -16.594 -31.668  1.00  0.00     0.003 A 
HETATM   19  C   UNL     1      -5.593 -15.599 -31.139  1.00  0.00     0.001 A 
HETATM   20  C   UNL     1      -5.341 -14.443 -31.876  1.00  0.00     0.011 A 
BRANCH  16  21
HETATM   21  O   UNL     1      -7.206 -15.064 -34.947  1.00  0.00    -0.355 OA
HETATM   22  C   UNL     1      -7.224 -16.187 -35.828  1.00  0.00     0.210 C 
ENDBRANCH  16  21
ENDBRANCH  14  15
ENDBRANCH  12  14
ENDBRANCH   1  12
BRANCH   3  23
HETATM   23  N   UNL     1      -2.536 -12.683 -39.099  1.00  0.00    -0.272 NA
HETATM   24  H   UNL     1      -2.772 -12.284 -40.006  1.00  0.00     0.129 HD
BRANCH  23  25
HETATM   25  C   UNL     1      -1.648 -13.838 -39.241  1.00  0.00     0.061 C 
HETATM   26  C   UNL     1      -0.985 -13.826 -40.617  1.00  0.00     0.020 C 
HETATM   27  C   UNL     1       0.195 -14.766 -40.438  1.00  0.00     0.002 C 
HETATM   28  C   UNL     1       0.696 -14.496 -39.024  1.00  0.00     0.002 C 
HETATM   29  C   UNL     1      -0.445 -13.784 -38.294  1.00  0.00     0.020 C 
ENDBRANCH  23  25
ENDBRANCH   3  23
TORSDOF 6
ENDMDL
MODEL 7
REMARK VINA RESULT:      -7.8      3.075      6.507
REMARK  6 active torsions:
REMARK  status: ('A' for Active; 'I' for Inactive)
REMARK    1  A    between atoms: O_2  and  C_3 
REMARK    2  A    between atoms: C_4  and  C_5 
REMARK    3  A    between atoms: C_5  and  N_6 
REMARK    4  A    between atoms: N_6  and  C_7 
REMARK    5  A    between atoms: C_9  and  N_10 
REMARK    6  A    between atoms: N_10  and  C_11 
ROOT
HETATM    1  C   UNL     1      -8.681   0.532 -32.578  1.00  0.00     0.181 A 
HETATM    2  N   UNL     1      -7.752   1.093 -31.798  1.00  0.00    -0.207 NA
HETATM    3  C   UNL     1      -6.490   0.642 -31.892  1.00  0.00     0.119 A 
HETATM    4  C   UNL     1      -6.143  -0.395 -32.785  1.00  0.00     0.031 A 
HETATM    5  C   UNL     1      -7.183  -0.938 -33.569  1.00  0.00     0.048 A 
HETATM    6  N   UNL     1      -8.421  -0.443 -33.444  1.00  0.00    -0.330 N 
HETATM    7  H   UNL     1      -9.181  -0.751 -34.037  1.00  0.00     0.168 HD
HETATM    8  C   UNL     1      -4.838  -0.907 -32.968  1.00  0.00     0.017 A 
HETATM    9  C   UNL     1      -4.589  -1.936 -33.880  1.00  0.00     0.001 A 
HETATM   10  C   UNL     1      -5.631  -2.468 -34.633  1.00  0.00     0.002 A 
HETATM   11  C   UNL     1      -6.925  -1.970 -34.485  1.00  0.00     0.030 A 
ENDROOT
BRANCH   1  12
HETATM   12  N   UNL     1      -9.942   1.088 -32.530  1.00  0.00    -0.258 NA
HETATM   13  H   UNL     1     -10.477   0.516 -31.873  1.00  0.00     0.130 HD
BRANCH  12  14
HETATM   14  C   UNL     1     -10.666   1.271 -33.785  1.00  0.00     0.136 C 
BRANCH  14  15
HETATM   15  C   UNL     1     -12.162   1.313 -33.556  1.00  0.00    -0.012 A 
HETATM   16  C   UNL     1     -12.764   2.515 -33.130  1.00  0.00     0.075 A 
HETATM   17  C   UNL     1     -14.154   2.586 -32.976  1.00  0.00     0.037 A 
HETATM   18  C   UNL     1     -14.954   1.480 -33.267  1.00  0.00     0.003 A 
HETATM   19  C   UNL     1     -14.375   0.299 -33.712  1.00  0.00     0.001 A 
HETATM   20  C   UNL     1     -12.991   0.216 -33.861  1.00  0.00     0.011 A 
BRANCH  16  21
HETATM   21  O   UNL     1     -11.908   3.556 -32.875  1.00  0.00    -0.355 OA
HETATM   22  C   UNL     1     -11.927   4.076 -31.546  1.00  0.00     0.210 C 
ENDBRANCH  16  21
ENDBRANCH  14  15
ENDBRANCH  12  14
ENDBRANCH   1  12
BRANCH   3  23
HETATM   23  N   UNL     1      -5.493   1.275 -31.137  1.00  0.00    -0.272 NA
HETATM   24  H   UNL     1      -5.807   1.421 -30.179  1.00  0.00     0.129 HD
BRANCH  23  25
HETATM   25  C   UNL     1      -4.891   2.489 -31.691  1.00  0.00     0.061 C 
HETATM   26  C   UNL     1      -5.008   3.638 -30.691  1.00  0.00     0.020 C 
HETATM   27  C   UNL     1      -3.976   4.635 -31.191  1.00  0.00     0.002 C 
HETATM   28  C   UNL     1      -2.814   3.778 -31.681  1.00  0.00     0.002 C 
HETATM   29  C   UNL     1      -3.375   2.369 -31.879  1.00  0.00     0.020 C 
ENDBRANCH  23  25
ENDBRANCH   3  23
TORSDOF 6
ENDMDL
MODEL 8
REMARK VINA RESULT:      -7.6      2.316      5.586
REMARK  6 active torsions:
REMARK  status: ('A' for Active; 'I' for Inactive)
REMARK    1  A    between atoms: O_2  and  C_3 
REMARK    2  A    between atoms: C_4  and  C_5 
REMARK    3  A    between atoms: C_5  and  N_6 
REMARK    4  A    between atoms: N_6  and  C_7 
REMARK    5  A    between atoms: C_9  and  N_10 
REMARK    6  A    between atoms: N_10  and  C_11 
ROOT
HETATM    1  C   UNL     1      -6.974   3.404 -33.895  1.00  0.00     0.181 A 
HETATM    2  N   UNL     1      -6.338   2.307 -33.473  1.00  0.00    -0.207 NA
HETATM    3  C   UNL     1      -7.076   1.229 -33.159  1.00  0.00     0.119 A 
HETATM    4  C   UNL     1      -8.484   1.245 -33.265  1.00  0.00     0.031 A 
HETATM    5  C   UNL     1      -9.078   2.444 -33.712  1.00  0.00     0.048 A 
HETATM    6  N   UNL     1      -8.294   3.484 -34.024  1.00  0.00    -0.330 N 
HETATM    7  H   UNL     1      -8.671   4.338 -34.417  1.00  0.00     0.168 HD
HETATM    8  C   UNL     1      -9.332   0.149 -32.983  1.00  0.00     0.017 A 
HETATM    9  C   UNL     1     -10.718   0.257 -33.121  1.00  0.00     0.001 A 
HETATM   10  C   UNL     1     -11.286   1.454 -33.549  1.00  0.00     0.002 A 
HETATM   11  C   UNL     1     -10.471   2.545 -33.850  1.00  0.00     0.030 A 
ENDROOT
BRANCH   1  12
HETATM   12  N   UNL     1      -6.180   4.454 -34.307  1.00  0.00    -0.258 NA
HETATM   13  H   UNL     1      -5.486   4.052 -34.940  1.00  0.00     0.130 HD
BRANCH  12  14
HETATM   14  C   UNL     1      -5.546   5.284 -33.286  1.00  0.00     0.136 C 
BRANCH  14  15
HETATM   15  C   UNL     1      -4.048   5.358 -33.489  1.00  0.00    -0.012 A 
HETATM   16  C   UNL     1      -3.196   5.387 -32.366  1.00  0.00     0.075 A 
HETATM   17  C   UNL     1      -1.807   5.390 -32.539  1.00  0.00     0.037 A 
HETATM   18  C   UNL     1      -1.256   5.337 -33.819  1.00  0.00     0.003 A 
HETATM   19  C   UNL     1      -2.084   5.281 -34.933  1.00  0.00     0.001 A 
HETATM   20  C   UNL     1      -3.469   5.286 -34.770  1.00  0.00     0.011 A 
BRANCH  16  21
HETATM   21  O   UNL     1      -3.818   5.428 -31.143  1.00  0.00    -0.355 OA
HETATM   22  C   UNL     1      -3.429   6.491 -30.274  1.00  0.00     0.210 C 
ENDBRANCH  16  21
ENDBRANCH  14  15
ENDBRANCH  12  14
ENDBRANCH   1  12
BRANCH   3  23
HETATM   23  N   UNL     1      -6.418   0.048 -32.791  1.00  0.00    -0.272 NA
HETATM   24  H   UNL     1      -5.765   0.224 -32.029  1.00  0.00     0.129 HD
BRANCH  23  25
HETATM   25  C   UNL     1      -5.793  -0.740 -33.855  1.00  0.00     0.061 C 
HETATM   26  C   UNL     1      -4.678  -1.611 -33.280  1.00  0.00     0.020 C 
HETATM   27  C   UNL     1      -4.465  -2.655 -34.363  1.00  0.00     0.002 C 
HETATM   28  C   UNL     1      -5.861  -2.948 -34.900  1.00  0.00     0.002 C 
HETATM   29  C   UNL     1      -6.743  -1.777 -34.463  1.00  0.00     0.020 C 
ENDBRANCH  23  25
ENDBRANCH   3  23
TORSDOF 6
ENDMDL
MODEL 9
REMARK VINA RESULT:      -7.6     13.739     15.168
REMARK  6 active torsions:
REMARK  status: ('A' for Active; 'I' for Inactive)
REMARK    1  A    between atoms: O_2  and  C_3 
REMARK    2  A    between atoms: C_4  and  C_5 
REMARK    3  A    between atoms: C_5  and  N_6 
REMARK    4  A    between atoms: N_6  and  C_7 
REMARK    5  A    between atoms: C_9  and  N_10 
REMARK    6  A    between atoms: N_10  and  C_11 
ROOT
HETATM    1  C   UNL     1      -4.096 -12.529 -38.038  1.00  0.00     0.181 A 
HETATM    2  N   UNL     1      -5.120 -12.995 -38.760  1.00  0.00    -0.207 NA
HETATM    3  C   UNL     1      -6.128 -13.603 -38.111  1.00  0.00     0.119 A 
HETATM    4  C   UNL     1      -6.115 -13.752 -36.707  1.00  0.00     0.031 A 
HETATM    5  C   UNL     1      -4.996 -13.239 -36.020  1.00  0.00     0.048 A 
HETATM    6  N   UNL     1      -4.025 -12.631 -36.715  1.00  0.00    -0.330 N 
HETATM    7  H   UNL     1      -3.240 -12.184 -36.256  1.00  0.00     0.168 HD
HETATM    8  C   UNL     1      -7.145 -14.351 -35.945  1.00  0.00     0.017 A 
HETATM    9  C   UNL     1      -7.046 -14.451 -34.555  1.00  0.00     0.001 A 
HETATM   10  C   UNL     1      -5.926 -13.951 -33.896  1.00  0.00     0.002 A 
HETATM   11  C   UNL     1      -4.904 -13.341 -34.623  1.00  0.00     0.030 A 
ENDROOT
BRANCH   1  12
HETATM   12  N   UNL     1      -3.132 -11.821 -38.724  1.00  0.00    -0.258 NA
HETATM   13  H   UNL     1      -3.237 -12.082 -39.707  1.00  0.00     0.130 HD
BRANCH  12  14
HETATM   14  C   UNL     1      -1.742 -11.946 -38.290  1.00  0.00     0.136 C 
BRANCH  14  15
HETATM   15  C   UNL     1      -1.143 -13.262 -38.736  1.00  0.00    -0.012 A 
HETATM   16  C   UNL     1      -0.971 -14.299 -37.796  1.00  0.00     0.075 A 
HETATM   17  C   UNL     1      -0.477 -15.542 -38.207  1.00  0.00     0.037 A 
HETATM   18  C   UNL     1      -0.178 -15.774 -39.549  1.00  0.00     0.003 A 
HETATM   19  C   UNL     1      -0.368 -14.769 -40.489  1.00  0.00     0.001 A 
HETATM   20  C   UNL     1      -0.851 -13.525 -40.088  1.00  0.00     0.011 A 
BRANCH  16  21
HETATM   21  O   UNL     1      -1.298 -13.992 -36.499  1.00  0.00    -0.355 OA
HETATM   22  C   UNL     1      -1.122 -15.036 -35.541  1.00  0.00     0.210 C 
ENDBRANCH  16  21
ENDBRANCH  14  15
ENDBRANCH  12  14
ENDBRANCH   1  12
BRANCH   3  23
HETATM   23  N   UNL     1      -7.242 -14.025 -38.848  1.00  0.00    -0.272 NA
HETATM   24  H   UNL     1      -6.961 -14.340 -39.775  1.00  0.00     0.129 HD
BRANCH  23  25
HETATM   25  C   UNL     1      -8.391 -13.120 -38.918  1.00  0.00     0.061 C 
HETATM   26  C   UNL     1      -8.379 -12.356 -40.241  1.00  0.00     0.020 C 
HETATM   27  C   UNL     1      -9.806 -11.847 -40.356  1.00  0.00     0.002 C 
HETATM   28  C   UNL     1     -10.667 -12.973 -39.796  1.00  0.00     0.002 C 
HETATM   29  C   UNL     1      -9.730 -13.862 -38.977  1.00  0.00     0.020 C 
ENDBRANCH  23  25
ENDBRANCH   3  23
TORSDOF 6
ENDMDL
MODEL 10
REMARK VINA RESULT:      -7.6      2.122      7.070
REMARK  6 active torsions:
REMARK  status: ('A' for Active; 'I' for Inactive)
REMARK    1  A    between atoms: O_2  and  C_3 
REMARK    2  A    between atoms: C_4  and  C_5 
REMARK    3  A    between atoms: C_5  and  N_6 
REMARK    4  A    between atoms: N_6  and  C_7 
REMARK    5  A    between atoms: C_9  and  N_10 
REMARK    6  A    between atoms: N_10  and  C_11 
ROOT
HETATM    1  C   UNL     1      -7.107   0.672 -32.149  1.00  0.00     0.181 A 
HETATM    2  N   UNL     1      -5.953   1.284 -31.865  1.00  0.00    -0.207 NA
HETATM    3  C   UNL     1      -6.005   2.486 -31.267  1.00  0.00     0.119 A 
HETATM    4  C   UNL     1      -7.237   3.096 -30.945  1.00  0.00     0.031 A 
HETATM    5  C   UNL     1      -8.409   2.387 -31.284  1.00  0.00     0.048 A 
HETATM    6  N   UNL     1      -8.299   1.186 -31.868  1.00  0.00    -0.330 N 
HETATM    7  H   UNL     1      -9.110   0.611 -32.062  1.00  0.00     0.168 HD
HETATM    8  C   UNL     1      -7.381   4.341 -30.291  1.00  0.00     0.017 A 
HETATM    9  C   UNL     1      -8.645   4.865 -30.011  1.00  0.00     0.001 A 
HETATM   10  C   UNL     1      -9.789   4.157 -30.366  1.00  0.00     0.002 A 
HETATM   11  C   UNL     1      -9.676   2.918 -30.997  1.00  0.00     0.030 A 
ENDROOT
BRANCH   1  12
HETATM   12  N   UNL     1      -7.015  -0.603 -32.667  1.00  0.00    -0.258 NA
HETATM   13  H   UNL     1      -6.437  -1.133 -32.011  1.00  0.00     0.130 HD
BRANCH  12  14
HETATM   14  C   UNL     1      -6.537  -0.760 -34.039  1.00  0.00     0.136 C 
BRANCH  14  15
HETATM   15  C   UNL     1      -5.983  -2.149 -34.273  1.00  0.00    -0.012 A 
HETATM   16  C   UNL     1      -4.672  -2.453 -33.851  1.00  0.00     0.075 A 
HETATM   17  C   UNL     1      -4.171  -3.751 -34.004  1.00  0.00     0.037 A 
HETATM   18  C   UNL     1      -4.970  -4.758 -34.545  1.00  0.00     0.003 A 
HETATM   19  C   UNL     1      -6.272  -4.477 -34.939  1.00  0.00     0.001 A 
HETATM   20  C   UNL     1      -6.778  -3.185 -34.799  1.00  0.00     0.011 A 
BRANCH  16  21
HETATM   21  O   UNL     1      -3.957  -1.410 -33.321  1.00  0.00    -0.355 OA
HETATM   22  C   UNL     1      -3.242  -1.684 -32.116  1.00  0.00     0.210 C 
ENDBRANCH  16  21
ENDBRANCH  14  15
ENDBRANCH  12  14
ENDBRANCH   1  12
BRANCH   3  23
HETATM   23  N   UNL     1      -4.803   3.102 -30.893  1.00  0.00    -0.272 NA
HETATM   24  H   UNL     1      -4.900   3.553 -29.984  1.00  0.00     0.129 HD
BRANCH  23  25
HETATM   25  C   UNL     1      -4.166   3.992 -31.864  1.00  0.00     0.061 C 
HETATM   26  C   UNL     1      -3.638   5.244 -31.163  1.00  0.00     0.020 C 
HETATM   27  C   UNL     1      -2.645   5.805 -32.167  1.00  0.00     0.002 C 
HETATM   28  C   UNL     1      -1.978   4.580 -32.781  1.00  0.00     0.002 C 
HETATM   29  C   UNL     1      -2.894   3.395 -32.474  1.00  0.00     0.020 C 
ENDBRANCH  23  25
ENDBRANCH   3  23
TORSDOF 6
ENDMDL
