MODEL 1
REMARK VINA RESULT:      -9.1      0.000      0.000
REMARK  4 active torsions:
REMARK  status: ('A' for Active; 'I' for Inactive)
REMARK    1  A    between atoms: C_5  and  N_6 
REMARK    2  A    between atoms: C_11  and  C_12 
REMARK    3  A    between atoms: C_13  and  O_14 
REMARK    4  A    between atoms: C_18  and  C_19 
REMARK       I    between atoms: C_19  and  N_20 
ROOT
HETATM    1  C   UNL     1      -4.124   4.923 -31.300  1.00  0.00     0.023 A 
HETATM    2  C   UNL     1      -5.024   5.792 -30.785  1.00  0.00     0.153 A 
HETATM    3  N   UNL     1      -4.828   7.131 -30.844  1.00  0.00    -0.303 N 
HETATM    4  C   UNL     1      -3.768   7.734 -31.453  1.00  0.00     0.263 A 
HETATM    5  O   UNL     1      -3.662   8.959 -31.459  1.00  0.00    -0.267 OA
HETATM    6  C   UNL     1      -2.756   6.831 -32.094  1.00  0.00     0.106 A 
HETATM    7  C   UNL     1      -2.919   5.487 -31.965  1.00  0.00    -0.026 A 
HETATM    8  C   UNL     1      -1.916   4.468 -32.462  1.00  0.00     0.050 C 
HETATM    9  H   UNL     1      -5.527   7.734 -30.429  1.00  0.00     0.171 HD
ENDROOT
BRANCH   1  10
HETATM   10  C   UNL     1      -4.386   3.492 -31.203  1.00  0.00     0.035 C 
HETATM   11  C   UNL     1      -5.017   2.720 -32.097  1.00  0.00     0.061 A 
HETATM   12  C   UNL     1      -5.682   2.981 -33.382  1.00  0.00     0.067 A 
HETATM   13  C   UNL     1      -5.058   1.243 -31.949  1.00  0.00     0.281 A 
HETATM   14  N   UNL     1      -6.014   1.877 -33.994  1.00  0.00    -0.168 NA
HETATM   15  C   UNL     1      -5.947   4.334 -33.953  1.00  0.00     0.073 C 
HETATM   16  N   UNL     1      -5.637   0.826 -33.155  1.00  0.00    -0.197 N 
HETATM   17  O   UNL     1      -4.607   0.632 -30.996  1.00  0.00    -0.265 OA
BRANCH  16  18
HETATM   18  C   UNL     1      -5.794  -0.503 -33.622  1.00  0.00     0.062 A 
HETATM   19  C   UNL     1      -4.704  -1.370 -33.768  1.00  0.00     0.032 A 
HETATM   20  C   UNL     1      -4.873  -2.663 -34.281  1.00  0.00     0.009 A 
HETATM   21  C   UNL     1      -6.137  -3.121 -34.656  1.00  0.00    -0.062 A 
HETATM   22  C   UNL     1      -6.325  -4.492 -35.233  1.00  0.00     0.048 C 
HETATM   23  C   UNL     1      -7.234  -2.269 -34.500  1.00  0.00     0.009 A 
HETATM   24  C   UNL     1      -7.063  -0.979 -33.985  1.00  0.00     0.032 A 
ENDBRANCH  16  18
ENDBRANCH   1  10
BRANCH   2  25
HETATM   25  O   UNL     1      -6.202   5.468 -30.168  1.00  0.00    -0.345 OA
HETATM   26  H   UNL     1      -6.280   5.965 -29.337  1.00  0.00     0.219 HD
ENDBRANCH   2  25
BRANCH   6  27
HETATM   27  C   UNL     1      -1.626   7.422 -32.885  1.00  0.00     0.255 C 
HETATM   28  N   UNL     1      -0.397   7.409 -32.301  1.00  0.00    -0.366 N 
HETATM   29  H   UNL     1      -0.296   7.210 -31.307  1.00  0.00     0.159 HD
HETATM   30  H   UNL     1       0.345   7.920 -32.759  1.00  0.00     0.159 HD
HETATM   31  O   UNL     1      -1.765   7.938 -33.988  1.00  0.00    -0.268 OA
ENDBRANCH   6  27
TORSDOF 4
ENDMDL
MODEL 2
REMARK VINA RESULT:      -8.7      2.038      3.402
REMARK  4 active torsions:
REMARK  status: ('A' for Active; 'I' for Inactive)
REMARK    1  A    between atoms: C_5  and  N_6 
REMARK    2  A    between atoms: C_11  and  C_12 
REMARK    3  A    between atoms: C_13  and  O_14 
REMARK    4  A    between atoms: C_18  and  C_19 
REMARK       I    between atoms: C_19  and  N_20 
ROOT
HETATM    1  C   UNL     1      -5.780   4.968 -31.805  1.00  0.00     0.023 A 
HETATM    2  C   UNL     1      -5.020   5.977 -32.292  1.00  0.00     0.153 A 
HETATM    3  N   UNL     1      -4.629   7.009 -31.507  1.00  0.00    -0.303 N 
HETATM    4  C   UNL     1      -4.901   7.119 -30.176  1.00  0.00     0.263 A 
HETATM    5  O   UNL     1      -4.510   8.093 -29.534  1.00  0.00    -0.267 OA
HETATM    6  C   UNL     1      -5.696   6.008 -29.556  1.00  0.00     0.106 A 
HETATM    7  C   UNL     1      -6.151   5.013 -30.364  1.00  0.00    -0.026 A 
HETATM    8  C   UNL     1      -7.057   3.896 -29.893  1.00  0.00     0.050 C 
HETATM    9  H   UNL     1      -4.073   7.743 -31.927  1.00  0.00     0.171 HD
ENDROOT
BRANCH   1  10
HETATM   10  C   UNL     1      -6.175   3.886 -32.697  1.00  0.00     0.035 C 
HETATM   11  C   UNL     1      -5.572   2.700 -32.852  1.00  0.00     0.061 A 
HETATM   12  C   UNL     1      -4.361   2.090 -32.286  1.00  0.00     0.067 A 
HETATM   13  C   UNL     1      -6.186   1.623 -33.669  1.00  0.00     0.281 A 
HETATM   14  N   UNL     1      -4.254   0.828 -32.604  1.00  0.00    -0.168 NA
HETATM   15  C   UNL     1      -3.360   2.797 -31.434  1.00  0.00     0.073 C 
HETATM   16  N   UNL     1      -5.345   0.529 -33.422  1.00  0.00    -0.197 N 
HETATM   17  O   UNL     1      -7.215   1.744 -34.311  1.00  0.00    -0.265 OA
BRANCH  16  18
HETATM   18  C   UNL     1      -5.533  -0.813 -33.836  1.00  0.00     0.062 A 
HETATM   19  C   UNL     1      -4.458  -1.696 -33.996  1.00  0.00     0.032 A 
HETATM   20  C   UNL     1      -4.659  -3.004 -34.457  1.00  0.00     0.009 A 
HETATM   21  C   UNL     1      -5.941  -3.461 -34.765  1.00  0.00    -0.062 A 
HETATM   22  C   UNL     1      -6.164  -4.850 -35.285  1.00  0.00     0.048 C 
HETATM   23  C   UNL     1      -7.023  -2.594 -34.594  1.00  0.00     0.009 A 
HETATM   24  C   UNL     1      -6.820  -1.289 -34.131  1.00  0.00     0.032 A 
ENDBRANCH  16  18
ENDBRANCH   1  10
BRANCH   2  25
HETATM   25  O   UNL     1      -4.553   6.094 -33.573  1.00  0.00    -0.345 OA
HETATM   26  H   UNL     1      -3.862   6.777 -33.605  1.00  0.00     0.219 HD
ENDBRANCH   2  25
BRANCH   6  27
HETATM   27  C   UNL     1      -5.934   5.998 -28.075  1.00  0.00     0.255 C 
HETATM   28  N   UNL     1      -5.070   5.266 -27.320  1.00  0.00    -0.366 N 
HETATM   29  H   UNL     1      -4.439   4.595 -27.756  1.00  0.00     0.159 HD
HETATM   30  H   UNL     1      -5.294   5.139 -26.343  1.00  0.00     0.159 HD
HETATM   31  O   UNL     1      -6.872   6.573 -27.534  1.00  0.00    -0.268 OA
ENDBRANCH   6  27
TORSDOF 4
ENDMDL
MODEL 3
REMARK VINA RESULT:      -8.7      3.625      8.767
REMARK  4 active torsions:
REMARK  status: ('A' for Active; 'I' for Inactive)
REMARK    1  A    between atoms: C_5  and  N_6 
REMARK    2  A    between atoms: C_11  and  C_12 
REMARK    3  A    between atoms: C_13  and  O_14 
REMARK    4  A    between atoms: C_18  and  C_19 
REMARK       I    between atoms: C_19  and  N_20 
ROOT
HETATM    1  C   UNL     1      -3.789   3.811 -32.799  1.00  0.00     0.023 A 
HETATM    2  C   UNL     1      -4.447   4.523 -33.744  1.00  0.00     0.153 A 
HETATM    3  N   UNL     1      -5.626   4.097 -34.255  1.00  0.00    -0.303 N 
HETATM    4  C   UNL     1      -6.286   2.974 -33.856  1.00  0.00     0.263 A 
HETATM    5  O   UNL     1      -7.354   2.655 -34.375  1.00  0.00    -0.267 OA
HETATM    6  C   UNL     1      -5.640   2.162 -32.772  1.00  0.00     0.106 A 
HETATM    7  C   UNL     1      -4.420   2.553 -32.316  1.00  0.00    -0.026 A 
HETATM    8  C   UNL     1      -3.606   1.765 -31.311  1.00  0.00     0.050 C 
HETATM    9  H   UNL     1      -6.068   4.663 -34.969  1.00  0.00     0.171 HD
ENDROOT
BRANCH   1  10
HETATM   10  C   UNL     1      -2.521   4.316 -32.288  1.00  0.00     0.035 C 
HETATM   11  C   UNL     1      -2.339   5.233 -31.329  1.00  0.00     0.061 A 
HETATM   12  C   UNL     1      -3.249   6.059 -30.522  1.00  0.00     0.067 A 
HETATM   13  C   UNL     1      -0.989   5.523 -30.785  1.00  0.00     0.281 A 
HETATM   14  N   UNL     1      -2.617   6.699 -29.576  1.00  0.00    -0.168 NA
HETATM   15  C   UNL     1      -4.723   6.165 -30.727  1.00  0.00     0.073 C 
HETATM   16  N   UNL     1      -1.265   6.381 -29.712  1.00  0.00    -0.197 N 
HETATM   17  O   UNL     1       0.045   5.030 -31.202  1.00  0.00    -0.265 OA
BRANCH  16  18
HETATM   18  C   UNL     1      -0.354   6.868 -28.741  1.00  0.00     0.062 A 
HETATM   19  C   UNL     1      -0.358   6.400 -27.421  1.00  0.00     0.032 A 
HETATM   20  C   UNL     1       0.515   6.931 -26.463  1.00  0.00     0.009 A 
HETATM   21  C   UNL     1       1.417   7.940 -26.803  1.00  0.00    -0.062 A 
HETATM   22  C   UNL     1       2.337   8.536 -25.779  1.00  0.00     0.048 C 
HETATM   23  C   UNL     1       1.441   8.404 -28.121  1.00  0.00     0.009 A 
HETATM   24  C   UNL     1       0.569   7.870 -29.077  1.00  0.00     0.032 A 
ENDBRANCH  16  18
ENDBRANCH   1  10
BRANCH   2  25
HETATM   25  O   UNL     1      -4.047   5.714 -34.286  1.00  0.00    -0.345 OA
HETATM   26  H   UNL     1      -4.670   5.979 -34.983  1.00  0.00     0.219 HD
ENDBRANCH   2  25
BRANCH   6  27
HETATM   27  C   UNL     1      -6.361   0.979 -32.196  1.00  0.00     0.255 C 
HETATM   28  N   UNL     1      -6.403  -0.145 -32.963  1.00  0.00    -0.366 N 
HETATM   29  H   UNL     1      -6.151  -0.111 -33.949  1.00  0.00     0.159 HD
HETATM   30  H   UNL     1      -6.996  -0.902 -32.651  1.00  0.00     0.159 HD
HETATM   31  O   UNL     1      -6.933   0.993 -31.112  1.00  0.00    -0.268 OA
ENDBRANCH   6  27
TORSDOF 4
ENDMDL
MODEL 4
REMARK VINA RESULT:      -8.6      1.341      2.443
REMARK  4 active torsions:
REMARK  status: ('A' for Active; 'I' for Inactive)
REMARK    1  A    between atoms: C_5  and  N_6 
REMARK    2  A    between atoms: C_11  and  C_12 
REMARK    3  A    between atoms: C_13  and  O_14 
REMARK    4  A    between atoms: C_18  and  C_19 
REMARK       I    between atoms: C_19  and  N_20 
ROOT
HETATM    1  C   UNL     1      -2.981   5.057 -31.749  1.00  0.00     0.023 A 
HETATM    2  C   UNL     1      -2.114   5.463 -32.706  1.00  0.00     0.153 A 
HETATM    3  N   UNL     1      -1.821   6.773 -32.884  1.00  0.00    -0.303 N 
HETATM    4  C   UNL     1      -2.306   7.789 -32.115  1.00  0.00     0.263 A 
HETATM    5  O   UNL     1      -1.992   8.955 -32.346  1.00  0.00    -0.267 OA
HETATM    6  C   UNL     1      -3.233   7.406 -30.999  1.00  0.00     0.106 A 
HETATM    7  C   UNL     1      -3.583   6.098 -30.874  1.00  0.00    -0.026 A 
HETATM    8  C   UNL     1      -4.596   5.593 -29.869  1.00  0.00     0.050 C 
HETATM    9  H   UNL     1      -1.176   7.021 -33.624  1.00  0.00     0.171 HD
ENDROOT
BRANCH   1  10
HETATM   10  C   UNL     1      -3.261   3.634 -31.607  1.00  0.00     0.035 C 
HETATM   11  C   UNL     1      -4.187   2.919 -32.259  1.00  0.00     0.061 A 
HETATM   12  C   UNL     1      -5.227   3.253 -33.243  1.00  0.00     0.067 A 
HETATM   13  C   UNL     1      -4.243   1.440 -32.142  1.00  0.00     0.281 A 
HETATM   14  N   UNL     1      -5.793   2.185 -33.737  1.00  0.00    -0.168 NA
HETATM   15  C   UNL     1      -5.605   4.635 -33.659  1.00  0.00     0.073 C 
HETATM   16  N   UNL     1      -5.208   1.090 -33.097  1.00  0.00    -0.197 N 
HETATM   17  O   UNL     1      -3.531   0.777 -31.409  1.00  0.00    -0.265 OA
BRANCH  16  18
HETATM   18  C   UNL     1      -5.571  -0.213 -33.519  1.00  0.00     0.062 A 
HETATM   19  C   UNL     1      -4.615  -1.209 -33.754  1.00  0.00     0.032 A 
HETATM   20  C   UNL     1      -4.990  -2.476 -34.221  1.00  0.00     0.009 A 
HETATM   21  C   UNL     1      -6.331  -2.778 -34.459  1.00  0.00    -0.062 A 
HETATM   22  C   UNL     1      -6.741  -4.121 -34.986  1.00  0.00     0.048 C 
HETATM   23  C   UNL     1      -7.295  -1.797 -34.213  1.00  0.00     0.009 A 
HETATM   24  C   UNL     1      -6.919  -0.533 -33.744  1.00  0.00     0.032 A 
ENDBRANCH  16  18
ENDBRANCH   1  10
BRANCH   2  25
HETATM   25  O   UNL     1      -1.437   4.658 -33.581  1.00  0.00    -0.345 OA
HETATM   26  H   UNL     1      -1.583   3.726 -33.344  1.00  0.00     0.219 HD
ENDBRANCH   2  25
BRANCH   6  27
HETATM   27  C   UNL     1      -3.714   8.453 -30.038  1.00  0.00     0.255 C 
HETATM   28  N   UNL     1      -4.674   9.305 -30.491  1.00  0.00    -0.366 N 
HETATM   29  H   UNL     1      -4.890   9.364 -31.484  1.00  0.00     0.159 HD
HETATM   30  H   UNL     1      -4.910  10.096 -29.906  1.00  0.00     0.159 HD
HETATM   31  O   UNL     1      -3.263   8.595 -28.907  1.00  0.00    -0.268 OA
ENDBRANCH   6  27
TORSDOF 4
ENDMDL
MODEL 5
REMARK VINA RESULT:      -8.4      1.697      2.365
REMARK  4 active torsions:
REMARK  status: ('A' for Active; 'I' for Inactive)
REMARK    1  A    between atoms: C_5  and  N_6 
REMARK    2  A    between atoms: C_11  and  C_12 
REMARK    3  A    between atoms: C_13  and  O_14 
REMARK    4  A    between atoms: C_18  and  C_19 
REMARK       I    between atoms: C_19  and  N_20 
ROOT
HETATM    1  C   UNL     1      -5.307   4.743 -31.164  1.00  0.00     0.023 A 
HETATM    2  C   UNL     1      -5.571   4.590 -29.846  1.00  0.00     0.153 A 
HETATM    3  N   UNL     1      -5.088   5.456 -28.924  1.00  0.00    -0.303 N 
HETATM    4  C   UNL     1      -4.353   6.568 -29.212  1.00  0.00     0.263 A 
HETATM    5  O   UNL     1      -3.949   7.303 -28.313  1.00  0.00    -0.267 OA
HETATM    6  C   UNL     1      -4.068   6.830 -30.661  1.00  0.00     0.106 A 
HETATM    7  C   UNL     1      -4.490   5.916 -31.576  1.00  0.00    -0.026 A 
HETATM    8  C   UNL     1      -4.170   5.997 -33.053  1.00  0.00     0.050 C 
HETATM    9  H   UNL     1      -5.305   5.286 -27.950  1.00  0.00     0.171 HD
ENDROOT
BRANCH   1  10
HETATM   10  C   UNL     1      -5.851   3.777 -32.111  1.00  0.00     0.035 C 
HETATM   11  C   UNL     1      -5.319   2.601 -32.467  1.00  0.00     0.061 A 
HETATM   12  C   UNL     1      -4.072   1.900 -32.126  1.00  0.00     0.067 A 
HETATM   13  C   UNL     1      -6.070   1.637 -33.310  1.00  0.00     0.281 A 
HETATM   14  N   UNL     1      -4.055   0.679 -32.588  1.00  0.00    -0.168 NA
HETATM   15  C   UNL     1      -2.948   2.482 -31.336  1.00  0.00     0.073 C 
HETATM   16  N   UNL     1      -5.249   0.502 -33.290  1.00  0.00    -0.197 N 
HETATM   17  O   UNL     1      -7.163   1.856 -33.801  1.00  0.00    -0.265 OA
BRANCH  16  18
HETATM   18  C   UNL     1      -5.539  -0.781 -33.819  1.00  0.00     0.062 A 
HETATM   19  C   UNL     1      -6.852  -1.244 -33.963  1.00  0.00     0.032 A 
HETATM   20  C   UNL     1      -7.117  -2.535 -34.439  1.00  0.00     0.009 A 
HETATM   21  C   UNL     1      -6.072  -3.393 -34.786  1.00  0.00    -0.062 A 
HETATM   22  C   UNL     1      -6.342  -4.787 -35.269  1.00  0.00     0.048 C 
HETATM   23  C   UNL     1      -4.757  -2.936 -34.662  1.00  0.00     0.009 A 
HETATM   24  C   UNL     1      -4.496  -1.645 -34.189  1.00  0.00     0.032 A 
ENDBRANCH  16  18
ENDBRANCH   1  10
BRANCH   2  25
HETATM   25  O   UNL     1      -6.327   3.600 -29.280  1.00  0.00    -0.345 OA
HETATM   26  H   UNL     1      -6.022   3.438 -28.372  1.00  0.00     0.219 HD
ENDBRANCH   2  25
BRANCH   6  27
HETATM   27  C   UNL     1      -3.368   8.094 -31.066  1.00  0.00     0.255 C 
HETATM   28  N   UNL     1      -2.023   8.142 -30.861  1.00  0.00    -0.366 N 
HETATM   29  H   UNL     1      -1.562   7.452 -30.271  1.00  0.00     0.159 HD
HETATM   30  H   UNL     1      -1.561   9.030 -31.001  1.00  0.00     0.159 HD
HETATM   31  O   UNL     1      -3.946   9.073 -31.524  1.00  0.00    -0.268 OA
ENDBRANCH   6  27
TORSDOF 4
ENDMDL
MODEL 6
REMARK VINA RESULT:      -8.4      4.954      6.869
REMARK  4 active torsions:
REMARK  status: ('A' for Active; 'I' for Inactive)
REMARK    1  A    between atoms: C_5  and  N_6 
REMARK    2  A    between atoms: C_11  and  C_12 
REMARK    3  A    between atoms: C_13  and  O_14 
REMARK    4  A    between atoms: C_18  and  C_19 
REMARK       I    between atoms: C_19  and  N_20 
ROOT
HETATM    1  C   UNL     1      -9.915   3.383 -34.031  1.00  0.00     0.023 A 
HETATM    2  C   UNL     1      -9.671   4.711 -33.942  1.00  0.00     0.153 A 
HETATM    3  N   UNL     1     -10.590   5.566 -33.434  1.00  0.00    -0.303 N 
HETATM    4  C   UNL     1     -11.799   5.194 -32.925  1.00  0.00     0.263 A 
HETATM    5  O   UNL     1     -12.580   6.035 -32.485  1.00  0.00    -0.267 OA
HETATM    6  C   UNL     1     -12.115   3.727 -32.943  1.00  0.00     0.106 A 
HETATM    7  C   UNL     1     -11.221   2.883 -33.524  1.00  0.00    -0.026 A 
HETATM    8  C   UNL     1     -11.465   1.401 -33.712  1.00  0.00     0.050 C 
HETATM    9  H   UNL     1     -10.360   6.551 -33.403  1.00  0.00     0.171 HD
ENDROOT
BRANCH   1  10
HETATM   10  C   UNL     1      -8.889   2.512 -34.591  1.00  0.00     0.035 C 
HETATM   11  C   UNL     1      -8.058   1.702 -33.923  1.00  0.00     0.061 A 
HETATM   12  C   UNL     1      -7.826   1.430 -32.496  1.00  0.00     0.067 A 
HETATM   13  C   UNL     1      -7.181   0.738 -34.634  1.00  0.00     0.281 A 
HETATM   14  N   UNL     1      -7.017   0.421 -32.316  1.00  0.00    -0.168 NA
HETATM   15  C   UNL     1      -8.437   2.189 -31.367  1.00  0.00     0.073 C 
HETATM   16  N   UNL     1      -6.631  -0.012 -33.586  1.00  0.00    -0.197 N 
HETATM   17  O   UNL     1      -7.085   0.656 -35.846  1.00  0.00    -0.265 OA
BRANCH  16  18
HETATM   18  C   UNL     1      -5.822  -1.172 -33.688  1.00  0.00     0.062 A 
HETATM   19  C   UNL     1      -6.185  -2.260 -34.491  1.00  0.00     0.032 A 
HETATM   20  C   UNL     1      -5.398  -3.419 -34.538  1.00  0.00     0.009 A 
HETATM   21  C   UNL     1      -4.226  -3.514 -33.786  1.00  0.00    -0.062 A 
HETATM   22  C   UNL     1      -3.391  -4.759 -33.806  1.00  0.00     0.048 C 
HETATM   23  C   UNL     1      -3.845  -2.427 -32.994  1.00  0.00     0.009 A 
HETATM   24  C   UNL     1      -4.632  -1.270 -32.951  1.00  0.00     0.032 A 
ENDBRANCH  16  18
ENDBRANCH   1  10
BRANCH   2  25
HETATM   25  O   UNL     1      -8.523   5.352 -34.322  1.00  0.00    -0.345 OA
HETATM   26  H   UNL     1      -7.946   5.471 -33.548  1.00  0.00     0.219 HD
ENDBRANCH   2  25
BRANCH   6  27
HETATM   27  C   UNL     1     -13.373   3.227 -32.295  1.00  0.00     0.255 C 
HETATM   28  N   UNL     1     -13.456   3.354 -30.942  1.00  0.00    -0.366 N 
HETATM   29  H   UNL     1     -12.630   3.572 -30.388  1.00  0.00     0.159 HD
HETATM   30  H   UNL     1     -14.233   2.903 -30.478  1.00  0.00     0.159 HD
HETATM   31  O   UNL     1     -14.286   2.688 -32.910  1.00  0.00    -0.268 OA
ENDBRANCH   6  27
TORSDOF 4
ENDMDL
MODEL 7
REMARK VINA RESULT:      -8.2      4.410      9.647
REMARK  4 active torsions:
REMARK  status: ('A' for Active; 'I' for Inactive)
REMARK    1  A    between atoms: C_5  and  N_6 
REMARK    2  A    between atoms: C_11  and  C_12 
REMARK    3  A    between atoms: C_13  and  O_14 
REMARK    4  A    between atoms: C_18  and  C_19 
REMARK       I    between atoms: C_19  and  N_20 
ROOT
HETATM    1  C   UNL     1      -3.178   6.942 -32.397  1.00  0.00     0.023 A 
HETATM    2  C   UNL     1      -2.369   7.049 -33.477  1.00  0.00     0.153 A 
HETATM    3  N   UNL     1      -2.613   6.356 -34.614  1.00  0.00    -0.303 N 
HETATM    4  C   UNL     1      -3.690   5.543 -34.813  1.00  0.00     0.263 A 
HETATM    5  O   UNL     1      -3.836   4.946 -35.877  1.00  0.00    -0.267 OA
HETATM    6  C   UNL     1      -4.660   5.420 -33.675  1.00  0.00     0.106 A 
HETATM    7  C   UNL     1      -4.369   6.057 -32.509  1.00  0.00    -0.026 A 
HETATM    8  C   UNL     1      -5.199   5.924 -31.250  1.00  0.00     0.050 C 
HETATM    9  H   UNL     1      -1.967   6.463 -35.386  1.00  0.00     0.171 HD
ENDROOT
BRANCH   1  10
HETATM   10  C   UNL     1      -2.864   7.709 -31.198  1.00  0.00     0.035 C 
HETATM   11  C   UNL     1      -1.962   7.408 -30.255  1.00  0.00     0.061 A 
HETATM   12  C   UNL     1      -1.054   6.272 -30.037  1.00  0.00     0.067 A 
HETATM   13  C   UNL     1      -1.621   8.371 -29.178  1.00  0.00     0.281 A 
HETATM   14  N   UNL     1      -0.221   6.493 -29.056  1.00  0.00    -0.168 NA
HETATM   15  C   UNL     1      -1.050   5.010 -30.833  1.00  0.00     0.073 C 
HETATM   16  N   UNL     1      -0.540   7.750 -28.538  1.00  0.00    -0.197 N 
HETATM   17  O   UNL     1      -2.168   9.447 -29.015  1.00  0.00    -0.265 OA
BRANCH  16  18
HETATM   18  C   UNL     1       0.281   8.288 -27.515  1.00  0.00     0.062 A 
HETATM   19  C   UNL     1       0.240   9.645 -27.170  1.00  0.00     0.032 A 
HETATM   20  C   UNL     1       1.097  10.168 -26.192  1.00  0.00     0.009 A 
HETATM   21  C   UNL     1       2.012   9.345 -25.533  1.00  0.00    -0.062 A 
HETATM   22  C   UNL     1       2.953   9.899 -24.505  1.00  0.00     0.048 C 
HETATM   23  C   UNL     1       2.050   7.986 -25.859  1.00  0.00     0.009 A 
HETATM   24  C   UNL     1       1.192   7.466 -26.834  1.00  0.00     0.032 A 
ENDBRANCH  16  18
ENDBRANCH   1  10
BRANCH   2  25
HETATM   25  O   UNL     1      -1.252   7.832 -33.578  1.00  0.00    -0.345 OA
HETATM   26  H   UNL     1      -1.500   8.766 -33.469  1.00  0.00     0.219 HD
ENDBRANCH   2  25
BRANCH   6  27
HETATM   27  C   UNL     1      -5.928   4.640 -33.859  1.00  0.00     0.255 C 
HETATM   28  N   UNL     1      -5.830   3.284 -33.784  1.00  0.00    -0.366 N 
HETATM   29  H   UNL     1      -4.921   2.826 -33.820  1.00  0.00     0.159 HD
HETATM   30  H   UNL     1      -6.644   2.742 -34.039  1.00  0.00     0.159 HD
HETATM   31  O   UNL     1      -7.013   5.155 -34.107  1.00  0.00    -0.268 OA
ENDBRANCH   6  27
TORSDOF 4
ENDMDL
MODEL 8
REMARK VINA RESULT:      -8.2      5.287      6.483
REMARK  4 active torsions:
REMARK  status: ('A' for Active; 'I' for Inactive)
REMARK    1  A    between atoms: C_5  and  N_6 
REMARK    2  A    between atoms: C_11  and  C_12 
REMARK    3  A    between atoms: C_13  and  O_14 
REMARK    4  A    between atoms: C_18  and  C_19 
REMARK       I    between atoms: C_19  and  N_20 
ROOT
HETATM    1  C   UNL     1     -10.450   2.749 -33.683  1.00  0.00     0.023 A 
HETATM    2  C   UNL     1     -11.563   2.162 -33.184  1.00  0.00     0.153 A 
HETATM    3  N   UNL     1     -12.525   2.885 -32.563  1.00  0.00    -0.303 N 
HETATM    4  C   UNL     1     -12.508   4.241 -32.421  1.00  0.00     0.263 A 
HETATM    5  O   UNL     1     -13.422   4.822 -31.839  1.00  0.00    -0.267 OA
HETATM    6  C   UNL     1     -11.327   4.964 -32.999  1.00  0.00     0.106 A 
HETATM    7  C   UNL     1     -10.329   4.226 -33.554  1.00  0.00    -0.026 A 
HETATM    8  C   UNL     1      -9.034   4.817 -34.068  1.00  0.00     0.050 C 
HETATM    9  H   UNL     1     -13.329   2.392 -32.197  1.00  0.00     0.171 HD
ENDROOT
BRANCH   1  10
HETATM   10  C   UNL     1      -9.446   1.920 -34.338  1.00  0.00     0.035 C 
HETATM   11  C   UNL     1      -8.462   1.223 -33.755  1.00  0.00     0.061 A 
HETATM   12  C   UNL     1      -8.004   1.070 -32.367  1.00  0.00     0.067 A 
HETATM   13  C   UNL     1      -7.619   0.280 -34.533  1.00  0.00     0.281 A 
HETATM   14  N   UNL     1      -7.096   0.140 -32.251  1.00  0.00    -0.168 NA
HETATM   15  C   UNL     1      -8.508   1.859 -31.204  1.00  0.00     0.073 C 
HETATM   16  N   UNL     1      -6.862  -0.352 -33.537  1.00  0.00    -0.197 N 
HETATM   17  O   UNL     1      -7.693   0.121 -35.738  1.00  0.00    -0.265 OA
BRANCH  16  18
HETATM   18  C   UNL     1      -5.981  -1.452 -33.691  1.00  0.00     0.062 A 
HETATM   19  C   UNL     1      -6.297  -2.544 -34.508  1.00  0.00     0.032 A 
HETATM   20  C   UNL     1      -5.436  -3.646 -34.607  1.00  0.00     0.009 A 
HETATM   21  C   UNL     1      -4.237  -3.679 -33.893  1.00  0.00    -0.062 A 
HETATM   22  C   UNL     1      -3.323  -4.865 -33.968  1.00  0.00     0.048 C 
HETATM   23  C   UNL     1      -3.905  -2.587 -33.086  1.00  0.00     0.009 A 
HETATM   24  C   UNL     1      -4.765  -1.486 -32.992  1.00  0.00     0.032 A 
ENDBRANCH  16  18
ENDBRANCH   1  10
BRANCH   2  25
HETATM   25  O   UNL     1     -11.869   0.830 -33.236  1.00  0.00    -0.345 OA
HETATM   26  H   UNL     1     -12.264   0.555 -32.392  1.00  0.00     0.219 HD
ENDBRANCH   2  25
BRANCH   6  27
HETATM   27  C   UNL     1     -11.294   6.464 -32.988  1.00  0.00     0.255 C 
HETATM   28  N   UNL     1     -11.036   7.062 -31.793  1.00  0.00    -0.366 N 
HETATM   29  H   UNL     1     -11.081   6.531 -30.925  1.00  0.00     0.159 HD
HETATM   30  H   UNL     1     -11.143   8.066 -31.739  1.00  0.00     0.159 HD
HETATM   31  O   UNL     1     -11.522   7.156 -33.974  1.00  0.00    -0.268 OA
ENDBRANCH   6  27
TORSDOF 4
ENDMDL
MODEL 9
REMARK VINA RESULT:      -8.1      3.803      4.928
REMARK  4 active torsions:
REMARK  status: ('A' for Active; 'I' for Inactive)
REMARK    1  A    between atoms: C_5  and  N_6 
REMARK    2  A    between atoms: C_11  and  C_12 
REMARK    3  A    between atoms: C_13  and  O_14 
REMARK    4  A    between atoms: C_18  and  C_19 
REMARK       I    between atoms: C_19  and  N_20 
ROOT
HETATM    1  C   UNL     1      -4.805   2.826 -32.750  1.00  0.00     0.023 A 
HETATM    2  C   UNL     1      -4.055   2.317 -31.745  1.00  0.00     0.153 A 
HETATM    3  N   UNL     1      -3.003   2.999 -31.233  1.00  0.00    -0.303 N 
HETATM    4  C   UNL     1      -2.625   4.250 -31.622  1.00  0.00     0.263 A 
HETATM    5  O   UNL     1      -1.652   4.799 -31.108  1.00  0.00    -0.267 OA
HETATM    6  C   UNL     1      -3.446   4.898 -32.697  1.00  0.00     0.106 A 
HETATM    7  C   UNL     1      -4.453   4.178 -33.260  1.00  0.00    -0.026 A 
HETATM    8  C   UNL     1      -5.283   4.666 -34.429  1.00  0.00     0.050 C 
HETATM    9  H   UNL     1      -2.468   2.564 -30.492  1.00  0.00     0.171 HD
ENDROOT
BRANCH   1  10
HETATM   10  C   UNL     1      -5.923   2.045 -33.263  1.00  0.00     0.035 C 
HETATM   11  C   UNL     1      -7.200   2.095 -32.864  1.00  0.00     0.061 A 
HETATM   12  C   UNL     1      -7.913   2.841 -31.817  1.00  0.00     0.067 A 
HETATM   13  C   UNL     1      -8.268   1.369 -33.597  1.00  0.00     0.281 A 
HETATM   14  N   UNL     1      -9.207   2.696 -31.907  1.00  0.00    -0.168 NA
HETATM   15  C   UNL     1      -7.265   3.684 -30.770  1.00  0.00     0.073 C 
HETATM   16  N   UNL     1      -9.437   1.826 -32.975  1.00  0.00    -0.197 N 
HETATM   17  O   UNL     1      -8.073   0.626 -34.544  1.00  0.00    -0.265 OA
BRANCH  16  18
HETATM   18  C   UNL     1     -10.777   1.569 -33.362  1.00  0.00     0.062 A 
HETATM   19  C   UNL     1     -11.633   2.591 -33.790  1.00  0.00     0.032 A 
HETATM   20  C   UNL     1     -12.969   2.325 -34.118  1.00  0.00     0.009 A 
HETATM   21  C   UNL     1     -13.479   1.028 -34.031  1.00  0.00    -0.062 A 
HETATM   22  C   UNL     1     -14.914   0.737 -34.352  1.00  0.00     0.048 C 
HETATM   23  C   UNL     1     -12.629  -0.002 -33.620  1.00  0.00     0.009 A 
HETATM   24  C   UNL     1     -11.294   0.266 -33.295  1.00  0.00     0.032 A 
ENDBRANCH  16  18
ENDBRANCH   1  10
BRANCH   2  25
HETATM   25  O   UNL     1      -4.241   1.111 -31.125  1.00  0.00    -0.345 OA
HETATM   26  H   UNL     1      -4.365   0.418 -31.794  1.00  0.00     0.219 HD
ENDBRANCH   2  25
BRANCH   6  27
HETATM   27  C   UNL     1      -3.166   6.317 -33.095  1.00  0.00     0.255 C 
HETATM   28  N   UNL     1      -3.462   7.279 -32.179  1.00  0.00    -0.366 N 
HETATM   29  H   UNL     1      -4.038   7.065 -31.367  1.00  0.00     0.159 HD
HETATM   30  H   UNL     1      -3.407   8.243 -32.479  1.00  0.00     0.159 HD
HETATM   31  O   UNL     1      -2.731   6.642 -34.194  1.00  0.00    -0.268 OA
ENDBRANCH   6  27
TORSDOF 4
ENDMDL
MODEL 10
REMARK VINA RESULT:      -8.1      3.242      8.577
REMARK  4 active torsions:
REMARK  status: ('A' for Active; 'I' for Inactive)
REMARK    1  A    between atoms: C_5  and  N_6 
REMARK    2  A    between atoms: C_11  and  C_12 
REMARK    3  A    between atoms: C_13  and  O_14 
REMARK    4  A    between atoms: C_18  and  C_19 
REMARK       I    between atoms: C_19  and  N_20 
ROOT
HETATM    1  C   UNL     1      -4.085  -0.226 -32.517  1.00  0.00     0.023 A 
HETATM    2  C   UNL     1      -3.117  -0.754 -31.733  1.00  0.00     0.153 A 
HETATM    3  N   UNL     1      -2.823  -2.076 -31.768  1.00  0.00    -0.303 N 
HETATM    4  C   UNL     1      -3.409  -2.981 -32.602  1.00  0.00     0.263 A 
HETATM    5  O   UNL     1      -3.086  -4.166 -32.567  1.00  0.00    -0.267 OA
HETATM    6  C   UNL     1      -4.456  -2.454 -33.539  1.00  0.00     0.106 A 
HETATM    7  C   UNL     1      -4.801  -1.142 -33.446  1.00  0.00    -0.026 A 
HETATM    8  C   UNL     1      -5.918  -0.508 -34.248  1.00  0.00     0.050 C 
HETATM    9  H   UNL     1      -2.099  -2.419 -31.149  1.00  0.00     0.171 HD
ENDROOT
BRANCH   1  10
HETATM   10  C   UNL     1      -4.361   1.203 -32.435  1.00  0.00     0.035 C 
HETATM   11  C   UNL     1      -5.235   1.816 -31.626  1.00  0.00     0.061 A 
HETATM   12  C   UNL     1      -6.211   1.343 -30.634  1.00  0.00     0.067 A 
HETATM   13  C   UNL     1      -5.285   3.296 -31.525  1.00  0.00     0.281 A 
HETATM   14  N   UNL     1      -6.734   2.329 -29.954  1.00  0.00    -0.168 NA
HETATM   15  C   UNL     1      -6.574  -0.084 -30.397  1.00  0.00     0.073 C 
HETATM   16  N   UNL     1      -6.181   3.504 -30.467  1.00  0.00    -0.197 N 
HETATM   17  O   UNL     1      -4.616   4.058 -32.201  1.00  0.00    -0.265 OA
BRANCH  16  18
HETATM   18  C   UNL     1      -6.504   4.733 -29.839  1.00  0.00     0.062 A 
HETATM   19  C   UNL     1      -5.555   5.466 -29.115  1.00  0.00     0.032 A 
HETATM   20  C   UNL     1      -5.906   6.652 -28.457  1.00  0.00     0.009 A 
HETATM   21  C   UNL     1      -7.214   7.137 -28.513  1.00  0.00    -0.062 A 
HETATM   22  C   UNL     1      -7.608   8.390 -27.789  1.00  0.00     0.048 C 
HETATM   23  C   UNL     1      -8.165   6.422 -29.246  1.00  0.00     0.009 A 
HETATM   24  C   UNL     1      -7.811   5.238 -29.904  1.00  0.00     0.032 A 
ENDBRANCH  16  18
ENDBRANCH   1  10
BRANCH   2  25
HETATM   25  O   UNL     1      -2.331  -0.072 -30.845  1.00  0.00    -0.345 OA
HETATM   26  H   UNL     1      -1.920   0.687 -31.292  1.00  0.00     0.219 HD
ENDBRANCH   2  25
BRANCH   6  27
HETATM   27  C   UNL     1      -5.061  -3.363 -34.567  1.00  0.00     0.255 C 
HETATM   28  N   UNL     1      -5.337  -4.636 -34.172  1.00  0.00    -0.366 N 
HETATM   29  H   UNL     1      -4.956  -5.005 -33.303  1.00  0.00     0.159 HD
HETATM   30  H   UNL     1      -5.617  -5.296 -34.885  1.00  0.00     0.159 HD
HETATM   31  O   UNL     1      -5.274  -3.030 -35.728  1.00  0.00    -0.268 OA
ENDBRANCH   6  27
TORSDOF 4
ENDMDL
