MODEL 1
REMARK VINA RESULT:      -9.1      0.000      0.000
REMARK  5 active torsions:
REMARK  status: ('A' for Active; 'I' for Inactive)
REMARK    1  A    between atoms: O_2  and  C_3 
REMARK    2  A    between atoms: C_4  and  O_5 
REMARK    3  A    between atoms: C_10  and  C_11 
REMARK    4  A    between atoms: C_13  and  O_14 
REMARK    5  A    between atoms: O_14  and  C_15 
ROOT
HETATM    1  C   UNL     1      -9.560   4.278 -34.171  1.00  0.00     0.102 A 
HETATM    2  C   UNL     1     -10.919   4.620 -34.058  1.00  0.00     0.103 A 
HETATM    3  C   UNL     1     -11.877   3.617 -33.878  1.00  0.00     0.069 A 
HETATM    4  C   UNL     1     -11.477   2.286 -33.735  1.00  0.00     0.044 A 
HETATM    5  C   UNL     1     -10.125   1.933 -33.775  1.00  0.00    -0.020 A 
HETATM    6  C   UNL     1      -9.740   0.463 -33.666  1.00  0.00     0.063 C 
HETATM    7  C   UNL     1     -10.787  -0.341 -32.892  1.00  0.00     0.117 C 
HETATM    8  C   UNL     1     -12.192  -0.016 -33.330  1.00  0.00     0.223 C 
HETATM    9  O   UNL     1     -13.092  -0.852 -33.330  1.00  0.00    -0.273 OA
HETATM   10  N   UNL     1     -12.454   1.297 -33.602  1.00  0.00    -0.327 N 
HETATM   11  C   UNL     1      -9.176   2.939 -34.034  1.00  0.00     0.049 A 
HETATM   12  H   UNL     1     -13.430   1.524 -33.747  1.00  0.00     0.169 HD
ENDROOT
BRANCH   6  13
HETATM   13  C   UNL     1      -8.366   0.220 -33.048  1.00  0.00    -0.046 A 
HETATM   14  C   UNL     1      -7.300  -0.276 -33.822  1.00  0.00     0.045 A 
HETATM   15  C   UNL     1      -6.075  -0.583 -33.224  1.00  0.00     0.076 A 
HETATM   16  C   UNL     1      -5.869  -0.316 -31.873  1.00  0.00     0.037 A 
HETATM   17  C   UNL     1      -6.906   0.209 -31.103  1.00  0.00     0.003 A 
HETATM   18  C   UNL     1      -8.150   0.465 -31.683  1.00  0.00     0.008 A 
BRANCH  15  19
HETATM   19  O   UNL     1      -5.018  -1.101 -33.934  1.00  0.00    -0.311 OA
BRANCH  19  20
HETATM   20  C   UNL     1      -4.950  -2.467 -34.112  1.00  0.00     0.076 A 
HETATM   21  C   UNL     1      -5.885  -3.216 -34.833  1.00  0.00     0.037 A 
HETATM   22  C   UNL     1      -5.737  -4.600 -34.946  1.00  0.00     0.003 A 
HETATM   23  C   UNL     1      -4.672  -5.242 -34.313  1.00  0.00     0.000 A 
HETATM   24  C   UNL     1      -3.758  -4.501 -33.564  1.00  0.00     0.003 A 
HETATM   25  C   UNL     1      -3.898  -3.116 -33.464  1.00  0.00     0.037 A 
ENDBRANCH  19  20
ENDBRANCH  15  19
ENDBRANCH   6  13
BRANCH   1  26
HETATM   26  O   UNL     1      -8.687   5.315 -34.383  1.00  0.00    -0.353 OA
HETATM   27  C   UNL     1      -7.742   5.591 -33.359  1.00  0.00     0.210 C 
ENDBRANCH   1  26
BRANCH   2  28
HETATM   28  O   UNL     1     -11.237   5.949 -34.200  1.00  0.00    -0.353 OA
HETATM   29  C   UNL     1     -11.969   6.289 -35.370  1.00  0.00     0.210 C 
ENDBRANCH   2  28
TORSDOF 5
ENDMDL
MODEL 2
REMARK VINA RESULT:      -8.6      2.309      4.250
REMARK  5 active torsions:
REMARK  status: ('A' for Active; 'I' for Inactive)
REMARK    1  A    between atoms: O_2  and  C_3 
REMARK    2  A    between atoms: C_4  and  O_5 
REMARK    3  A    between atoms: C_10  and  C_11 
REMARK    4  A    between atoms: C_13  and  O_14 
REMARK    5  A    between atoms: O_14  and  C_15 
ROOT
HETATM    1  C   UNL     1      -9.552   2.233 -33.201  1.00  0.00     0.102 A 
HETATM    2  C   UNL     1      -9.874   3.312 -34.041  1.00  0.00     0.103 A 
HETATM    3  C   UNL     1      -8.951   4.344 -34.235  1.00  0.00     0.069 A 
HETATM    4  C   UNL     1      -7.682   4.264 -33.656  1.00  0.00     0.044 A 
HETATM    5  C   UNL     1      -7.317   3.166 -32.873  1.00  0.00    -0.020 A 
HETATM    6  C   UNL     1      -5.941   3.147 -32.218  1.00  0.00     0.063 C 
HETATM    7  C   UNL     1      -4.928   3.980 -33.007  1.00  0.00     0.117 C 
HETATM    8  C   UNL     1      -5.488   5.316 -33.419  1.00  0.00     0.223 C 
HETATM    9  O   UNL     1      -4.792   6.325 -33.507  1.00  0.00    -0.273 OA
HETATM   10  N   UNL     1      -6.793   5.328 -33.826  1.00  0.00    -0.327 N 
HETATM   11  C   UNL     1      -8.281   2.172 -32.621  1.00  0.00     0.049 A 
HETATM   12  H   UNL     1      -7.111   6.195 -34.241  1.00  0.00     0.169 HD
ENDROOT
BRANCH   6  13
HETATM   13  C   UNL     1      -5.373   1.748 -31.995  1.00  0.00    -0.046 A 
HETATM   14  C   UNL     1      -4.909   0.973 -33.074  1.00  0.00     0.045 A 
HETATM   15  C   UNL     1      -4.479  -0.340 -32.868  1.00  0.00     0.076 A 
HETATM   16  C   UNL     1      -4.420  -0.864 -31.579  1.00  0.00     0.037 A 
HETATM   17  C   UNL     1      -4.844  -0.093 -30.497  1.00  0.00     0.003 A 
HETATM   18  C   UNL     1      -5.328   1.201 -30.704  1.00  0.00     0.008 A 
BRANCH  15  19
HETATM   19  O   UNL     1      -4.049  -1.145 -33.897  1.00  0.00    -0.311 OA
BRANCH  19  20
HETATM   20  C   UNL     1      -4.743  -2.308 -34.156  1.00  0.00     0.076 A 
HETATM   21  C   UNL     1      -4.173  -3.585 -34.153  1.00  0.00     0.037 A 
HETATM   22  C   UNL     1      -4.957  -4.703 -34.441  1.00  0.00     0.003 A 
HETATM   23  C   UNL     1      -6.305  -4.546 -34.766  1.00  0.00     0.000 A 
HETATM   24  C   UNL     1      -6.867  -3.270 -34.805  1.00  0.00     0.003 A 
HETATM   25  C   UNL     1      -6.086  -2.154 -34.501  1.00  0.00     0.037 A 
ENDBRANCH  19  20
ENDBRANCH  15  19
ENDBRANCH   6  13
BRANCH   1  26
HETATM   26  O   UNL     1     -10.527   1.281 -33.033  1.00  0.00    -0.353 OA
HETATM   27  C   UNL     1     -10.098  -0.051 -32.786  1.00  0.00     0.210 C 
ENDBRANCH   1  26
BRANCH   2  28
HETATM   28  O   UNL     1     -11.137   3.319 -34.584  1.00  0.00    -0.353 OA
HETATM   29  C   UNL     1     -11.475   4.467 -35.351  1.00  0.00     0.210 C 
ENDBRANCH   2  28
TORSDOF 5
ENDMDL
MODEL 3
REMARK VINA RESULT:      -8.5      3.801      7.439
REMARK  5 active torsions:
REMARK  status: ('A' for Active; 'I' for Inactive)
REMARK    1  A    between atoms: O_2  and  C_3 
REMARK    2  A    between atoms: C_4  and  O_5 
REMARK    3  A    between atoms: C_10  and  C_11 
REMARK    4  A    between atoms: C_13  and  O_14 
REMARK    5  A    between atoms: O_14  and  C_15 
ROOT
HETATM    1  C   UNL     1      -5.189  -1.556 -33.523  1.00  0.00     0.102 A 
HETATM    2  C   UNL     1      -5.916  -2.010 -34.636  1.00  0.00     0.103 A 
HETATM    3  C   UNL     1      -7.066  -1.327 -35.044  1.00  0.00     0.069 A 
HETATM    4  C   UNL     1      -7.447  -0.151 -34.393  1.00  0.00     0.044 A 
HETATM    5  C   UNL     1      -6.699   0.356 -33.327  1.00  0.00    -0.020 A 
HETATM    6  C   UNL     1      -7.182   1.613 -32.614  1.00  0.00     0.063 C 
HETATM    7  C   UNL     1      -8.022   2.499 -33.536  1.00  0.00     0.117 C 
HETATM    8  C   UNL     1      -9.035   1.706 -34.319  1.00  0.00     0.223 C 
HETATM    9  O   UNL     1     -10.132   2.163 -34.631  1.00  0.00    -0.273 OA
HETATM   10  N   UNL     1      -8.623   0.490 -34.788  1.00  0.00    -0.327 N 
HETATM   11  C   UNL     1      -5.589  -0.382 -32.876  1.00  0.00     0.049 A 
HETATM   12  H   UNL     1      -9.256   0.037 -35.436  1.00  0.00     0.169 HD
ENDROOT
BRANCH   6  13
HETATM   13  C   UNL     1      -6.066   2.451 -31.996  1.00  0.00    -0.046 A 
HETATM   14  C   UNL     1      -4.818   2.581 -32.633  1.00  0.00     0.045 A 
HETATM   15  C   UNL     1      -3.775   3.272 -32.012  1.00  0.00     0.076 A 
HETATM   16  C   UNL     1      -3.989   3.917 -30.796  1.00  0.00     0.037 A 
HETATM   17  C   UNL     1      -5.231   3.825 -30.171  1.00  0.00     0.003 A 
HETATM   18  C   UNL     1      -6.261   3.088 -30.761  1.00  0.00     0.008 A 
BRANCH  15  19
HETATM   19  O   UNL     1      -2.530   3.396 -32.582  1.00  0.00    -0.311 OA
BRANCH  19  20
HETATM   20  C   UNL     1      -2.028   4.662 -32.799  1.00  0.00     0.076 A 
HETATM   21  C   UNL     1      -1.044   5.266 -32.011  1.00  0.00     0.037 A 
HETATM   22  C   UNL     1      -0.609   6.560 -32.304  1.00  0.00     0.003 A 
HETATM   23  C   UNL     1      -1.179   7.265 -33.364  1.00  0.00     0.000 A 
HETATM   24  C   UNL     1      -2.185   6.677 -34.130  1.00  0.00     0.003 A 
HETATM   25  C   UNL     1      -2.609   5.378 -33.846  1.00  0.00     0.037 A 
ENDBRANCH  19  20
ENDBRANCH  15  19
ENDBRANCH   6  13
BRANCH   1  26
HETATM   26  O   UNL     1      -4.096  -2.304 -33.164  1.00  0.00    -0.353 OA
HETATM   27  C   UNL     1      -3.366  -1.882 -32.020  1.00  0.00     0.210 C 
ENDBRANCH   1  26
BRANCH   2  28
HETATM   28  O   UNL     1      -5.477  -3.168 -35.233  1.00  0.00    -0.353 OA
HETATM   29  C   UNL     1      -6.320  -4.303 -35.079  1.00  0.00     0.210 C 
ENDBRANCH   2  28
TORSDOF 5
ENDMDL
MODEL 4
REMARK VINA RESULT:      -8.2      5.283      8.497
REMARK  5 active torsions:
REMARK  status: ('A' for Active; 'I' for Inactive)
REMARK    1  A    between atoms: O_2  and  C_3 
REMARK    2  A    between atoms: C_4  and  O_5 
REMARK    3  A    between atoms: C_10  and  C_11 
REMARK    4  A    between atoms: C_13  and  O_14 
REMARK    5  A    between atoms: O_14  and  C_15 
ROOT
HETATM    1  C   UNL     1      -4.708   0.339 -32.786  1.00  0.00     0.102 A 
HETATM    2  C   UNL     1      -5.976  -0.089 -33.215  1.00  0.00     0.103 A 
HETATM    3  C   UNL     1      -6.972   0.852 -33.492  1.00  0.00     0.069 A 
HETATM    4  C   UNL     1      -6.684   2.217 -33.418  1.00  0.00     0.044 A 
HETATM    5  C   UNL     1      -5.409   2.664 -33.060  1.00  0.00    -0.020 A 
HETATM    6  C   UNL     1      -5.155   4.162 -32.941  1.00  0.00     0.063 C 
HETATM    7  C   UNL     1      -6.099   4.969 -33.836  1.00  0.00     0.117 C 
HETATM    8  C   UNL     1      -7.524   4.491 -33.736  1.00  0.00     0.223 C 
HETATM    9  O   UNL     1      -8.483   5.250 -33.843  1.00  0.00    -0.273 OA
HETATM   10  N   UNL     1      -7.706   3.138 -33.655  1.00  0.00    -0.327 N 
HETATM   11  C   UNL     1      -4.437   1.709 -32.707  1.00  0.00     0.049 A 
HETATM   12  H   UNL     1      -8.665   2.823 -33.741  1.00  0.00     0.169 HD
ENDROOT
BRANCH   6  13
HETATM   13  C   UNL     1      -3.715   4.578 -33.229  1.00  0.00    -0.046 A 
HETATM   14  C   UNL     1      -2.701   4.393 -32.272  1.00  0.00     0.045 A 
HETATM   15  C   UNL     1      -1.407   4.863 -32.511  1.00  0.00     0.076 A 
HETATM   16  C   UNL     1      -1.088   5.439 -33.738  1.00  0.00     0.037 A 
HETATM   17  C   UNL     1      -2.076   5.597 -34.709  1.00  0.00     0.003 A 
HETATM   18  C   UNL     1      -3.384   5.179 -34.454  1.00  0.00     0.008 A 
BRANCH  15  19
HETATM   19  O   UNL     1      -0.394   4.735 -31.591  1.00  0.00    -0.311 OA
BRANCH  19  20
HETATM   20  C   UNL     1      -0.298   5.669 -30.582  1.00  0.00     0.076 A 
HETATM   21  C   UNL     1      -0.827   6.962 -30.650  1.00  0.00     0.037 A 
HETATM   22  C   UNL     1      -0.666   7.842 -29.578  1.00  0.00     0.003 A 
HETATM   23  C   UNL     1       0.050   7.444 -28.449  1.00  0.00     0.000 A 
HETATM   24  C   UNL     1       0.608   6.167 -28.393  1.00  0.00     0.003 A 
HETATM   25  C   UNL     1       0.435   5.282 -29.459  1.00  0.00     0.037 A 
ENDBRANCH  19  20
ENDBRANCH  15  19
ENDBRANCH   6  13
BRANCH   1  26
HETATM   26  O   UNL     1      -3.799  -0.648 -32.497  1.00  0.00    -0.353 OA
HETATM   27  C   UNL     1      -2.944  -0.438 -31.381  1.00  0.00     0.210 C 
ENDBRANCH   1  26
BRANCH   2  28
HETATM   28  O   UNL     1      -6.185  -1.446 -33.274  1.00  0.00    -0.353 OA
HETATM   29  C   UNL     1      -6.927  -1.911 -34.393  1.00  0.00     0.210 C 
ENDBRANCH   2  28
TORSDOF 5
ENDMDL
MODEL 5
REMARK VINA RESULT:      -8.2      4.018      7.707
REMARK  5 active torsions:
REMARK  status: ('A' for Active; 'I' for Inactive)
REMARK    1  A    between atoms: O_2  and  C_3 
REMARK    2  A    between atoms: C_4  and  O_5 
REMARK    3  A    between atoms: C_10  and  C_11 
REMARK    4  A    between atoms: C_13  and  O_14 
REMARK    5  A    between atoms: O_14  and  C_15 
ROOT
HETATM    1  C   UNL     1      -4.944  -0.892 -33.504  1.00  0.00     0.102 A 
HETATM    2  C   UNL     1      -5.877  -1.766 -34.086  1.00  0.00     0.103 A 
HETATM    3  C   UNL     1      -7.209  -1.366 -34.234  1.00  0.00     0.069 A 
HETATM    4  C   UNL     1      -7.593  -0.072 -33.874  1.00  0.00     0.044 A 
HETATM    5  C   UNL     1      -6.666   0.837 -33.357  1.00  0.00    -0.020 A 
HETATM    6  C   UNL     1      -7.141   2.220 -32.930  1.00  0.00     0.063 C 
HETATM    7  C   UNL     1      -8.388   2.654 -33.705  1.00  0.00     0.117 C 
HETATM    8  C   UNL     1      -9.416   1.556 -33.789  1.00  0.00     0.223 C 
HETATM    9  O   UNL     1     -10.623   1.782 -33.803  1.00  0.00    -0.273 OA
HETATM   10  N   UNL     1      -8.937   0.291 -33.987  1.00  0.00    -0.327 N 
HETATM   11  C   UNL     1      -5.346   0.398 -33.141  1.00  0.00     0.049 A 
HETATM   12  H   UNL     1      -9.638  -0.411 -34.193  1.00  0.00     0.169 HD
ENDROOT
BRANCH   6  13
HETATM   13  C   UNL     1      -6.078   3.310 -33.042  1.00  0.00    -0.046 A 
HETATM   14  C   UNL     1      -5.388   3.769 -31.905  1.00  0.00     0.045 A 
HETATM   15  C   UNL     1      -4.486   4.831 -32.006  1.00  0.00     0.076 A 
HETATM   16  C   UNL     1      -4.194   5.386 -33.250  1.00  0.00     0.037 A 
HETATM   17  C   UNL     1      -4.846   4.916 -34.389  1.00  0.00     0.003 A 
HETATM   18  C   UNL     1      -5.790   3.892 -34.286  1.00  0.00     0.008 A 
BRANCH  15  19
HETATM   19  O   UNL     1      -3.815   5.335 -30.917  1.00  0.00    -0.311 OA
BRANCH  19  20
HETATM   20  C   UNL     1      -2.495   5.705 -31.070  1.00  0.00     0.076 A 
HETATM   21  C   UNL     1      -1.454   4.816 -31.354  1.00  0.00     0.037 A 
HETATM   22  C   UNL     1      -0.145   5.287 -31.478  1.00  0.00     0.003 A 
HETATM   23  C   UNL     1       0.131   6.641 -31.286  1.00  0.00     0.000 A 
HETATM   24  C   UNL     1      -0.901   7.524 -30.969  1.00  0.00     0.003 A 
HETATM   25  C   UNL     1      -2.212   7.055 -30.860  1.00  0.00     0.037 A 
ENDBRANCH  19  20
ENDBRANCH  15  19
ENDBRANCH   6  13
BRANCH   1  26
HETATM   26  O   UNL     1      -3.667  -1.374 -33.360  1.00  0.00    -0.353 OA
HETATM   27  C   UNL     1      -3.214  -1.631 -32.037  1.00  0.00     0.210 C 
ENDBRANCH   1  26
BRANCH   2  28
HETATM   28  O   UNL     1      -5.426  -3.019 -34.424  1.00  0.00    -0.353 OA
HETATM   29  C   UNL     1      -6.413  -3.929 -34.892  1.00  0.00     0.210 C 
ENDBRANCH   2  28
TORSDOF 5
ENDMDL
MODEL 6
REMARK VINA RESULT:      -8.1      3.823      5.576
REMARK  5 active torsions:
REMARK  status: ('A' for Active; 'I' for Inactive)
REMARK    1  A    between atoms: O_2  and  C_3 
REMARK    2  A    between atoms: C_4  and  O_5 
REMARK    3  A    between atoms: C_10  and  C_11 
REMARK    4  A    between atoms: C_13  and  O_14 
REMARK    5  A    between atoms: O_14  and  C_15 
ROOT
HETATM    1  C   UNL     1      -7.299   5.318 -30.519  1.00  0.00     0.102 A 
HETATM    2  C   UNL     1      -6.724   6.543 -30.896  1.00  0.00     0.103 A 
HETATM    3  C   UNL     1      -5.371   6.600 -31.244  1.00  0.00     0.069 A 
HETATM    4  C   UNL     1      -4.612   5.428 -31.293  1.00  0.00     0.044 A 
HETATM    5  C   UNL     1      -5.183   4.188 -30.989  1.00  0.00    -0.020 A 
HETATM    6  C   UNL     1      -4.304   2.944 -31.004  1.00  0.00     0.063 C 
HETATM    7  C   UNL     1      -3.116   3.102 -31.956  1.00  0.00     0.117 C 
HETATM    8  C   UNL     1      -2.436   4.437 -31.800  1.00  0.00     0.223 C 
HETATM    9  O   UNL     1      -1.227   4.584 -31.963  1.00  0.00    -0.273 OA
HETATM   10  N   UNL     1      -3.252   5.514 -31.599  1.00  0.00    -0.327 N 
HETATM   11  C   UNL     1      -6.524   4.154 -30.564  1.00  0.00     0.049 A 
HETATM   12  H   UNL     1      -2.799   6.418 -31.647  1.00  0.00     0.169 HD
ENDROOT
BRANCH   6  13
HETATM   13  C   UNL     1      -5.049   1.656 -31.343  1.00  0.00    -0.046 A 
HETATM   14  C   UNL     1      -5.057   1.146 -32.654  1.00  0.00     0.045 A 
HETATM   15  C   UNL     1      -5.820   0.018 -32.970  1.00  0.00     0.076 A 
HETATM   16  C   UNL     1      -6.506  -0.666 -31.970  1.00  0.00     0.037 A 
HETATM   17  C   UNL     1      -6.477  -0.191 -30.659  1.00  0.00     0.003 A 
HETATM   18  C   UNL     1      -5.762   0.968 -30.348  1.00  0.00     0.008 A 
BRANCH  15  19
HETATM   19  O   UNL     1      -5.885  -0.495 -34.244  1.00  0.00    -0.311 OA
BRANCH  19  20
HETATM   20  C   UNL     1      -5.783  -1.860 -34.410  1.00  0.00     0.076 A 
HETATM   21  C   UNL     1      -6.846  -2.691 -34.777  1.00  0.00     0.037 A 
HETATM   22  C   UNL     1      -6.646  -4.067 -34.908  1.00  0.00     0.003 A 
HETATM   23  C   UNL     1      -5.393  -4.619 -34.640  1.00  0.00     0.000 A 
HETATM   24  C   UNL     1      -4.341  -3.796 -34.240  1.00  0.00     0.003 A 
HETATM   25  C   UNL     1      -4.537  -2.419 -34.124  1.00  0.00     0.037 A 
ENDBRANCH  19  20
ENDBRANCH  15  19
ENDBRANCH   6  13
BRANCH   1  26
HETATM   26  O   UNL     1      -8.622   5.353 -30.154  1.00  0.00    -0.353 OA
HETATM   27  C   UNL     1      -9.521   4.531 -30.886  1.00  0.00     0.210 C 
ENDBRANCH   1  26
BRANCH   2  28
HETATM   28  O   UNL     1      -7.532   7.652 -30.833  1.00  0.00    -0.353 OA
HETATM   29  C   UNL     1      -7.800   8.295 -32.073  1.00  0.00     0.210 C 
ENDBRANCH   2  28
TORSDOF 5
ENDMDL
MODEL 7
REMARK VINA RESULT:      -7.9      5.282      7.755
REMARK  5 active torsions:
REMARK  status: ('A' for Active; 'I' for Inactive)
REMARK    1  A    between atoms: O_2  and  C_3 
REMARK    2  A    between atoms: C_4  and  O_5 
REMARK    3  A    between atoms: C_10  and  C_11 
REMARK    4  A    between atoms: C_13  and  O_14 
REMARK    5  A    between atoms: O_14  and  C_15 
ROOT
HETATM    1  C   UNL     1      -3.652   6.615 -29.886  1.00  0.00     0.102 A 
HETATM    2  C   UNL     1      -2.761   7.670 -30.148  1.00  0.00     0.103 A 
HETATM    3  C   UNL     1      -1.987   7.656 -31.312  1.00  0.00     0.069 A 
HETATM    4  C   UNL     1      -2.156   6.635 -32.251  1.00  0.00     0.044 A 
HETATM    5  C   UNL     1      -3.087   5.613 -32.043  1.00  0.00    -0.020 A 
HETATM    6  C   UNL     1      -3.199   4.493 -33.069  1.00  0.00     0.063 C 
HETATM    7  C   UNL     1      -2.772   4.957 -34.463  1.00  0.00     0.117 C 
HETATM    8  C   UNL     1      -1.491   5.750 -34.431  1.00  0.00     0.223 C 
HETATM    9  O   UNL     1      -0.674   5.721 -35.348  1.00  0.00    -0.273 OA
HETATM   10  N   UNL     1      -1.341   6.616 -33.385  1.00  0.00    -0.327 N 
HETATM   11  C   UNL     1      -3.804   5.595 -30.832  1.00  0.00     0.049 A 
HETATM   12  H   UNL     1      -0.553   7.249 -33.454  1.00  0.00     0.169 HD
ENDROOT
BRANCH   6  13
HETATM   13  C   UNL     1      -4.585   3.859 -33.156  1.00  0.00    -0.046 A 
HETATM   14  C   UNL     1      -4.842   2.595 -32.594  1.00  0.00     0.045 A 
HETATM   15  C   UNL     1      -6.088   1.986 -32.762  1.00  0.00     0.076 A 
HETATM   16  C   UNL     1      -7.117   2.665 -33.410  1.00  0.00     0.037 A 
HETATM   17  C   UNL     1      -6.886   3.933 -33.942  1.00  0.00     0.003 A 
HETATM   18  C   UNL     1      -5.625   4.523 -33.825  1.00  0.00     0.008 A 
BRANCH  15  19
HETATM   19  O   UNL     1      -6.373   0.739 -32.259  1.00  0.00    -0.311 OA
BRANCH  19  20
HETATM   20  C   UNL     1      -6.044  -0.367 -33.015  1.00  0.00     0.076 A 
HETATM   21  C   UNL     1      -4.762  -0.920 -33.089  1.00  0.00     0.037 A 
HETATM   22  C   UNL     1      -4.526  -2.035 -33.895  1.00  0.00     0.003 A 
HETATM   23  C   UNL     1      -5.561  -2.580 -34.654  1.00  0.00     0.000 A 
HETATM   24  C   UNL     1      -6.833  -2.009 -34.609  1.00  0.00     0.003 A 
HETATM   25  C   UNL     1      -7.072  -0.903 -33.792  1.00  0.00     0.037 A 
ENDBRANCH  19  20
ENDBRANCH  15  19
ENDBRANCH   6  13
BRANCH   1  26
HETATM   26  O   UNL     1      -4.346   6.684 -28.704  1.00  0.00    -0.353 OA
HETATM   27  C   UNL     1      -5.541   5.921 -28.606  1.00  0.00     0.210 C 
ENDBRANCH   1  26
BRANCH   2  28
HETATM   28  O   UNL     1      -2.654   8.643 -29.185  1.00  0.00    -0.353 OA
HETATM   29  C   UNL     1      -1.401   8.722 -28.519  1.00  0.00     0.210 C 
ENDBRANCH   2  28
TORSDOF 5
ENDMDL
MODEL 8
REMARK VINA RESULT:      -7.9     14.766     17.591
REMARK  5 active torsions:
REMARK  status: ('A' for Active; 'I' for Inactive)
REMARK    1  A    between atoms: O_2  and  C_3 
REMARK    2  A    between atoms: C_4  and  O_5 
REMARK    3  A    between atoms: C_10  and  C_11 
REMARK    4  A    between atoms: C_13  and  O_14 
REMARK    5  A    between atoms: O_14  and  C_15 
ROOT
HETATM    1  C   UNL     1      -4.680 -13.526 -40.761  1.00  0.00     0.102 A 
HETATM    2  C   UNL     1      -3.650 -14.068 -39.973  1.00  0.00     0.103 A 
HETATM    3  C   UNL     1      -3.817 -14.181 -38.590  1.00  0.00     0.069 A 
HETATM    4  C   UNL     1      -5.035 -13.827 -38.002  1.00  0.00     0.044 A 
HETATM    5  C   UNL     1      -6.096 -13.351 -38.777  1.00  0.00    -0.020 A 
HETATM    6  C   UNL     1      -7.387 -12.929 -38.086  1.00  0.00     0.063 C 
HETATM    7  C   UNL     1      -7.590 -13.672 -36.764  1.00  0.00     0.117 C 
HETATM    8  C   UNL     1      -6.333 -13.711 -35.934  1.00  0.00     0.223 C 
HETATM    9  O   UNL     1      -6.353 -13.692 -34.706  1.00  0.00    -0.273 OA
HETATM   10  N   UNL     1      -5.164 -13.905 -36.614  1.00  0.00    -0.327 N 
HETATM   11  C   UNL     1      -5.890 -13.168 -40.157  1.00  0.00     0.049 A 
HETATM   12  H   UNL     1      -4.350 -14.080 -36.037  1.00  0.00     0.169 HD
ENDROOT
BRANCH   6  13
HETATM   13  C   UNL     1      -8.638 -13.087 -38.946  1.00  0.00    -0.046 A 
HETATM   14  C   UNL     1      -9.196 -14.356 -39.188  1.00  0.00     0.045 A 
HETATM   15  C   UNL     1     -10.285 -14.496 -40.053  1.00  0.00     0.076 A 
HETATM   16  C   UNL     1     -10.885 -13.371 -40.612  1.00  0.00     0.037 A 
HETATM   17  C   UNL     1     -10.363 -12.105 -40.351  1.00  0.00     0.003 A 
HETATM   18  C   UNL     1      -9.240 -11.963 -39.532  1.00  0.00     0.008 A 
BRANCH  15  19
HETATM   19  O   UNL     1     -10.841 -15.719 -40.345  1.00  0.00    -0.311 OA
BRANCH  19  20
HETATM   20  C   UNL     1     -11.148 -16.006 -41.659  1.00  0.00     0.076 A 
HETATM   21  C   UNL     1     -12.445 -16.032 -42.179  1.00  0.00     0.037 A 
HETATM   22  C   UNL     1     -12.655 -16.347 -43.523  1.00  0.00     0.003 A 
HETATM   23  C   UNL     1     -11.572 -16.668 -44.342  1.00  0.00     0.000 A 
HETATM   24  C   UNL     1     -10.280 -16.677 -43.817  1.00  0.00     0.003 A 
HETATM   25  C   UNL     1     -10.070 -16.347 -42.477  1.00  0.00     0.037 A 
ENDBRANCH  19  20
ENDBRANCH  15  19
ENDBRANCH   6  13
BRANCH   1  26
HETATM   26  O   UNL     1      -4.423 -13.413 -42.105  1.00  0.00    -0.353 OA
HETATM   27  C   UNL     1      -5.069 -14.337 -42.971  1.00  0.00     0.210 C 
ENDBRANCH   1  26
BRANCH   2  28
HETATM   28  O   UNL     1      -2.485 -14.401 -40.621  1.00  0.00    -0.353 OA
HETATM   29  C   UNL     1      -1.290 -13.880 -40.054  1.00  0.00     0.210 C 
ENDBRANCH   2  28
TORSDOF 5
ENDMDL
MODEL 9
REMARK VINA RESULT:      -7.8      3.943      5.670
REMARK  5 active torsions:
REMARK  status: ('A' for Active; 'I' for Inactive)
REMARK    1  A    between atoms: O_2  and  C_3 
REMARK    2  A    between atoms: C_4  and  O_5 
REMARK    3  A    between atoms: C_10  and  C_11 
REMARK    4  A    between atoms: C_13  and  O_14 
REMARK    5  A    between atoms: O_14  and  C_15 
ROOT
HETATM    1  C   UNL     1      -3.357   5.137 -31.348  1.00  0.00     0.102 A 
HETATM    2  C   UNL     1      -3.619   6.258 -30.542  1.00  0.00     0.103 A 
HETATM    3  C   UNL     1      -4.924   6.516 -30.109  1.00  0.00     0.069 A 
HETATM    4  C   UNL     1      -5.951   5.619 -30.414  1.00  0.00     0.044 A 
HETATM    5  C   UNL     1      -5.699   4.462 -31.157  1.00  0.00    -0.020 A 
HETATM    6  C   UNL     1      -6.859   3.541 -31.509  1.00  0.00     0.063 C 
HETATM    7  C   UNL     1      -7.994   3.642 -30.487  1.00  0.00     0.117 C 
HETATM    8  C   UNL     1      -8.317   5.071 -30.136  1.00  0.00     0.223 C 
HETATM    9  O   UNL     1      -9.455   5.440 -29.856  1.00  0.00    -0.273 OA
HETATM   10  N   UNL     1      -7.253   5.920 -30.011  1.00  0.00    -0.327 N 
HETATM   11  C   UNL     1      -4.398   4.253 -31.653  1.00  0.00     0.049 A 
HETATM   12  H   UNL     1      -7.469   6.833 -29.629  1.00  0.00     0.169 HD
ENDROOT
BRANCH   6  13
HETATM   13  C   UNL     1      -6.467   2.075 -31.677  1.00  0.00    -0.046 A 
HETATM   14  C   UNL     1      -6.258   1.521 -32.954  1.00  0.00     0.045 A 
HETATM   15  C   UNL     1      -5.991   0.157 -33.098  1.00  0.00     0.076 A 
HETATM   16  C   UNL     1      -5.841  -0.650 -31.973  1.00  0.00     0.037 A 
HETATM   17  C   UNL     1      -6.011  -0.106 -30.701  1.00  0.00     0.003 A 
HETATM   18  C   UNL     1      -6.332   1.246 -30.553  1.00  0.00     0.008 A 
BRANCH  15  19
HETATM   19  O   UNL     1      -5.814  -0.433 -34.327  1.00  0.00    -0.311 OA
BRANCH  19  20
HETATM   20  C   UNL     1      -5.673  -1.804 -34.385  1.00  0.00     0.076 A 
HETATM   21  C   UNL     1      -4.457  -2.479 -34.246  1.00  0.00     0.037 A 
HETATM   22  C   UNL     1      -4.415  -3.872 -34.333  1.00  0.00     0.003 A 
HETATM   23  C   UNL     1      -5.582  -4.590 -34.592  1.00  0.00     0.000 A 
HETATM   24  C   UNL     1      -6.791  -3.917 -34.766  1.00  0.00     0.003 A 
HETATM   25  C   UNL     1      -6.835  -2.525 -34.664  1.00  0.00     0.037 A 
ENDBRANCH  19  20
ENDBRANCH  15  19
ENDBRANCH   6  13
BRANCH   1  26
HETATM   26  O   UNL     1      -2.059   4.976 -31.763  1.00  0.00    -0.353 OA
HETATM   27  C   UNL     1      -1.840   4.770 -33.152  1.00  0.00     0.210 C 
ENDBRANCH   1  26
BRANCH   2  28
HETATM   28  O   UNL     1      -2.559   7.090 -30.275  1.00  0.00    -0.353 OA
HETATM   29  C   UNL     1      -2.158   7.166 -28.913  1.00  0.00     0.210 C 
ENDBRANCH   2  28
TORSDOF 5
ENDMDL
MODEL 10
REMARK VINA RESULT:      -7.7     14.442     16.905
REMARK  5 active torsions:
REMARK  status: ('A' for Active; 'I' for Inactive)
REMARK    1  A    between atoms: O_2  and  C_3 
REMARK    2  A    between atoms: C_4  and  O_5 
REMARK    3  A    between atoms: C_10  and  C_11 
REMARK    4  A    between atoms: C_13  and  O_14 
REMARK    5  A    between atoms: O_14  and  C_15 
ROOT
HETATM    1  C   UNL     1      -9.466 -17.025 -39.371  1.00  0.00     0.102 A 
HETATM    2  C   UNL     1     -10.287 -16.940 -40.509  1.00  0.00     0.103 A 
HETATM    3  C   UNL     1     -10.736 -15.693 -40.953  1.00  0.00     0.069 A 
HETATM    4  C   UNL     1     -10.308 -14.528 -40.313  1.00  0.00     0.044 A 
HETATM    5  C   UNL     1      -9.436 -14.585 -39.221  1.00  0.00    -0.020 A 
HETATM    6  C   UNL     1      -9.038 -13.292 -38.522  1.00  0.00     0.063 C 
HETATM    7  C   UNL     1      -9.106 -12.092 -39.470  1.00  0.00     0.117 C 
HETATM    8  C   UNL     1     -10.371 -12.084 -40.288  1.00  0.00     0.223 C 
HETATM    9  O   UNL     1     -10.925 -11.044 -40.635  1.00  0.00    -0.273 OA
HETATM   10  N   UNL     1     -10.805 -13.296 -40.745  1.00  0.00    -0.327 N 
HETATM   11  C   UNL     1      -9.053 -15.849 -38.735  1.00  0.00     0.049 A 
HETATM   12  H   UNL     1     -11.565 -13.262 -41.414  1.00  0.00     0.169 HD
ENDROOT
BRANCH   6  13
HETATM   13  C   UNL     1      -7.661 -13.333 -37.866  1.00  0.00    -0.046 A 
HETATM   14  C   UNL     1      -6.584 -12.596 -38.392  1.00  0.00     0.045 A 
HETATM   15  C   UNL     1      -5.306 -12.715 -37.838  1.00  0.00     0.076 A 
HETATM   16  C   UNL     1      -5.106 -13.497 -36.703  1.00  0.00     0.037 A 
HETATM   17  C   UNL     1      -6.173 -14.205 -36.151  1.00  0.00     0.003 A 
HETATM   18  C   UNL     1      -7.440 -14.133 -36.734  1.00  0.00     0.008 A 
BRANCH  15  19
HETATM   19  O   UNL     1      -4.219 -12.041 -38.340  1.00  0.00    -0.311 OA
BRANCH  19  20
HETATM   20  C   UNL     1      -3.158 -12.773 -38.831  1.00  0.00     0.076 A 
HETATM   21  C   UNL     1      -3.267 -13.748 -39.827  1.00  0.00     0.037 A 
HETATM   22  C   UNL     1      -2.134 -14.447 -40.250  1.00  0.00     0.003 A 
HETATM   23  C   UNL     1      -0.897 -14.197 -39.655  1.00  0.00     0.000 A 
HETATM   24  C   UNL     1      -0.793 -13.250 -38.636  1.00  0.00     0.003 A 
HETATM   25  C   UNL     1      -1.923 -12.540 -38.225  1.00  0.00     0.037 A 
ENDBRANCH  19  20
ENDBRANCH  15  19
ENDBRANCH   6  13
BRANCH   1  26
HETATM   26  O   UNL     1      -9.100 -18.287 -38.977  1.00  0.00    -0.353 OA
HETATM   27  C   UNL     1      -8.346 -18.402 -37.778  1.00  0.00     0.210 C 
ENDBRANCH   1  26
BRANCH   2  28
HETATM   28  O   UNL     1     -10.660 -18.127 -41.092  1.00  0.00    -0.353 OA
HETATM   29  C   UNL     1     -11.993 -18.183 -41.585  1.00  0.00     0.210 C 
ENDBRANCH   2  28
TORSDOF 5
ENDMDL
