MODEL 1
REMARK VINA RESULT:      -9.3      0.000      0.000
REMARK  6 active torsions:
REMARK  status: ('A' for Active; 'I' for Inactive)
REMARK    1  A    between atoms: O_2  and  C_3 
REMARK    2  A    between atoms: C_6  and  C_7 
REMARK    3  A    between atoms: C_11  and  C_12 
REMARK       I    between atoms: C_12  and  N_13 
REMARK    4  A    between atoms: N_13  and  N_14 
REMARK       I    between atoms: N_14  and  C_15 
REMARK    5  A    between atoms: C_15  and  C_16 
REMARK    6  A    between atoms: C_17  and  C_18 
ROOT
HETATM    1  C   UNL     1      -2.068   4.442 -31.757  1.00  0.00     0.288 C 
HETATM    2  N   UNL     1      -2.934   3.514 -31.218  1.00  0.00    -0.262 N 
HETATM    3  O   UNL     1      -1.948   4.589 -32.973  1.00  0.00    -0.264 OA
HETATM    4  H   UNL     1      -3.065   3.366 -30.221  1.00  0.00     0.190 HD
ENDROOT
BRANCH   1   5
HETATM    5  C   UNL     1      -1.316   5.213 -30.809  1.00  0.00     0.121 A 
HETATM    6  N   UNL     1      -0.269   4.674 -30.116  1.00  0.00    -0.272 N 
HETATM    7  N   UNL     1       0.308   5.515 -29.247  1.00  0.00    -0.174 NA
HETATM    8  H   UNL     1       0.086   3.726 -30.191  1.00  0.00     0.189 HD
HETATM    9  C   UNL     1      -0.373   6.664 -29.379  1.00  0.00     0.089 A 
HETATM   10  C   UNL     1      -1.399   6.516 -30.357  1.00  0.00     0.071 A 
BRANCH   9  11
HETATM   11  C   UNL     1      -0.054   7.847 -28.572  1.00  0.00    -0.005 A 
HETATM   12  C   UNL     1      -1.001   8.855 -28.352  1.00  0.00     0.016 A 
HETATM   13  C   UNL     1      -0.686   9.963 -27.557  1.00  0.00     0.037 A 
HETATM   14  C   UNL     1       0.572  10.086 -26.966  1.00  0.00     0.068 A 
HETATM   15  C   UNL     1       1.527   9.096 -27.193  1.00  0.00     0.037 A 
HETATM   16  C   UNL     1       1.214   7.987 -27.990  1.00  0.00     0.016 A 
BRANCH  14  17
HETATM   17  O   UNL     1       0.742  11.208 -26.205  1.00  0.00    -0.356 OA
HETATM   18  C   UNL     1       1.465  11.054 -24.990  1.00  0.00     0.210 C 
ENDBRANCH  14  17
ENDBRANCH   9  11
ENDBRANCH   1   5
BRANCH   2  19
HETATM   19  N   UNL     1      -3.684   2.707 -32.077  1.00  0.00    -0.267 N 
HETATM   20  C   UNL     1      -5.044   2.636 -31.888  1.00  0.00     0.240 C 
HETATM   21  O   UNL     1      -5.647   3.276 -31.032  1.00  0.00    -0.271 OA
HETATM   22  H   UNL     1      -3.170   2.123 -32.733  1.00  0.00     0.190 HD
BRANCH  20  23
HETATM   23  C   UNL     1      -5.741   1.692 -32.801  1.00  0.00     0.089 A 
HETATM   24  C   UNL     1      -6.091   0.303 -32.289  1.00  0.00     0.034 A 
HETATM   25  C   UNL     1      -7.179   1.312 -32.575  1.00  0.00     0.025 A 
BRANCH  24  26
HETATM   26  C   UNL     1      -5.860  -0.894 -33.192  1.00  0.00    -0.031 A 
HETATM   27  C   UNL     1      -4.588  -1.477 -33.370  1.00  0.00     0.040 A 
HETATM   28 CL   UNL     1      -3.196  -0.837 -32.562  1.00  0.00    -0.084 Cl
HETATM   29  C   UNL     1      -4.400  -2.589 -34.197  1.00  0.00     0.024 A 
HETATM   30  C   UNL     1      -5.484  -3.154 -34.865  1.00  0.00     0.002 A 
HETATM   31  C   UNL     1      -6.752  -2.611 -34.699  1.00  0.00     0.001 A 
HETATM   32  C   UNL     1      -6.936  -1.500 -33.868  1.00  0.00     0.009 A 
ENDBRANCH  24  26
ENDBRANCH  20  23
ENDBRANCH   2  19
TORSDOF 6
ENDMDL
MODEL 2
REMARK VINA RESULT:      -8.8      2.661     11.416
REMARK  6 active torsions:
REMARK  status: ('A' for Active; 'I' for Inactive)
REMARK    1  A    between atoms: O_2  and  C_3 
REMARK    2  A    between atoms: C_6  and  C_7 
REMARK    3  A    between atoms: C_11  and  C_12 
REMARK       I    between atoms: C_12  and  N_13 
REMARK    4  A    between atoms: N_13  and  N_14 
REMARK       I    between atoms: N_14  and  C_15 
REMARK    5  A    between atoms: C_15  and  C_16 
REMARK    6  A    between atoms: C_17  and  C_18 
ROOT
HETATM    1  C   UNL     1      -4.523   4.044 -31.049  1.00  0.00     0.288 C 
HETATM    2  N   UNL     1      -3.160   4.169 -31.216  1.00  0.00    -0.262 N 
HETATM    3  O   UNL     1      -5.202   4.943 -30.555  1.00  0.00    -0.264 OA
HETATM    4  H   UNL     1      -2.565   3.453 -31.624  1.00  0.00     0.190 HD
ENDROOT
BRANCH   1   5
HETATM    5  C   UNL     1      -5.088   2.797 -31.481  1.00  0.00     0.121 A 
HETATM    6  N   UNL     1      -6.253   2.317 -30.952  1.00  0.00    -0.272 N 
HETATM    7  N   UNL     1      -6.630   1.128 -31.440  1.00  0.00    -0.174 NA
HETATM    8  H   UNL     1      -6.826   2.760 -30.240  1.00  0.00     0.189 HD
HETATM    9  C   UNL     1      -5.686   0.812 -32.340  1.00  0.00     0.089 A 
HETATM   10  C   UNL     1      -4.702   1.841 -32.400  1.00  0.00     0.071 A 
BRANCH   9  11
HETATM   11  C   UNL     1      -5.729  -0.446 -33.093  1.00  0.00    -0.005 A 
HETATM   12  C   UNL     1      -4.580  -1.227 -33.272  1.00  0.00     0.016 A 
HETATM   13  C   UNL     1      -4.646  -2.438 -33.971  1.00  0.00     0.037 A 
HETATM   14  C   UNL     1      -5.854  -2.894 -34.499  1.00  0.00     0.068 A 
HETATM   15  C   UNL     1      -7.000  -2.117 -34.340  1.00  0.00     0.037 A 
HETATM   16  C   UNL     1      -6.935  -0.903 -33.644  1.00  0.00     0.016 A 
BRANCH  14  17
HETATM   17  O   UNL     1      -5.780  -4.096 -35.145  1.00  0.00    -0.356 OA
HETATM   18  C   UNL     1      -4.997  -5.109 -34.525  1.00  0.00     0.210 C 
ENDBRANCH  14  17
ENDBRANCH   9  11
ENDBRANCH   1   5
BRANCH   2  19
HETATM   19  N   UNL     1      -2.531   5.344 -30.798  1.00  0.00    -0.267 N 
HETATM   20  C   UNL     1      -1.221   5.552 -31.161  1.00  0.00     0.240 C 
HETATM   21  O   UNL     1      -0.581   4.781 -31.871  1.00  0.00    -0.271 OA
HETATM   22  H   UNL     1      -3.041   5.939 -30.150  1.00  0.00     0.190 HD
BRANCH  20  23
HETATM   23  C   UNL     1      -0.618   6.791 -30.603  1.00  0.00     0.089 A 
HETATM   24  C   UNL     1       0.397   6.667 -29.477  1.00  0.00     0.034 A 
HETATM   25  C   UNL     1       0.825   7.132 -30.849  1.00  0.00     0.025 A 
BRANCH  24  26
HETATM   26  C   UNL     1       0.315   7.625 -28.304  1.00  0.00    -0.031 A 
HETATM   27  C   UNL     1      -0.811   7.693 -27.456  1.00  0.00     0.040 A 
HETATM   28 CL   UNL     1      -2.187   6.677 -27.723  1.00  0.00    -0.084 Cl
HETATM   29  C   UNL     1      -0.860   8.575 -26.371  1.00  0.00     0.024 A 
HETATM   30  C   UNL     1       0.222   9.409 -26.099  1.00  0.00     0.002 A 
HETATM   31  C   UNL     1       1.351   9.356 -26.908  1.00  0.00     0.001 A 
HETATM   32  C   UNL     1       1.396   8.470 -27.991  1.00  0.00     0.009 A 
ENDBRANCH  24  26
ENDBRANCH  20  23
ENDBRANCH   2  19
TORSDOF 6
ENDMDL
MODEL 3
REMARK VINA RESULT:      -8.7      2.759     11.264
REMARK  6 active torsions:
REMARK  status: ('A' for Active; 'I' for Inactive)
REMARK    1  A    between atoms: O_2  and  C_3 
REMARK    2  A    between atoms: C_6  and  C_7 
REMARK    3  A    between atoms: C_11  and  C_12 
REMARK       I    between atoms: C_12  and  N_13 
REMARK    4  A    between atoms: N_13  and  N_14 
REMARK       I    between atoms: N_14  and  C_15 
REMARK    5  A    between atoms: C_15  and  C_16 
REMARK    6  A    between atoms: C_17  and  C_18 
ROOT
HETATM    1  C   UNL     1      -3.393   3.725 -31.339  1.00  0.00     0.288 C 
HETATM    2  N   UNL     1      -4.174   4.638 -30.662  1.00  0.00    -0.262 N 
HETATM    3  O   UNL     1      -2.164   3.767 -31.303  1.00  0.00    -0.264 OA
HETATM    4  H   UNL     1      -5.190   4.633 -30.663  1.00  0.00     0.190 HD
ENDROOT
BRANCH   1   5
HETATM    5  C   UNL     1      -4.109   2.732 -32.089  1.00  0.00     0.121 A 
HETATM    6  N   UNL     1      -5.272   3.028 -32.743  1.00  0.00    -0.272 N 
HETATM    7  N   UNL     1      -5.832   1.985 -33.370  1.00  0.00    -0.174 NA
HETATM    8  H   UNL     1      -5.735   3.931 -32.781  1.00  0.00     0.189 HD
HETATM    9  C   UNL     1      -5.000   0.958 -33.137  1.00  0.00     0.089 A 
HETATM   10  C   UNL     1      -3.900   1.390 -32.340  1.00  0.00     0.071 A 
BRANCH   9  11
HETATM   11  C   UNL     1      -5.276  -0.389 -33.648  1.00  0.00    -0.005 A 
HETATM   12  C   UNL     1      -4.261  -1.348 -33.757  1.00  0.00     0.016 A 
HETATM   13  C   UNL     1      -4.549  -2.636 -34.222  1.00  0.00     0.037 A 
HETATM   14  C   UNL     1      -5.849  -2.993 -34.583  1.00  0.00     0.068 A 
HETATM   15  C   UNL     1      -6.863  -2.041 -34.494  1.00  0.00     0.037 A 
HETATM   16  C   UNL     1      -6.575  -0.750 -34.031  1.00  0.00     0.016 A 
BRANCH  14  17
HETATM   17  O   UNL     1      -5.993  -4.285 -35.007  1.00  0.00    -0.356 OA
HETATM   18  C   UNL     1      -5.029  -5.221 -34.542  1.00  0.00     0.210 C 
ENDBRANCH  14  17
ENDBRANCH   9  11
ENDBRANCH   1   5
BRANCH   2  19
HETATM   19  N   UNL     1      -3.551   5.650 -29.928  1.00  0.00    -0.267 N 
HETATM   20  C   UNL     1      -3.469   6.906 -30.481  1.00  0.00     0.240 C 
HETATM   21  O   UNL     1      -3.952   7.202 -31.570  1.00  0.00    -0.271 OA
HETATM   22  H   UNL     1      -3.089   5.379 -29.063  1.00  0.00     0.190 HD
BRANCH  20  23
HETATM   23  C   UNL     1      -2.721   7.891 -29.658  1.00  0.00     0.089 A 
HETATM   24  C   UNL     1      -1.219   8.026 -29.863  1.00  0.00     0.034 A 
HETATM   25  C   UNL     1      -2.153   9.143 -30.268  1.00  0.00     0.025 A 
BRANCH  24  26
HETATM   26  C   UNL     1      -0.319   8.146 -28.648  1.00  0.00    -0.031 A 
HETATM   27  C   UNL     1       0.494   7.084 -28.197  1.00  0.00     0.040 A 
HETATM   28 CL   UNL     1       0.497   5.558 -29.014  1.00  0.00    -0.084 Cl
HETATM   29  C   UNL     1       1.328   7.221 -27.082  1.00  0.00     0.024 A 
HETATM   30  C   UNL     1       1.376   8.429 -26.390  1.00  0.00     0.002 A 
HETATM   31  C   UNL     1       0.597   9.498 -26.818  1.00  0.00     0.001 A 
HETATM   32  C   UNL     1      -0.233   9.357 -27.935  1.00  0.00     0.009 A 
ENDBRANCH  24  26
ENDBRANCH  20  23
ENDBRANCH   2  19
TORSDOF 6
ENDMDL
MODEL 4
REMARK VINA RESULT:      -8.0      7.525     10.310
REMARK  6 active torsions:
REMARK  status: ('A' for Active; 'I' for Inactive)
REMARK    1  A    between atoms: O_2  and  C_3 
REMARK    2  A    between atoms: C_6  and  C_7 
REMARK    3  A    between atoms: C_11  and  C_12 
REMARK       I    between atoms: C_12  and  N_13 
REMARK    4  A    between atoms: N_13  and  N_14 
REMARK       I    between atoms: N_14  and  C_15 
REMARK    5  A    between atoms: C_15  and  C_16 
REMARK    6  A    between atoms: C_17  and  C_18 
ROOT
HETATM    1  C   UNL     1      -9.896   1.432 -33.313  1.00  0.00     0.288 C 
HETATM    2  N   UNL     1      -8.526   1.592 -33.290  1.00  0.00    -0.262 N 
HETATM    3  O   UNL     1     -10.429   0.357 -33.042  1.00  0.00    -0.264 OA
HETATM    4  H   UNL     1      -8.049   2.463 -33.502  1.00  0.00     0.190 HD
ENDROOT
BRANCH   1   5
HETATM    5  C   UNL     1     -10.650   2.598 -33.679  1.00  0.00     0.121 A 
HETATM    6  N   UNL     1     -11.881   2.852 -33.143  1.00  0.00    -0.272 N 
HETATM    7  N   UNL     1     -12.466   3.963 -33.611  1.00  0.00    -0.174 NA
HETATM    8  H   UNL     1     -12.375   2.287 -32.458  1.00  0.00     0.189 HD
HETATM    9  C   UNL     1     -11.582   4.475 -34.481  1.00  0.00     0.089 A 
HETATM   10  C   UNL     1     -10.424   3.648 -34.547  1.00  0.00     0.071 A 
BRANCH   9  11
HETATM   11  C   UNL     1     -11.863   5.703 -35.232  1.00  0.00    -0.005 A 
HETATM   12  C   UNL     1     -10.866   6.657 -35.467  1.00  0.00     0.016 A 
HETATM   13  C   UNL     1     -11.147   7.811 -36.209  1.00  0.00     0.037 A 
HETATM   14  C   UNL     1     -12.421   8.032 -36.732  1.00  0.00     0.068 A 
HETATM   15  C   UNL     1     -13.425   7.096 -36.491  1.00  0.00     0.037 A 
HETATM   16  C   UNL     1     -13.146   5.943 -35.746  1.00  0.00     0.016 A 
BRANCH  14  17
HETATM   17  O   UNL     1     -12.555   9.189 -37.447  1.00  0.00    -0.356 OA
HETATM   18  C   UNL     1     -11.913   9.235 -38.716  1.00  0.00     0.210 C 
ENDBRANCH  14  17
ENDBRANCH   9  11
ENDBRANCH   1   5
BRANCH   2  19
HETATM   19  N   UNL     1      -7.722   0.498 -32.966  1.00  0.00    -0.267 N 
HETATM   20  C   UNL     1      -6.647   0.697 -32.132  1.00  0.00     0.240 C 
HETATM   21  O   UNL     1      -6.377   1.779 -31.618  1.00  0.00    -0.271 OA
HETATM   22  H   UNL     1      -7.906  -0.376 -33.454  1.00  0.00     0.190 HD
BRANCH  20  23
HETATM   23  C   UNL     1      -5.808  -0.510 -31.911  1.00  0.00     0.089 A 
HETATM   24  C   UNL     1      -4.770  -0.881 -32.960  1.00  0.00     0.034 A 
HETATM   25  C   UNL     1      -4.343  -0.391 -31.595  1.00  0.00     0.025 A 
BRANCH  24  26
HETATM   26  C   UNL     1      -4.620  -2.336 -33.364  1.00  0.00    -0.031 A 
HETATM   27  C   UNL     1      -5.473  -2.956 -34.302  1.00  0.00     0.040 A 
HETATM   28 CL   UNL     1      -6.765  -2.075 -35.045  1.00  0.00    -0.084 Cl
HETATM   29  C   UNL     1      -5.308  -4.295 -34.671  1.00  0.00     0.024 A 
HETATM   30  C   UNL     1      -4.279  -5.051 -34.114  1.00  0.00     0.002 A 
HETATM   31  C   UNL     1      -3.414  -4.465 -33.197  1.00  0.00     0.001 A 
HETATM   32  C   UNL     1      -3.581  -3.124 -32.834  1.00  0.00     0.009 A 
ENDBRANCH  24  26
ENDBRANCH  20  23
ENDBRANCH   2  19
TORSDOF 6
ENDMDL
MODEL 5
REMARK VINA RESULT:      -8.0      3.369     11.198
REMARK  6 active torsions:
REMARK  status: ('A' for Active; 'I' for Inactive)
REMARK    1  A    between atoms: O_2  and  C_3 
REMARK    2  A    between atoms: C_6  and  C_7 
REMARK    3  A    between atoms: C_11  and  C_12 
REMARK       I    between atoms: C_12  and  N_13 
REMARK    4  A    between atoms: N_13  and  N_14 
REMARK       I    between atoms: N_14  and  C_15 
REMARK    5  A    between atoms: C_15  and  C_16 
REMARK    6  A    between atoms: C_17  and  C_18 
ROOT
HETATM    1  C   UNL     1      -3.629   3.404 -31.371  1.00  0.00     0.288 C 
HETATM    2  N   UNL     1      -3.912   4.698 -30.989  1.00  0.00    -0.262 N 
HETATM    3  O   UNL     1      -2.494   2.936 -31.290  1.00  0.00    -0.264 OA
HETATM    4  H   UNL     1      -4.836   5.119 -31.035  1.00  0.00     0.190 HD
ENDROOT
BRANCH   1   5
HETATM    5  C   UNL     1      -4.742   2.648 -31.873  1.00  0.00     0.121 A 
HETATM    6  N   UNL     1      -4.565   1.463 -32.529  1.00  0.00    -0.272 N 
HETATM    7  N   UNL     1      -5.701   0.898 -32.960  1.00  0.00    -0.174 NA
HETATM    8  H   UNL     1      -3.682   1.000 -32.721  1.00  0.00     0.189 HD
HETATM    9  C   UNL     1      -6.673   1.734 -32.561  1.00  0.00     0.089 A 
HETATM   10  C   UNL     1      -6.109   2.844 -31.868  1.00  0.00     0.071 A 
BRANCH   9  11
HETATM   11  C   UNL     1      -8.085   1.475 -32.862  1.00  0.00    -0.005 A 
HETATM   12  C   UNL     1      -8.883   2.435 -33.495  1.00  0.00     0.016 A 
HETATM   13  C   UNL     1     -10.221   2.159 -33.797  1.00  0.00     0.037 A 
HETATM   14  C   UNL     1     -10.786   0.924 -33.479  1.00  0.00     0.068 A 
HETATM   15  C   UNL     1     -10.005  -0.033 -32.835  1.00  0.00     0.037 A 
HETATM   16  C   UNL     1      -8.666   0.243 -32.529  1.00  0.00     0.016 A 
BRANCH  14  17
HETATM   17  O   UNL     1     -12.097   0.782 -33.842  1.00  0.00    -0.356 OA
HETATM   18  C   UNL     1     -12.513   1.469 -35.016  1.00  0.00     0.210 C 
ENDBRANCH  14  17
ENDBRANCH   9  11
ENDBRANCH   1   5
BRANCH   2  19
HETATM   19  N   UNL     1      -2.878   5.506 -30.512  1.00  0.00    -0.267 N 
HETATM   20  C   UNL     1      -2.356   6.466 -31.347  1.00  0.00     0.240 C 
HETATM   21  O   UNL     1      -2.778   6.684 -32.479  1.00  0.00    -0.271 OA
HETATM   22  H   UNL     1      -2.484   5.270 -29.604  1.00  0.00     0.190 HD
BRANCH  20  23
HETATM   23  C   UNL     1      -1.209   7.219 -30.776  1.00  0.00     0.089 A 
HETATM   24  C   UNL     1      -0.444   6.613 -29.609  1.00  0.00     0.034 A 
HETATM   25  C   UNL     1       0.205   6.745 -30.968  1.00  0.00     0.025 A 
BRANCH  24  26
HETATM   26  C   UNL     1      -0.044   7.505 -28.449  1.00  0.00    -0.031 A 
HETATM   27  C   UNL     1      -0.918   7.799 -27.381  1.00  0.00     0.040 A 
HETATM   28 CL   UNL     1      -2.526   7.156 -27.345  1.00  0.00    -0.084 Cl
HETATM   29  C   UNL     1      -0.525   8.613 -26.313  1.00  0.00     0.024 A 
HETATM   30  C   UNL     1       0.760   9.150 -26.282  1.00  0.00     0.002 A 
HETATM   31  C   UNL     1       1.649   8.868 -27.313  1.00  0.00     0.001 A 
HETATM   32  C   UNL     1       1.251   8.051 -28.377  1.00  0.00     0.009 A 
ENDBRANCH  24  26
ENDBRANCH  20  23
ENDBRANCH   2  19
TORSDOF 6
ENDMDL
MODEL 6
REMARK VINA RESULT:      -8.0      3.037     11.652
REMARK  6 active torsions:
REMARK  status: ('A' for Active; 'I' for Inactive)
REMARK    1  A    between atoms: O_2  and  C_3 
REMARK    2  A    between atoms: C_6  and  C_7 
REMARK    3  A    between atoms: C_11  and  C_12 
REMARK       I    between atoms: C_12  and  N_13 
REMARK    4  A    between atoms: N_13  and  N_14 
REMARK       I    between atoms: N_14  and  C_15 
REMARK    5  A    between atoms: C_15  and  C_16 
REMARK    6  A    between atoms: C_17  and  C_18 
ROOT
HETATM    1  C   UNL     1      -2.961   4.032 -31.580  1.00  0.00     0.288 C 
HETATM    2  N   UNL     1      -3.462   4.938 -30.669  1.00  0.00    -0.262 N 
HETATM    3  O   UNL     1      -1.807   4.103 -32.000  1.00  0.00    -0.264 OA
HETATM    4  H   UNL     1      -4.406   4.910 -30.295  1.00  0.00     0.190 HD
ENDROOT
BRANCH   1   5
HETATM    5  C   UNL     1      -3.876   3.011 -32.006  1.00  0.00     0.121 A 
HETATM    6  N   UNL     1      -5.207   3.070 -31.704  1.00  0.00    -0.272 N 
HETATM    7  N   UNL     1      -5.920   2.026 -32.148  1.00  0.00    -0.174 NA
HETATM    8  H   UNL     1      -5.681   3.802 -31.183  1.00  0.00     0.189 HD
HETATM    9  C   UNL     1      -5.029   1.249 -32.784  1.00  0.00     0.089 A 
HETATM   10  C   UNL     1      -3.732   1.838 -32.721  1.00  0.00     0.071 A 
BRANCH   9  11
HETATM   11  C   UNL     1      -5.418  -0.022 -33.404  1.00  0.00    -0.005 A 
HETATM   12  C   UNL     1      -4.553  -1.123 -33.412  1.00  0.00     0.016 A 
HETATM   13  C   UNL     1      -4.952  -2.336 -33.986  1.00  0.00     0.037 A 
HETATM   14  C   UNL     1      -6.218  -2.475 -34.555  1.00  0.00     0.068 A 
HETATM   15  C   UNL     1      -7.081  -1.381 -34.566  1.00  0.00     0.037 A 
HETATM   16  C   UNL     1      -6.681  -0.166 -33.995  1.00  0.00     0.016 A 
BRANCH  14  17
HETATM   17  O   UNL     1      -6.485  -3.715 -35.067  1.00  0.00    -0.356 OA
HETATM   18  C   UNL     1      -5.550  -4.744 -34.767  1.00  0.00     0.210 C 
ENDBRANCH  14  17
ENDBRANCH   9  11
ENDBRANCH   1   5
BRANCH   2  19
HETATM   19  N   UNL     1      -2.640   5.975 -30.223  1.00  0.00    -0.267 N 
HETATM   20  C   UNL     1      -3.144   6.861 -29.300  1.00  0.00     0.240 C 
HETATM   21  O   UNL     1      -4.266   6.767 -28.810  1.00  0.00    -0.271 OA
HETATM   22  H   UNL     1      -1.743   6.090 -30.689  1.00  0.00     0.190 HD
BRANCH  20  23
HETATM   23  C   UNL     1      -2.222   7.973 -28.949  1.00  0.00     0.089 A 
HETATM   24  C   UNL     1      -1.031   7.679 -28.049  1.00  0.00     0.034 A 
HETATM   25  C   UNL     1      -0.826   8.030 -29.504  1.00  0.00     0.025 A 
BRANCH  24  26
HETATM   26  C   UNL     1      -0.688   8.656 -26.940  1.00  0.00    -0.031 A 
HETATM   27  C   UNL     1      -1.309   8.617 -25.674  1.00  0.00     0.040 A 
HETATM   28 CL   UNL     1      -2.525   7.438 -25.316  1.00  0.00    -0.084 Cl
HETATM   29  C   UNL     1      -0.967   9.520 -24.661  1.00  0.00     0.024 A 
HETATM   30  C   UNL     1       0.013  10.484 -24.886  1.00  0.00     0.002 A 
HETATM   31  C   UNL     1       0.651  10.539 -26.119  1.00  0.00     0.001 A 
HETATM   32  C   UNL     1       0.308   9.633 -27.128  1.00  0.00     0.009 A 
ENDBRANCH  24  26
ENDBRANCH  20  23
ENDBRANCH   2  19
TORSDOF 6
ENDMDL
MODEL 7
REMARK VINA RESULT:      -7.6      7.511     11.830
REMARK  6 active torsions:
REMARK  status: ('A' for Active; 'I' for Inactive)
REMARK    1  A    between atoms: O_2  and  C_3 
REMARK    2  A    between atoms: C_6  and  C_7 
REMARK    3  A    between atoms: C_11  and  C_12 
REMARK       I    between atoms: C_12  and  N_13 
REMARK    4  A    between atoms: N_13  and  N_14 
REMARK       I    between atoms: N_14  and  C_15 
REMARK    5  A    between atoms: C_15  and  C_16 
REMARK    6  A    between atoms: C_17  and  C_18 
ROOT
HETATM    1  C   UNL     1      -7.355   4.572 -33.725  1.00  0.00     0.288 C 
HETATM    2  N   UNL     1      -8.616   4.720 -34.263  1.00  0.00    -0.262 N 
HETATM    3  O   UNL     1      -6.626   5.538 -33.503  1.00  0.00    -0.264 OA
HETATM    4  H   UNL     1      -9.249   3.949 -34.456  1.00  0.00     0.190 HD
ENDROOT
BRANCH   1   5
HETATM    5  C   UNL     1      -6.952   3.222 -33.451  1.00  0.00     0.121 A 
HETATM    6  N   UNL     1      -6.660   2.804 -32.184  1.00  0.00    -0.272 N 
HETATM    7  N   UNL     1      -6.272   1.525 -32.101  1.00  0.00    -0.174 NA
HETATM    8  H   UNL     1      -6.700   3.362 -31.335  1.00  0.00     0.189 HD
HETATM    9  C   UNL     1      -6.321   1.069 -33.362  1.00  0.00     0.089 A 
HETATM   10  C   UNL     1      -6.751   2.106 -34.241  1.00  0.00     0.071 A 
BRANCH   9  11
HETATM   11  C   UNL     1      -5.945  -0.307 -33.701  1.00  0.00    -0.005 A 
HETATM   12  C   UNL     1      -4.684  -0.819 -33.370  1.00  0.00     0.016 A 
HETATM   13  C   UNL     1      -4.353  -2.144 -33.678  1.00  0.00     0.037 A 
HETATM   14  C   UNL     1      -5.269  -2.981 -34.315  1.00  0.00     0.068 A 
HETATM   15  C   UNL     1      -6.521  -2.476 -34.663  1.00  0.00     0.037 A 
HETATM   16  C   UNL     1      -6.853  -1.150 -34.358  1.00  0.00     0.016 A 
BRANCH  14  17
HETATM   17  O   UNL     1      -4.822  -4.253 -34.544  1.00  0.00    -0.356 OA
HETATM   18  C   UNL     1      -3.633  -4.644 -33.869  1.00  0.00     0.210 C 
ENDBRANCH  14  17
ENDBRANCH   9  11
ENDBRANCH   1   5
BRANCH   2  19
HETATM   19  N   UNL     1      -9.072   6.002 -34.580  1.00  0.00    -0.267 N 
HETATM   20  C   UNL     1     -10.312   6.133 -35.159  1.00  0.00     0.240 C 
HETATM   21  O   UNL     1     -11.064   5.187 -35.376  1.00  0.00    -0.271 OA
HETATM   22  H   UNL     1      -8.414   6.770 -34.467  1.00  0.00     0.190 HD
BRANCH  20  23
HETATM   23  C   UNL     1     -10.673   7.526 -35.529  1.00  0.00     0.089 A 
HETATM   24  C   UNL     1     -11.360   7.774 -36.864  1.00  0.00     0.034 A 
HETATM   25  C   UNL     1     -12.107   7.974 -35.566  1.00  0.00     0.025 A 
BRANCH  24  26
HETATM   26  C   UNL     1     -10.914   8.950 -37.713  1.00  0.00    -0.031 A 
HETATM   27  C   UNL     1     -11.652   9.405 -38.827  1.00  0.00     0.040 A 
HETATM   28 CL   UNL     1     -13.124   8.624 -39.298  1.00  0.00    -0.084 Cl
HETATM   29  C   UNL     1     -11.230  10.501 -39.588  1.00  0.00     0.024 A 
HETATM   30  C   UNL     1     -10.059  11.176 -39.250  1.00  0.00     0.002 A 
HETATM   31  C   UNL     1      -9.318  10.759 -38.151  1.00  0.00     0.001 A 
HETATM   32  C   UNL     1      -9.746   9.665 -37.391  1.00  0.00     0.009 A 
ENDBRANCH  24  26
ENDBRANCH  20  23
ENDBRANCH   2  19
TORSDOF 6
ENDMDL
MODEL 8
REMARK VINA RESULT:      -7.6      3.011     11.346
REMARK  6 active torsions:
REMARK  status: ('A' for Active; 'I' for Inactive)
REMARK    1  A    between atoms: O_2  and  C_3 
REMARK    2  A    between atoms: C_6  and  C_7 
REMARK    3  A    between atoms: C_11  and  C_12 
REMARK       I    between atoms: C_12  and  N_13 
REMARK    4  A    between atoms: N_13  and  N_14 
REMARK       I    between atoms: N_14  and  C_15 
REMARK    5  A    between atoms: C_15  and  C_16 
REMARK    6  A    between atoms: C_17  and  C_18 
ROOT
HETATM    1  C   UNL     1      -5.489   4.866 -29.323  1.00  0.00     0.288 C 
HETATM    2  N   UNL     1      -4.260   5.326 -29.744  1.00  0.00    -0.262 N 
HETATM    3  O   UNL     1      -6.022   5.282 -28.295  1.00  0.00    -0.264 OA
HETATM    4  H   UNL     1      -3.790   5.012 -30.588  1.00  0.00     0.190 HD
ENDROOT
BRANCH   1   5
HETATM    5  C   UNL     1      -6.097   3.868 -30.157  1.00  0.00     0.121 A 
HETATM    6  N   UNL     1      -7.454   3.733 -30.240  1.00  0.00    -0.272 N 
HETATM    7  N   UNL     1      -7.861   2.737 -31.038  1.00  0.00    -0.174 NA
HETATM    8  H   UNL     1      -8.152   4.293 -29.758  1.00  0.00     0.189 HD
HETATM    9  C   UNL     1      -6.729   2.198 -31.517  1.00  0.00     0.089 A 
HETATM   10  C   UNL     1      -5.598   2.886 -30.990  1.00  0.00     0.071 A 
BRANCH   9  11
HETATM   11  C   UNL     1      -6.747   1.048 -32.427  1.00  0.00    -0.005 A 
HETATM   12  C   UNL     1      -5.575   0.583 -33.037  1.00  0.00     0.016 A 
HETATM   13  C   UNL     1      -5.609  -0.532 -33.883  1.00  0.00     0.037 A 
HETATM   14  C   UNL     1      -6.806  -1.204 -34.132  1.00  0.00     0.068 A 
HETATM   15  C   UNL     1      -7.980  -0.740 -33.543  1.00  0.00     0.037 A 
HETATM   16  C   UNL     1      -7.948   0.377 -32.699  1.00  0.00     0.016 A 
BRANCH  14  17
HETATM   17  O   UNL     1      -6.695  -2.283 -34.964  1.00  0.00    -0.356 OA
HETATM   18  C   UNL     1      -5.509  -3.060 -34.849  1.00  0.00     0.210 C 
ENDBRANCH  14  17
ENDBRANCH   9  11
ENDBRANCH   1   5
BRANCH   2  19
HETATM   19  N   UNL     1      -3.593   6.281 -28.973  1.00  0.00    -0.267 N 
HETATM   20  C   UNL     1      -3.235   7.469 -29.565  1.00  0.00     0.240 C 
HETATM   21  O   UNL     1      -3.506   7.759 -30.727  1.00  0.00    -0.271 OA
HETATM   22  H   UNL     1      -3.306   6.004 -28.037  1.00  0.00     0.190 HD
BRANCH  20  23
HETATM   23  C   UNL     1      -2.462   8.385 -28.686  1.00  0.00     0.089 A 
HETATM   24  C   UNL     1      -0.997   8.645 -29.007  1.00  0.00     0.034 A 
HETATM   25  C   UNL     1      -2.025   9.741 -29.168  1.00  0.00     0.025 A 
BRANCH  24  26
HETATM   26  C   UNL     1       0.012   8.662 -27.875  1.00  0.00    -0.031 A 
HETATM   27  C   UNL     1       0.778   7.531 -27.522  1.00  0.00     0.040 A 
HETATM   28 CL   UNL     1       0.592   6.032 -28.369  1.00  0.00    -0.084 Cl
HETATM   29  C   UNL     1       1.714   7.574 -26.483  1.00  0.00     0.024 A 
HETATM   30  C   UNL     1       1.915   8.755 -25.772  1.00  0.00     0.002 A 
HETATM   31  C   UNL     1       1.186   9.890 -26.106  1.00  0.00     0.001 A 
HETATM   32  C   UNL     1       0.253   9.843 -27.148  1.00  0.00     0.009 A 
ENDBRANCH  24  26
ENDBRANCH  20  23
ENDBRANCH   2  19
TORSDOF 6
ENDMDL
MODEL 9
REMARK VINA RESULT:      -7.5      3.196     11.458
REMARK  6 active torsions:
REMARK  status: ('A' for Active; 'I' for Inactive)
REMARK    1  A    between atoms: O_2  and  C_3 
REMARK    2  A    between atoms: C_6  and  C_7 
REMARK    3  A    between atoms: C_11  and  C_12 
REMARK       I    between atoms: C_12  and  N_13 
REMARK    4  A    between atoms: N_13  and  N_14 
REMARK       I    between atoms: N_14  and  C_15 
REMARK    5  A    between atoms: C_15  and  C_16 
REMARK    6  A    between atoms: C_17  and  C_18 
ROOT
HETATM    1  C   UNL     1      -5.070   3.783 -32.007  1.00  0.00     0.288 C 
HETATM    2  N   UNL     1      -4.217   4.529 -32.793  1.00  0.00    -0.262 N 
HETATM    3  O   UNL     1      -5.385   4.137 -30.872  1.00  0.00    -0.264 OA
HETATM    4  H   UNL     1      -3.938   4.274 -33.736  1.00  0.00     0.190 HD
ENDROOT
BRANCH   1   5
HETATM    5  C   UNL     1      -5.555   2.569 -32.600  1.00  0.00     0.121 A 
HETATM    6  N   UNL     1      -6.829   2.467 -33.084  1.00  0.00    -0.272 N 
HETATM    7  N   UNL     1      -7.136   1.260 -33.576  1.00  0.00    -0.174 NA
HETATM    8  H   UNL     1      -7.537   3.195 -33.090  1.00  0.00     0.189 HD
HETATM    9  C   UNL     1      -6.017   0.534 -33.426  1.00  0.00     0.089 A 
HETATM   10  C   UNL     1      -4.998   1.325 -32.821  1.00  0.00     0.071 A 
BRANCH   9  11
HETATM   11  C   UNL     1      -5.951  -0.874 -33.834  1.00  0.00    -0.005 A 
HETATM   12  C   UNL     1      -4.723  -1.525 -34.005  1.00  0.00     0.016 A 
HETATM   13  C   UNL     1      -4.681  -2.876 -34.368  1.00  0.00     0.037 A 
HETATM   14  C   UNL     1      -5.856  -3.602 -34.563  1.00  0.00     0.068 A 
HETATM   15  C   UNL     1      -7.083  -2.959 -34.410  1.00  0.00     0.037 A 
HETATM   16  C   UNL     1      -7.127  -1.606 -34.050  1.00  0.00     0.016 A 
BRANCH  14  17
HETATM   17  O   UNL     1      -5.671  -4.914 -34.901  1.00  0.00    -0.356 OA
HETATM   18  C   UNL     1      -4.542  -5.567 -34.335  1.00  0.00     0.210 C 
ENDBRANCH  14  17
ENDBRANCH   9  11
ENDBRANCH   1   5
BRANCH   2  19
HETATM   19  N   UNL     1      -3.683   5.713 -32.280  1.00  0.00    -0.267 N 
HETATM   20  C   UNL     1      -2.325   5.909 -32.360  1.00  0.00     0.240 C 
HETATM   21  O   UNL     1      -1.555   5.120 -32.899  1.00  0.00    -0.271 OA
HETATM   22  H   UNL     1      -4.316   6.325 -31.769  1.00  0.00     0.190 HD
BRANCH  20  23
HETATM   23  C   UNL     1      -1.846   7.161 -31.716  1.00  0.00     0.089 A 
HETATM   24  C   UNL     1      -1.168   7.071 -30.357  1.00  0.00     0.034 A 
HETATM   25  C   UNL     1      -0.377   7.455 -31.587  1.00  0.00     0.025 A 
BRANCH  24  26
HETATM   26  C   UNL     1      -1.521   8.089 -29.290  1.00  0.00    -0.031 A 
HETATM   27  C   UNL     1      -0.596   8.522 -28.317  1.00  0.00     0.040 A 
HETATM   28 CL   UNL     1       1.017   7.893 -28.282  1.00  0.00    -0.084 Cl
HETATM   29  C   UNL     1      -0.939   9.474 -27.350  1.00  0.00     0.024 A 
HETATM   30  C   UNL     1      -2.219  10.024 -27.335  1.00  0.00     0.002 A 
HETATM   31  C   UNL     1      -3.148   9.627 -28.289  1.00  0.00     0.001 A 
HETATM   32  C   UNL     1      -2.799   8.678 -29.256  1.00  0.00     0.009 A 
ENDBRANCH  24  26
ENDBRANCH  20  23
ENDBRANCH   2  19
TORSDOF 6
ENDMDL
MODEL 10
REMARK VINA RESULT:      -7.4      8.781     12.309
REMARK  6 active torsions:
REMARK  status: ('A' for Active; 'I' for Inactive)
REMARK    1  A    between atoms: O_2  and  C_3 
REMARK    2  A    between atoms: C_6  and  C_7 
REMARK    3  A    between atoms: C_11  and  C_12 
REMARK       I    between atoms: C_12  and  N_13 
REMARK    4  A    between atoms: N_13  and  N_14 
REMARK       I    between atoms: N_14  and  C_15 
REMARK    5  A    between atoms: C_15  and  C_16 
REMARK    6  A    between atoms: C_17  and  C_18 
ROOT
HETATM    1  C   UNL     1     -10.566   2.889 -33.185  1.00  0.00     0.288 C 
HETATM    2  N   UNL     1     -10.571   3.486 -34.428  1.00  0.00    -0.262 N 
HETATM    3  O   UNL     1     -11.319   3.256 -32.285  1.00  0.00    -0.264 OA
HETATM    4  H   UNL     1      -9.969   3.209 -35.198  1.00  0.00     0.190 HD
ENDROOT
BRANCH   1   5
HETATM    5  C   UNL     1      -9.622   1.821 -33.014  1.00  0.00     0.121 A 
HETATM    6  N   UNL     1      -9.410   1.240 -31.796  1.00  0.00    -0.272 N 
HETATM    7  N   UNL     1      -8.476   0.279 -31.799  1.00  0.00    -0.174 NA
HETATM    8  H   UNL     1      -9.873   1.473 -30.923  1.00  0.00     0.189 HD
HETATM    9  C   UNL     1      -8.061   0.209 -33.074  1.00  0.00     0.089 A 
HETATM   10  C   UNL     1      -8.763   1.159 -33.871  1.00  0.00     0.071 A 
BRANCH   9  11
HETATM   11  C   UNL     1      -7.011  -0.726 -33.493  1.00  0.00    -0.005 A 
HETATM   12  C   UNL     1      -5.683  -0.559 -33.084  1.00  0.00     0.016 A 
HETATM   13  C   UNL     1      -4.700  -1.477 -33.472  1.00  0.00     0.037 A 
HETATM   14  C   UNL     1      -5.022  -2.576 -34.269  1.00  0.00     0.068 A 
HETATM   15  C   UNL     1      -6.338  -2.742 -34.694  1.00  0.00     0.037 A 
HETATM   16  C   UNL     1      -7.323  -1.823 -34.309  1.00  0.00     0.016 A 
BRANCH  14  17
HETATM   17  O   UNL     1      -3.971  -3.399 -34.563  1.00  0.00    -0.356 OA
HETATM   18  C   UNL     1      -3.708  -4.453 -33.645  1.00  0.00     0.210 C 
ENDBRANCH  14  17
ENDBRANCH   9  11
ENDBRANCH   1   5
BRANCH   2  19
HETATM   19  N   UNL     1     -11.445   4.549 -34.666  1.00  0.00    -0.267 N 
HETATM   20  C   UNL     1     -10.923   5.741 -35.110  1.00  0.00     0.240 C 
HETATM   21  O   UNL     1      -9.732   5.914 -35.352  1.00  0.00    -0.271 OA
HETATM   22  H   UNL     1     -12.417   4.423 -34.391  1.00  0.00     0.190 HD
BRANCH  20  23
HETATM   23  C   UNL     1     -11.922   6.832 -35.258  1.00  0.00     0.089 A 
HETATM   24  C   UNL     1     -12.586   7.038 -36.611  1.00  0.00     0.034 A 
HETATM   25  C   UNL     1     -13.384   6.529 -35.434  1.00  0.00     0.025 A 
BRANCH  24  26
HETATM   26  C   UNL     1     -12.760   8.450 -37.137  1.00  0.00    -0.031 A 
HETATM   27  C   UNL     1     -11.684   9.213 -37.638  1.00  0.00     0.040 A 
HETATM   28 CL   UNL     1     -10.077   8.569 -37.668  1.00  0.00    -0.084 Cl
HETATM   29  C   UNL     1     -11.870  10.509 -38.132  1.00  0.00     0.024 A 
HETATM   30  C   UNL     1     -13.143  11.076 -38.144  1.00  0.00     0.002 A 
HETATM   31  C   UNL     1     -14.225  10.344 -37.669  1.00  0.00     0.001 A 
HETATM   32  C   UNL     1     -14.034   9.048 -37.179  1.00  0.00     0.009 A 
ENDBRANCH  24  26
ENDBRANCH  20  23
ENDBRANCH   2  19
TORSDOF 6
ENDMDL
