MODEL 1
REMARK VINA RESULT:      -8.8      0.000      0.000
REMARK  8 active torsions:
REMARK  status: ('A' for Active; 'I' for Inactive)
REMARK    1  A    between atoms: C_2  and  N_3 
REMARK    2  A    between atoms: C_11  and  C_12 
REMARK    3  A    between atoms: C_14  and  O_15 
REMARK    4  A    between atoms: O_15  and  C_16 
REMARK    5  A    between atoms: C_18  and  O_19 
REMARK    6  A    between atoms: O_19  and  C_20 
REMARK    7  A    between atoms: C_20  and  C_21 
REMARK    8  A    between atoms: C_31  and  O_32 
ROOT
HETATM    1  N   UNL     1      -0.270   8.181 -26.496  1.00  0.00    -0.067 N 
HETATM    2  H   UNL     1      -0.473   8.453 -25.528  1.00  0.00     0.280 HD
HETATM    3  C   UNL     1      -1.553   8.469 -27.282  1.00  0.00     0.281 C 
HETATM    4  C   UNL     1      -1.548   7.747 -28.585  1.00  0.00     0.018 A 
HETATM    5  C   UNL     1      -0.737   6.667 -28.895  1.00  0.00    -0.024 A 
HETATM    6  C   UNL     1      -0.976   6.215 -30.231  1.00  0.00     0.057 A 
HETATM    7  C   UNL     1      -1.963   6.946 -30.842  1.00  0.00     0.087 A 
HETATM    8  N   UNL     1      -2.360   6.689 -32.102  1.00  0.00    -0.357 N 
HETATM    9  C   UNL     1      -2.079   5.346 -32.611  1.00  0.00     0.243 C 
HETATM   10  N   UNL     1      -0.809   4.742 -32.142  1.00  0.00    -0.235 NA
HETATM   11  C   UNL     1      -0.369   5.172 -31.017  1.00  0.00     0.173 C 
HETATM   12  S   UNL     1      -2.588   8.179 -29.860  1.00  0.00    -0.074 SA
HETATM   13  C   UNL     1       0.258   6.126 -27.911  1.00  0.00     0.068 C 
HETATM   14  C   UNL     1       0.011   6.677 -26.493  1.00  0.00     0.240 C 
HETATM   15  H   UNL     1      -3.211   7.117 -32.451  1.00  0.00     0.162 HD
ENDROOT
BRANCH   9  16
HETATM   16  C   UNL     1      -3.292   4.443 -32.350  1.00  0.00    -0.012 A 
HETATM   17  C   UNL     1      -3.159   3.162 -31.777  1.00  0.00     0.050 A 
HETATM   18  C   UNL     1      -4.278   2.377 -31.485  1.00  0.00     0.103 A 
HETATM   19  C   UNL     1      -5.555   2.887 -31.752  1.00  0.00     0.112 A 
HETATM   20  C   UNL     1      -5.715   4.138 -32.343  1.00  0.00     0.041 A 
HETATM   21  C   UNL     1      -4.588   4.897 -32.663  1.00  0.00     0.014 A 
BRANCH  18  22
HETATM   22  O   UNL     1      -4.218   1.139 -30.898  1.00  0.00    -0.349 OA
BRANCH  22  23
HETATM   23  C   UNL     1      -3.081   0.341 -31.231  1.00  0.00     0.171 C 
HETATM   24  C   UNL     1      -3.380  -0.380 -32.534  1.00  0.00     0.034 C 
ENDBRANCH  22  23
ENDBRANCH  18  22
BRANCH  19  25
HETATM   25  O   UNL     1      -6.651   2.113 -31.303  1.00  0.00    -0.272 OA
BRANCH  25  26
HETATM   26  C   UNL     1      -7.782   1.875 -32.066  1.00  0.00     0.298 C 
HETATM   27  O   UNL     1      -8.885   2.377 -31.930  1.00  0.00    -0.259 OA
BRANCH  26  28
HETATM   28  C   UNL     1      -7.468   0.828 -33.076  1.00  0.00     0.039 A 
HETATM   29  C   UNL     1      -7.569   1.166 -34.432  1.00  0.00     0.017 A 
HETATM   30  C   UNL     1      -7.310   0.210 -35.416  1.00  0.00     0.001 A 
HETATM   31  C   UNL     1      -6.940  -1.084 -35.051  1.00  0.00     0.000 A 
HETATM   32  C   UNL     1      -6.825  -1.425 -33.703  1.00  0.00     0.001 A 
HETATM   33  C   UNL     1      -7.088  -0.473 -32.715  1.00  0.00     0.017 A 
ENDBRANCH  26  28
ENDBRANCH  25  26
ENDBRANCH  19  25
ENDBRANCH   9  16
BRANCH  11  34
HETATM   34  O   UNL     1       0.749   4.619 -30.516  1.00  0.00    -0.344 OA
HETATM   35  H   UNL     1       1.478   5.226 -30.732  1.00  0.00     0.219 HD
ENDBRANCH  11  34
BRANCH   1  36
HETATM   36  C   UNL     1       0.875   9.058 -26.963  1.00  0.00     0.231 C 
HETATM   37  C   UNL     1       2.134   8.782 -26.161  1.00  0.00     0.034 C 
ENDBRANCH   1  36
TORSDOF 8
ENDMDL
MODEL 2
REMARK VINA RESULT:      -8.8      1.222      2.438
REMARK  8 active torsions:
REMARK  status: ('A' for Active; 'I' for Inactive)
REMARK    1  A    between atoms: C_2  and  N_3 
REMARK    2  A    between atoms: C_11  and  C_12 
REMARK    3  A    between atoms: C_14  and  O_15 
REMARK    4  A    between atoms: O_15  and  C_16 
REMARK    5  A    between atoms: C_18  and  O_19 
REMARK    6  A    between atoms: O_19  and  C_20 
REMARK    7  A    between atoms: C_20  and  C_21 
REMARK    8  A    between atoms: C_31  and  O_32 
ROOT
HETATM    1  N   UNL     1      -0.378   7.875 -26.628  1.00  0.00    -0.067 N 
HETATM    2  H   UNL     1      -0.597   8.059 -25.642  1.00  0.00     0.280 HD
HETATM    3  C   UNL     1      -1.672   8.158 -27.396  1.00  0.00     0.281 C 
HETATM    4  C   UNL     1      -1.627   7.540 -28.751  1.00  0.00     0.018 A 
HETATM    5  C   UNL     1      -0.761   6.531 -29.140  1.00  0.00    -0.024 A 
HETATM    6  C   UNL     1      -0.974   6.174 -30.508  1.00  0.00     0.057 A 
HETATM    7  C   UNL     1      -1.996   6.899 -31.066  1.00  0.00     0.087 A 
HETATM    8  N   UNL     1      -2.377   6.721 -32.345  1.00  0.00    -0.357 N 
HETATM    9  C   UNL     1      -2.025   5.438 -32.956  1.00  0.00     0.243 C 
HETATM   10  N   UNL     1      -0.727   4.866 -32.528  1.00  0.00    -0.235 NA
HETATM   11  C   UNL     1      -0.312   5.228 -31.370  1.00  0.00     0.173 C 
HETATM   12  S   UNL     1      -2.686   8.017 -29.995  1.00  0.00    -0.074 SA
HETATM   13  C   UNL     1       0.258   5.967 -28.195  1.00  0.00     0.068 C 
HETATM   14  C   UNL     1      -0.020   6.392 -26.740  1.00  0.00     0.240 C 
HETATM   15  H   UNL     1      -3.248   7.131 -32.665  1.00  0.00     0.162 HD
ENDROOT
BRANCH   9  16
HETATM   16  C   UNL     1      -3.191   4.456 -32.774  1.00  0.00    -0.012 A 
HETATM   17  C   UNL     1      -4.441   4.661 -33.391  1.00  0.00     0.050 A 
HETATM   18  C   UNL     1      -5.473   3.726 -33.270  1.00  0.00     0.103 A 
HETATM   19  C   UNL     1      -5.246   2.555 -32.535  1.00  0.00     0.112 A 
HETATM   20  C   UNL     1      -4.030   2.340 -31.892  1.00  0.00     0.041 A 
HETATM   21  C   UNL     1      -3.020   3.298 -31.991  1.00  0.00     0.014 A 
BRANCH  18  22
HETATM   22  O   UNL     1      -6.699   3.849 -33.873  1.00  0.00    -0.349 OA
BRANCH  22  23
HETATM   23  C   UNL     1      -7.403   5.066 -33.618  1.00  0.00     0.171 C 
HETATM   24  C   UNL     1      -7.988   4.985 -32.219  1.00  0.00     0.034 C 
ENDBRANCH  22  23
ENDBRANCH  18  22
BRANCH  19  25
HETATM   25  O   UNL     1      -6.272   1.581 -32.568  1.00  0.00    -0.272 OA
BRANCH  25  26
HETATM   26  C   UNL     1      -6.195   0.367 -31.906  1.00  0.00     0.298 C 
HETATM   27  O   UNL     1      -6.282   0.172 -30.705  1.00  0.00    -0.259 OA
BRANCH  26  28
HETATM   28  C   UNL     1      -5.914  -0.704 -32.900  1.00  0.00     0.039 A 
HETATM   29  C   UNL     1      -6.963  -1.136 -33.722  1.00  0.00     0.017 A 
HETATM   30  C   UNL     1      -6.754  -2.156 -34.652  1.00  0.00     0.001 A 
HETATM   31  C   UNL     1      -5.495  -2.745 -34.770  1.00  0.00     0.000 A 
HETATM   32  C   UNL     1      -4.442  -2.312 -33.964  1.00  0.00     0.001 A 
HETATM   33  C   UNL     1      -4.648  -1.295 -33.030  1.00  0.00     0.017 A 
ENDBRANCH  26  28
ENDBRANCH  25  26
ENDBRANCH  19  25
ENDBRANCH   9  16
BRANCH  11  34
HETATM   34  O   UNL     1       0.832   4.696 -30.907  1.00  0.00    -0.344 OA
HETATM   35  H   UNL     1       1.175   5.316 -30.239  1.00  0.00     0.219 HD
ENDBRANCH  11  34
BRANCH   1  36
HETATM   36  C   UNL     1       0.721   8.843 -27.017  1.00  0.00     0.231 C 
HETATM   37  C   UNL     1       1.975   8.604 -26.196  1.00  0.00     0.034 C 
ENDBRANCH   1  36
TORSDOF 8
ENDMDL
MODEL 3
REMARK VINA RESULT:      -8.6      3.451      9.068
REMARK  8 active torsions:
REMARK  status: ('A' for Active; 'I' for Inactive)
REMARK    1  A    between atoms: C_2  and  N_3 
REMARK    2  A    between atoms: C_11  and  C_12 
REMARK    3  A    between atoms: C_14  and  O_15 
REMARK    4  A    between atoms: O_15  and  C_16 
REMARK    5  A    between atoms: C_18  and  O_19 
REMARK    6  A    between atoms: O_19  and  C_20 
REMARK    7  A    between atoms: C_20  and  C_21 
REMARK    8  A    between atoms: C_31  and  O_32 
ROOT
HETATM    1  N   UNL     1      -5.735  -1.960 -34.722  1.00  0.00    -0.067 N 
HETATM    2  H   UNL     1      -5.366  -2.388 -35.579  1.00  0.00     0.280 HD
HETATM    3  C   UNL     1      -6.279  -0.592 -35.146  1.00  0.00     0.281 C 
HETATM    4  C   UNL     1      -6.456   0.295 -33.963  1.00  0.00     0.018 A 
HETATM    5  C   UNL     1      -5.860   0.106 -32.727  1.00  0.00    -0.024 A 
HETATM    6  C   UNL     1      -6.247   1.133 -31.810  1.00  0.00     0.057 A 
HETATM    7  C   UNL     1      -7.080   2.050 -32.401  1.00  0.00     0.087 A 
HETATM    8  N   UNL     1      -7.561   3.110 -31.725  1.00  0.00    -0.357 N 
HETATM    9  C   UNL     1      -6.809   3.522 -30.540  1.00  0.00     0.243 C 
HETATM   10  N   UNL     1      -6.194   2.420 -29.763  1.00  0.00    -0.235 NA
HETATM   11  C   UNL     1      -5.934   1.351 -30.421  1.00  0.00     0.173 C 
HETATM   12  S   UNL     1      -7.429   1.690 -34.020  1.00  0.00    -0.074 SA
HETATM   13  C   UNL     1      -4.964  -1.068 -32.461  1.00  0.00     0.068 C 
HETATM   14  C   UNL     1      -4.554  -1.776 -33.767  1.00  0.00     0.240 C 
HETATM   15  H   UNL     1      -8.013   3.860 -32.237  1.00  0.00     0.162 HD
ENDROOT
BRANCH   9  16
HETATM   16  C   UNL     1      -5.793   4.601 -30.937  1.00  0.00    -0.012 A 
HETATM   17  C   UNL     1      -5.469   4.861 -32.285  1.00  0.00     0.050 A 
HETATM   18  C   UNL     1      -4.592   5.890 -32.636  1.00  0.00     0.103 A 
HETATM   19  C   UNL     1      -4.041   6.689 -31.625  1.00  0.00     0.112 A 
HETATM   20  C   UNL     1      -4.321   6.437 -30.285  1.00  0.00     0.041 A 
HETATM   21  C   UNL     1      -5.172   5.384 -29.945  1.00  0.00     0.014 A 
BRANCH  18  22
HETATM   22  O   UNL     1      -4.263   6.215 -33.928  1.00  0.00    -0.349 OA
BRANCH  22  23
HETATM   23  C   UNL     1      -3.968   5.118 -34.794  1.00  0.00     0.171 C 
HETATM   24  C   UNL     1      -2.460   5.041 -34.957  1.00  0.00     0.034 C 
ENDBRANCH  22  23
ENDBRANCH  18  22
BRANCH  19  25
HETATM   25  O   UNL     1      -3.278   7.803 -32.047  1.00  0.00    -0.272 OA
BRANCH  25  26
HETATM   26  C   UNL     1      -1.987   7.704 -32.537  1.00  0.00     0.298 C 
HETATM   27  O   UNL     1      -1.580   8.068 -33.628  1.00  0.00    -0.259 OA
BRANCH  26  28
HETATM   28  C   UNL     1      -1.144   7.003 -31.532  1.00  0.00     0.039 A 
HETATM   29  C   UNL     1      -0.862   7.663 -30.329  1.00  0.00     0.017 A 
HETATM   30  C   UNL     1      -0.054   7.055 -29.366  1.00  0.00     0.001 A 
HETATM   31  C   UNL     1       0.469   5.783 -29.596  1.00  0.00     0.000 A 
HETATM   32  C   UNL     1       0.183   5.114 -30.786  1.00  0.00     0.001 A 
HETATM   33  C   UNL     1      -0.621   5.720 -31.754  1.00  0.00     0.017 A 
ENDBRANCH  26  28
ENDBRANCH  25  26
ENDBRANCH  19  25
ENDBRANCH   9  16
BRANCH  11  34
HETATM   34  O   UNL     1      -5.324   0.339 -29.780  1.00  0.00    -0.344 OA
HETATM   35  H   UNL     1      -5.015   0.698 -28.929  1.00  0.00     0.219 HD
ENDBRANCH  11  34
BRANCH   1  36
HETATM   36  C   UNL     1      -6.841  -2.867 -34.225  1.00  0.00     0.231 C 
HETATM   37  C   UNL     1      -6.785  -4.221 -34.909  1.00  0.00     0.034 C 
ENDBRANCH   1  36
TORSDOF 8
ENDMDL
MODEL 4
REMARK VINA RESULT:      -8.4      4.588     10.042
REMARK  8 active torsions:
REMARK  status: ('A' for Active; 'I' for Inactive)
REMARK    1  A    between atoms: C_2  and  N_3 
REMARK    2  A    between atoms: C_11  and  C_12 
REMARK    3  A    between atoms: C_14  and  O_15 
REMARK    4  A    between atoms: O_15  and  C_16 
REMARK    5  A    between atoms: C_18  and  O_19 
REMARK    6  A    between atoms: O_19  and  C_20 
REMARK    7  A    between atoms: C_20  and  C_21 
REMARK    8  A    between atoms: C_31  and  O_32 
ROOT
HETATM    1  N   UNL     1     -13.870   2.609 -33.983  1.00  0.00    -0.067 N 
HETATM    2  H   UNL     1     -14.614   3.075 -34.516  1.00  0.00     0.280 HD
HETATM    3  C   UNL     1     -13.191   3.715 -33.170  1.00  0.00     0.281 C 
HETATM    4  C   UNL     1     -11.855   3.269 -32.686  1.00  0.00     0.018 A 
HETATM    5  C   UNL     1     -11.134   2.204 -33.201  1.00  0.00    -0.024 A 
HETATM    6  C   UNL     1      -9.896   2.039 -32.504  1.00  0.00     0.057 A 
HETATM    7  C   UNL     1      -9.733   2.994 -31.532  1.00  0.00     0.087 A 
HETATM    8  N   UNL     1      -8.634   3.038 -30.757  1.00  0.00    -0.357 N 
HETATM    9  C   UNL     1      -7.439   2.378 -31.285  1.00  0.00     0.243 C 
HETATM   10  N   UNL     1      -7.689   1.148 -32.074  1.00  0.00    -0.235 NA
HETATM   11  C   UNL     1      -8.839   1.070 -32.635  1.00  0.00     0.173 C 
HETATM   12  S   UNL     1     -11.043   4.064 -31.419  1.00  0.00    -0.074 SA
HETATM   13  C   UNL     1     -11.671   1.364 -34.322  1.00  0.00     0.068 C 
HETATM   14  C   UNL     1     -12.884   2.031 -35.000  1.00  0.00     0.240 C 
HETATM   15  H   UNL     1      -8.461   3.859 -30.187  1.00  0.00     0.162 HD
ENDROOT
BRANCH   9  16
HETATM   16  C   UNL     1      -6.591   3.404 -32.047  1.00  0.00    -0.012 A 
HETATM   17  C   UNL     1      -6.107   4.576 -31.431  1.00  0.00     0.050 A 
HETATM   18  C   UNL     1      -5.281   5.471 -32.118  1.00  0.00     0.103 A 
HETATM   19  C   UNL     1      -4.915   5.180 -33.439  1.00  0.00     0.112 A 
HETATM   20  C   UNL     1      -5.401   4.044 -34.081  1.00  0.00     0.041 A 
HETATM   21  C   UNL     1      -6.254   3.178 -33.396  1.00  0.00     0.014 A 
BRANCH  18  22
HETATM   22  O   UNL     1      -4.750   6.609 -31.566  1.00  0.00    -0.349 OA
BRANCH  22  23
HETATM   23  C   UNL     1      -4.136   6.457 -30.286  1.00  0.00     0.171 C 
HETATM   24  C   UNL     1      -3.598   7.811 -29.859  1.00  0.00     0.034 C 
ENDBRANCH  22  23
ENDBRANCH  18  22
BRANCH  19  25
HETATM   25  O   UNL     1      -3.964   6.042 -34.034  1.00  0.00    -0.272 OA
BRANCH  25  26
HETATM   26  C   UNL     1      -2.671   5.656 -34.345  1.00  0.00     0.298 C 
HETATM   27  O   UNL     1      -2.280   5.149 -35.384  1.00  0.00    -0.259 OA
BRANCH  26  28
HETATM   28  C   UNL     1      -1.801   5.893 -33.161  1.00  0.00     0.039 A 
HETATM   29  C   UNL     1      -1.340   7.196 -32.931  1.00  0.00     0.017 A 
HETATM   30  C   UNL     1      -0.500   7.463 -31.847  1.00  0.00     0.001 A 
HETATM   31  C   UNL     1      -0.125   6.433 -30.985  1.00  0.00     0.000 A 
HETATM   32  C   UNL     1      -0.590   5.136 -31.201  1.00  0.00     0.001 A 
HETATM   33  C   UNL     1      -1.427   4.864 -32.286  1.00  0.00     0.017 A 
ENDBRANCH  26  28
ENDBRANCH  25  26
ENDBRANCH  19  25
ENDBRANCH   9  16
BRANCH  11  34
HETATM   34  O   UNL     1      -9.100   0.002 -33.409  1.00  0.00    -0.344 OA
HETATM   35  H   UNL     1     -10.068  -0.041 -33.502  1.00  0.00     0.219 HD
ENDBRANCH  11  34
BRANCH   1  36
HETATM   36  C   UNL     1     -14.549   1.596 -33.084  1.00  0.00     0.231 C 
HETATM   37  C   UNL     1     -15.422   2.284 -32.050  1.00  0.00     0.034 C 
ENDBRANCH   1  36
TORSDOF 8
ENDMDL
MODEL 5
REMARK VINA RESULT:      -8.0      3.114      9.294
REMARK  8 active torsions:
REMARK  status: ('A' for Active; 'I' for Inactive)
REMARK    1  A    between atoms: C_2  and  N_3 
REMARK    2  A    between atoms: C_11  and  C_12 
REMARK    3  A    between atoms: C_14  and  O_15 
REMARK    4  A    between atoms: O_15  and  C_16 
REMARK    5  A    between atoms: C_18  and  O_19 
REMARK    6  A    between atoms: O_19  and  C_20 
REMARK    7  A    between atoms: C_20  and  C_21 
REMARK    8  A    between atoms: C_31  and  O_32 
ROOT
HETATM    1  N   UNL     1      -6.841   2.003 -33.274  1.00  0.00    -0.067 N 
HETATM    2  H   UNL     1      -7.715   1.616 -32.898  1.00  0.00     0.280 HD
HETATM    3  C   UNL     1      -5.859   2.019 -32.098  1.00  0.00     0.281 C 
HETATM    4  C   UNL     1      -4.712   2.926 -32.381  1.00  0.00     0.018 A 
HETATM    5  C   UNL     1      -4.699   3.919 -33.348  1.00  0.00    -0.024 A 
HETATM    6  C   UNL     1      -3.441   4.600 -33.365  1.00  0.00     0.057 A 
HETATM    7  C   UNL     1      -2.592   4.114 -32.403  1.00  0.00     0.087 A 
HETATM    8  N   UNL     1      -1.354   4.615 -32.231  1.00  0.00    -0.357 N 
HETATM    9  C   UNL     1      -1.124   5.969 -32.738  1.00  0.00     0.243 C 
HETATM   10  N   UNL     1      -1.850   6.312 -33.984  1.00  0.00    -0.235 NA
HETATM   11  C   UNL     1      -2.931   5.658 -34.198  1.00  0.00     0.173 C 
HETATM   12  S   UNL     1      -3.258   2.843 -31.501  1.00  0.00    -0.074 SA
HETATM   13  C   UNL     1      -5.881   4.159 -34.239  1.00  0.00     0.068 C 
HETATM   14  C   UNL     1      -7.140   3.436 -33.721  1.00  0.00     0.240 C 
HETATM   15  H   UNL     1      -0.830   4.367 -31.399  1.00  0.00     0.162 HD
ENDROOT
BRANCH   9  16
HETATM   16  C   UNL     1      -1.377   6.979 -31.611  1.00  0.00    -0.012 A 
HETATM   17  C   UNL     1      -0.904   6.768 -30.300  1.00  0.00     0.050 A 
HETATM   18  C   UNL     1      -1.085   7.726 -29.299  1.00  0.00     0.103 A 
HETATM   19  C   UNL     1      -1.734   8.926 -29.616  1.00  0.00     0.112 A 
HETATM   20  C   UNL     1      -2.236   9.150 -30.896  1.00  0.00     0.041 A 
HETATM   21  C   UNL     1      -2.080   8.170 -31.877  1.00  0.00     0.014 A 
BRANCH  18  22
HETATM   22  O   UNL     1      -0.619   7.597 -28.015  1.00  0.00    -0.349 OA
BRANCH  22  23
HETATM   23  C   UNL     1       0.771   7.297 -27.880  1.00  0.00     0.171 C 
HETATM   24  C   UNL     1       1.526   8.611 -27.782  1.00  0.00     0.034 C 
ENDBRANCH  22  23
ENDBRANCH  18  22
BRANCH  19  25
HETATM   25  O   UNL     1      -1.760   9.916 -28.606  1.00  0.00    -0.272 OA
BRANCH  25  26
HETATM   26  C   UNL     1      -2.908  10.285 -27.926  1.00  0.00     0.298 C 
HETATM   27  O   UNL     1      -3.804  11.010 -28.326  1.00  0.00    -0.259 OA
BRANCH  26  28
HETATM   28  C   UNL     1      -2.864   9.702 -26.557  1.00  0.00     0.039 A 
HETATM   29  C   UNL     1      -3.992   9.010 -26.097  1.00  0.00     0.017 A 
HETATM   30  C   UNL     1      -4.007   8.468 -24.810  1.00  0.00     0.001 A 
HETATM   31  C   UNL     1      -2.894   8.608 -23.981  1.00  0.00     0.000 A 
HETATM   32  C   UNL     1      -1.763   9.285 -24.437  1.00  0.00     0.001 A 
HETATM   33  C   UNL     1      -1.745   9.832 -25.722  1.00  0.00     0.017 A 
ENDBRANCH  26  28
ENDBRANCH  25  26
ENDBRANCH  19  25
ENDBRANCH   9  16
BRANCH  11  34
HETATM   34  O   UNL     1      -3.660   5.968 -35.284  1.00  0.00    -0.344 OA
HETATM   35  H   UNL     1      -3.049   6.389 -35.915  1.00  0.00     0.219 HD
ENDBRANCH  11  34
BRANCH   1  36
HETATM   36  C   UNL     1      -6.383   1.060 -34.367  1.00  0.00     0.231 C 
HETATM   37  C   UNL     1      -7.568   0.445 -35.088  1.00  0.00     0.034 C 
ENDBRANCH   1  36
TORSDOF 8
ENDMDL
MODEL 6
REMARK VINA RESULT:      -8.0      2.993      9.532
REMARK  8 active torsions:
REMARK  status: ('A' for Active; 'I' for Inactive)
REMARK    1  A    between atoms: C_2  and  N_3 
REMARK    2  A    between atoms: C_11  and  C_12 
REMARK    3  A    between atoms: C_14  and  O_15 
REMARK    4  A    between atoms: O_15  and  C_16 
REMARK    5  A    between atoms: C_18  and  O_19 
REMARK    6  A    between atoms: O_19  and  C_20 
REMARK    7  A    between atoms: C_20  and  C_21 
REMARK    8  A    between atoms: C_31  and  O_32 
ROOT
HETATM    1  N   UNL     1      -7.700   1.241 -30.916  1.00  0.00    -0.067 N 
HETATM    2  H   UNL     1      -8.177   0.815 -30.112  1.00  0.00     0.280 HD
HETATM    3  C   UNL     1      -6.207   1.196 -30.578  1.00  0.00     0.281 C 
HETATM    4  C   UNL     1      -5.442   2.139 -31.441  1.00  0.00     0.018 A 
HETATM    5  C   UNL     1      -5.991   3.194 -32.153  1.00  0.00    -0.024 A 
HETATM    6  C   UNL     1      -4.983   3.896 -32.886  1.00  0.00     0.057 A 
HETATM    7  C   UNL     1      -3.738   3.363 -32.669  1.00  0.00     0.087 A 
HETATM    8  N   UNL     1      -2.637   3.872 -33.251  1.00  0.00    -0.357 N 
HETATM    9  C   UNL     1      -2.725   5.260 -33.707  1.00  0.00     0.243 C 
HETATM   10  N   UNL     1      -4.048   5.672 -34.234  1.00  0.00    -0.235 NA
HETATM   11  C   UNL     1      -5.054   5.015 -33.790  1.00  0.00     0.173 C 
HETATM   12  S   UNL     1      -3.755   2.024 -31.629  1.00  0.00    -0.074 SA
HETATM   13  C   UNL     1      -7.465   3.471 -32.128  1.00  0.00     0.068 C 
HETATM   14  C   UNL     1      -8.171   2.694 -31.000  1.00  0.00     0.240 C 
HETATM   15  H   UNL     1      -1.722   3.579 -32.924  1.00  0.00     0.162 HD
ENDROOT
BRANCH   9  16
HETATM   16  C   UNL     1      -2.217   6.190 -32.597  1.00  0.00    -0.012 A 
HETATM   17  C   UNL     1      -2.648   7.527 -32.489  1.00  0.00     0.050 A 
HETATM   18  C   UNL     1      -2.228   8.344 -31.435  1.00  0.00     0.103 A 
HETATM   19  C   UNL     1      -1.378   7.809 -30.459  1.00  0.00     0.112 A 
HETATM   20  C   UNL     1      -0.914   6.499 -30.555  1.00  0.00     0.041 A 
HETATM   21  C   UNL     1      -1.313   5.706 -31.632  1.00  0.00     0.014 A 
BRANCH  18  22
HETATM   22  O   UNL     1      -2.637   9.641 -31.255  1.00  0.00    -0.349 OA
BRANCH  22  23
HETATM   23  C   UNL     1      -3.932   9.815 -30.679  1.00  0.00     0.171 C 
HETATM   24  C   UNL     1      -3.831  10.894 -29.615  1.00  0.00     0.034 C 
ENDBRANCH  22  23
ENDBRANCH  18  22
BRANCH  19  25
HETATM   25  O   UNL     1      -1.103   8.632 -29.342  1.00  0.00    -0.272 OA
BRANCH  25  26
HETATM   26  C   UNL     1      -1.501   8.327 -28.051  1.00  0.00     0.298 C 
HETATM   27  O   UNL     1      -2.619   8.011 -27.676  1.00  0.00    -0.259 OA
BRANCH  26  28
HETATM   28  C   UNL     1      -0.342   8.509 -27.135  1.00  0.00     0.039 A 
HETATM   29  C   UNL     1       0.760   7.659 -27.287  1.00  0.00     0.017 A 
HETATM   30  C   UNL     1       1.861   7.775 -26.435  1.00  0.00     0.001 A 
HETATM   31  C   UNL     1       1.867   8.745 -25.434  1.00  0.00     0.000 A 
HETATM   32  C   UNL     1       0.779   9.604 -25.283  1.00  0.00     0.001 A 
HETATM   33  C   UNL     1      -0.326   9.488 -26.131  1.00  0.00     0.017 A 
ENDBRANCH  26  28
ENDBRANCH  25  26
ENDBRANCH  19  25
ENDBRANCH   9  16
BRANCH  11  34
HETATM   34  O   UNL     1      -6.284   5.383 -34.190  1.00  0.00    -0.344 OA
HETATM   35  H   UNL     1      -6.907   5.017 -33.538  1.00  0.00     0.219 HD
ENDBRANCH  11  34
BRANCH   1  36
HETATM   36  C   UNL     1      -8.023   0.379 -32.119  1.00  0.00     0.231 C 
HETATM   37  C   UNL     1      -9.519   0.332 -32.371  1.00  0.00     0.034 C 
ENDBRANCH   1  36
TORSDOF 8
ENDMDL
MODEL 7
REMARK VINA RESULT:      -7.8      3.883      9.674
REMARK  8 active torsions:
REMARK  status: ('A' for Active; 'I' for Inactive)
REMARK    1  A    between atoms: C_2  and  N_3 
REMARK    2  A    between atoms: C_11  and  C_12 
REMARK    3  A    between atoms: C_14  and  O_15 
REMARK    4  A    between atoms: O_15  and  C_16 
REMARK    5  A    between atoms: C_18  and  O_19 
REMARK    6  A    between atoms: O_19  and  C_20 
REMARK    7  A    between atoms: C_20  and  C_21 
REMARK    8  A    between atoms: C_31  and  O_32 
ROOT
HETATM    1  N   UNL     1     -11.982   2.470 -33.932  1.00  0.00    -0.067 N 
HETATM    2  H   UNL     1     -12.670   2.955 -34.520  1.00  0.00     0.280 HD
HETATM    3  C   UNL     1     -11.600   3.469 -32.836  1.00  0.00     0.281 C 
HETATM    4  C   UNL     1     -10.328   3.067 -32.174  1.00  0.00     0.018 A 
HETATM    5  C   UNL     1      -9.401   2.181 -32.699  1.00  0.00    -0.024 A 
HETATM    6  C   UNL     1      -8.297   2.008 -31.807  1.00  0.00     0.057 A 
HETATM    7  C   UNL     1      -8.429   2.784 -30.683  1.00  0.00     0.087 A 
HETATM    8  N   UNL     1      -7.500   2.788 -29.710  1.00  0.00    -0.357 N 
HETATM    9  C   UNL     1      -6.158   2.344 -30.090  1.00  0.00     0.243 C 
HETATM   10  N   UNL     1      -6.110   1.258 -31.097  1.00  0.00    -0.235 NA
HETATM   11  C   UNL     1      -7.122   1.177 -31.879  1.00  0.00     0.173 C 
HETATM   12  S   UNL     1      -9.859   3.693 -30.663  1.00  0.00    -0.074 SA
HETATM   13  C   UNL     1      -9.621   1.511 -34.023  1.00  0.00     0.068 C 
HETATM   14  C   UNL     1     -10.766   2.175 -34.813  1.00  0.00     0.240 C 
HETATM   15  H   UNL     1      -7.534   3.506 -28.994  1.00  0.00     0.162 HD
ENDROOT
BRANCH   9  16
HETATM   16  C   UNL     1      -5.320   3.563 -30.497  1.00  0.00    -0.012 A 
HETATM   17  C   UNL     1      -4.147   3.438 -31.268  1.00  0.00     0.050 A 
HETATM   18  C   UNL     1      -3.429   4.562 -31.688  1.00  0.00     0.103 A 
HETATM   19  C   UNL     1      -3.901   5.835 -31.347  1.00  0.00     0.112 A 
HETATM   20  C   UNL     1      -5.042   5.988 -30.562  1.00  0.00     0.041 A 
HETATM   21  C   UNL     1      -5.729   4.857 -30.120  1.00  0.00     0.014 A 
BRANCH  18  22
HETATM   22  O   UNL     1      -2.301   4.509 -32.467  1.00  0.00    -0.349 OA
BRANCH  22  23
HETATM   23  C   UNL     1      -2.517   4.454 -33.878  1.00  0.00     0.171 C 
HETATM   24  C   UNL     1      -1.480   5.341 -34.545  1.00  0.00     0.034 C 
ENDBRANCH  22  23
ENDBRANCH  18  22
BRANCH  19  25
HETATM   25  O   UNL     1      -3.219   6.935 -31.919  1.00  0.00    -0.272 OA
BRANCH  25  26
HETATM   26  C   UNL     1      -2.876   8.074 -31.210  1.00  0.00     0.298 C 
HETATM   27  O   UNL     1      -3.458   9.147 -31.206  1.00  0.00    -0.259 OA
BRANCH  26  28
HETATM   28  C   UNL     1      -1.608   7.819 -30.475  1.00  0.00     0.039 A 
HETATM   29  C   UNL     1      -1.472   8.350 -29.186  1.00  0.00     0.017 A 
HETATM   30  C   UNL     1      -0.291   8.158 -28.467  1.00  0.00     0.001 A 
HETATM   31  C   UNL     1       0.756   7.428 -29.028  1.00  0.00     0.000 A 
HETATM   32  C   UNL     1       0.625   6.885 -30.306  1.00  0.00     0.001 A 
HETATM   33  C   UNL     1      -0.554   7.078 -31.031  1.00  0.00     0.017 A 
ENDBRANCH  26  28
ENDBRANCH  25  26
ENDBRANCH  19  25
ENDBRANCH   9  16
BRANCH  11  34
HETATM   34  O   UNL     1      -7.107   0.246 -32.849  1.00  0.00    -0.344 OA
HETATM   35  H   UNL     1      -7.034  -0.616 -32.403  1.00  0.00     0.219 HD
ENDBRANCH  11  34
BRANCH   1  36
HETATM   36  C   UNL     1     -12.681   1.255 -33.356  1.00  0.00     0.231 C 
HETATM   37  C   UNL     1     -13.806   0.793 -34.263  1.00  0.00     0.034 C 
ENDBRANCH   1  36
TORSDOF 8
ENDMDL
MODEL 8
REMARK VINA RESULT:      -7.7      2.780      9.637
REMARK  8 active torsions:
REMARK  status: ('A' for Active; 'I' for Inactive)
REMARK    1  A    between atoms: C_2  and  N_3 
REMARK    2  A    between atoms: C_11  and  C_12 
REMARK    3  A    between atoms: C_14  and  O_15 
REMARK    4  A    between atoms: O_15  and  C_16 
REMARK    5  A    between atoms: C_18  and  O_19 
REMARK    6  A    between atoms: O_19  and  C_20 
REMARK    7  A    between atoms: C_20  and  C_21 
REMARK    8  A    between atoms: C_31  and  O_32 
ROOT
HETATM    1  N   UNL     1      -6.613  -0.369 -33.200  1.00  0.00    -0.067 N 
HETATM    2  H   UNL     1      -6.232  -1.199 -33.668  1.00  0.00     0.280 HD
HETATM    3  C   UNL     1      -5.933   0.830 -33.868  1.00  0.00     0.281 C 
HETATM    4  C   UNL     1      -6.068   2.051 -33.026  1.00  0.00     0.018 A 
HETATM    5  C   UNL     1      -6.383   2.059 -31.676  1.00  0.00    -0.024 A 
HETATM    6  C   UNL     1      -6.442   3.396 -31.172  1.00  0.00     0.057 A 
HETATM    7  C   UNL     1      -6.142   4.315 -32.145  1.00  0.00     0.087 A 
HETATM    8  N   UNL     1      -6.127   5.637 -31.892  1.00  0.00    -0.357 N 
HETATM    9  C   UNL     1      -5.954   6.029 -30.492  1.00  0.00     0.243 C 
HETATM   10  N   UNL     1      -6.594   5.135 -29.499  1.00  0.00    -0.235 NA
HETATM   11  C   UNL     1      -6.765   3.920 -29.870  1.00  0.00     0.173 C 
HETATM   12  S   UNL     1      -5.819   3.613 -33.654  1.00  0.00    -0.074 SA
HETATM   13  C   UNL     1      -6.645   0.786 -30.927  1.00  0.00     0.068 C 
HETATM   14  C   UNL     1      -6.195  -0.450 -31.730  1.00  0.00     0.240 C 
HETATM   15  H   UNL     1      -5.720   6.268 -32.574  1.00  0.00     0.162 HD
ENDROOT
BRANCH   9  16
HETATM   16  C   UNL     1      -4.461   6.251 -30.211  1.00  0.00    -0.012 A 
HETATM   17  C   UNL     1      -3.458   5.679 -31.019  1.00  0.00     0.050 A 
HETATM   18  C   UNL     1      -2.104   5.942 -30.791  1.00  0.00     0.103 A 
HETATM   19  C   UNL     1      -1.746   6.807 -29.750  1.00  0.00     0.112 A 
HETATM   20  C   UNL     1      -2.715   7.364 -28.918  1.00  0.00     0.041 A 
HETATM   21  C   UNL     1      -4.061   7.065 -29.134  1.00  0.00     0.014 A 
BRANCH  18  22
HETATM   22  O   UNL     1      -1.083   5.445 -31.560  1.00  0.00    -0.349 OA
BRANCH  22  23
HETATM   23  C   UNL     1      -1.278   5.502 -32.974  1.00  0.00     0.171 C 
HETATM   24  C   UNL     1      -1.003   6.925 -33.428  1.00  0.00     0.034 C 
ENDBRANCH  22  23
ENDBRANCH  18  22
BRANCH  19  25
HETATM   25  O   UNL     1      -0.377   7.151 -29.657  1.00  0.00    -0.272 OA
BRANCH  25  26
HETATM   26  C   UNL     1       0.487   6.606 -28.722  1.00  0.00     0.298 C 
HETATM   27  O   UNL     1       0.842   5.441 -28.633  1.00  0.00    -0.259 OA
BRANCH  26  28
HETATM   28  C   UNL     1       0.888   7.669 -27.762  1.00  0.00     0.039 A 
HETATM   29  C   UNL     1       1.634   7.296 -26.636  1.00  0.00     0.017 A 
HETATM   30  C   UNL     1       2.012   8.254 -25.693  1.00  0.00     0.001 A 
HETATM   31  C   UNL     1       1.653   9.590 -25.875  1.00  0.00     0.000 A 
HETATM   32  C   UNL     1       0.921   9.971 -26.999  1.00  0.00     0.001 A 
HETATM   33  C   UNL     1       0.538   9.015 -27.942  1.00  0.00     0.017 A 
ENDBRANCH  26  28
ENDBRANCH  25  26
ENDBRANCH  19  25
ENDBRANCH   9  16
BRANCH  11  34
HETATM   34  O   UNL     1      -7.289   3.051 -28.989  1.00  0.00    -0.344 OA
HETATM   35  H   UNL     1      -6.609   2.371 -28.834  1.00  0.00     0.219 HD
ENDBRANCH  11  34
BRANCH   1  36
HETATM   36  C   UNL     1      -8.107  -0.373 -33.455  1.00  0.00     0.231 C 
HETATM   37  C   UNL     1      -8.438   0.321 -34.763  1.00  0.00     0.034 C 
ENDBRANCH   1  36
TORSDOF 8
ENDMDL
MODEL 9
REMARK VINA RESULT:      -7.6      2.978      9.404
REMARK  8 active torsions:
REMARK  status: ('A' for Active; 'I' for Inactive)
REMARK    1  A    between atoms: C_2  and  N_3 
REMARK    2  A    between atoms: C_11  and  C_12 
REMARK    3  A    between atoms: C_14  and  O_15 
REMARK    4  A    between atoms: O_15  and  C_16 
REMARK    5  A    between atoms: C_18  and  O_19 
REMARK    6  A    between atoms: O_19  and  C_20 
REMARK    7  A    between atoms: C_20  and  C_21 
REMARK    8  A    between atoms: C_31  and  O_32 
ROOT
HETATM    1  N   UNL     1      -8.021   0.816 -31.216  1.00  0.00    -0.067 N 
HETATM    2  H   UNL     1      -8.475   0.322 -30.439  1.00  0.00     0.280 HD
HETATM    3  C   UNL     1      -6.524   0.803 -30.894  1.00  0.00     0.281 C 
HETATM    4  C   UNL     1      -5.801   1.827 -31.699  1.00  0.00     0.018 A 
HETATM    5  C   UNL     1      -6.394   2.906 -32.335  1.00  0.00    -0.024 A 
HETATM    6  C   UNL     1      -5.420   3.689 -33.029  1.00  0.00     0.057 A 
HETATM    7  C   UNL     1      -4.154   3.188 -32.857  1.00  0.00     0.087 A 
HETATM    8  N   UNL     1      -3.077   3.773 -33.413  1.00  0.00    -0.357 N 
HETATM    9  C   UNL     1      -3.219   5.184 -33.776  1.00  0.00     0.243 C 
HETATM   10  N   UNL     1      -4.560   5.582 -34.264  1.00  0.00    -0.235 NA
HETATM   11  C   UNL     1      -5.539   4.862 -33.856  1.00  0.00     0.173 C 
HETATM   12  S   UNL     1      -4.113   1.784 -31.908  1.00  0.00    -0.074 SA
HETATM   13  C   UNL     1      -7.877   3.129 -32.280  1.00  0.00     0.068 C 
HETATM   14  C   UNL     1      -8.543   2.254 -31.200  1.00  0.00     0.240 C 
HETATM   15  H   UNL     1      -2.150   3.492 -33.114  1.00  0.00     0.162 HD
ENDROOT
BRANCH   9  16
HETATM   16  C   UNL     1      -2.732   6.056 -32.611  1.00  0.00    -0.012 A 
HETATM   17  C   UNL     1      -1.406   5.997 -32.139  1.00  0.00     0.050 A 
HETATM   18  C   UNL     1      -0.958   6.843 -31.120  1.00  0.00     0.103 A 
HETATM   19  C   UNL     1      -1.846   7.779 -30.576  1.00  0.00     0.112 A 
HETATM   20  C   UNL     1      -3.170   7.841 -31.004  1.00  0.00     0.041 A 
HETATM   21  C   UNL     1      -3.614   6.966 -31.996  1.00  0.00     0.014 A 
BRANCH  18  22
HETATM   22  O   UNL     1       0.327   6.859 -30.640  1.00  0.00    -0.349 OA
BRANCH  22  23
HETATM   23  C   UNL     1       1.066   5.646 -30.790  1.00  0.00     0.171 C 
HETATM   24  C   UNL     1       0.858   4.811 -29.538  1.00  0.00     0.034 C 
ENDBRANCH  22  23
ENDBRANCH  18  22
BRANCH  19  25
HETATM   25  O   UNL     1      -1.301   8.704 -29.654  1.00  0.00    -0.272 OA
BRANCH  25  26
HETATM   26  C   UNL     1      -1.597   8.700 -28.301  1.00  0.00     0.298 C 
HETATM   27  O   UNL     1      -2.702   8.735 -27.785  1.00  0.00    -0.259 OA
BRANCH  26  28
HETATM   28  C   UNL     1      -0.324   8.715 -27.532  1.00  0.00     0.039 A 
HETATM   29  C   UNL     1       0.324   7.494 -27.301  1.00  0.00     0.017 A 
HETATM   30  C   UNL     1       1.508   7.455 -26.562  1.00  0.00     0.001 A 
HETATM   31  C   UNL     1       2.054   8.635 -26.057  1.00  0.00     0.000 A 
HETATM   32  C   UNL     1       1.422   9.856 -26.292  1.00  0.00     0.001 A 
HETATM   33  C   UNL     1       0.235   9.899 -27.028  1.00  0.00     0.017 A 
ENDBRANCH  26  28
ENDBRANCH  25  26
ENDBRANCH  19  25
ENDBRANCH   9  16
BRANCH  11  34
HETATM   34  O   UNL     1      -6.785   5.212 -34.221  1.00  0.00    -0.344 OA
HETATM   35  H   UNL     1      -6.691   5.955 -34.843  1.00  0.00     0.219 HD
ENDBRANCH  11  34
BRANCH   1  36
HETATM   36  C   UNL     1      -8.326   0.025 -32.471  1.00  0.00     0.231 C 
HETATM   37  C   UNL     1      -9.822  -0.045 -32.722  1.00  0.00     0.034 C 
ENDBRANCH   1  36
TORSDOF 8
ENDMDL
MODEL 10
REMARK VINA RESULT:      -7.6      4.016      9.945
REMARK  8 active torsions:
REMARK  status: ('A' for Active; 'I' for Inactive)
REMARK    1  A    between atoms: C_2  and  N_3 
REMARK    2  A    between atoms: C_11  and  C_12 
REMARK    3  A    between atoms: C_14  and  O_15 
REMARK    4  A    between atoms: O_15  and  C_16 
REMARK    5  A    between atoms: C_18  and  O_19 
REMARK    6  A    between atoms: O_19  and  C_20 
REMARK    7  A    between atoms: C_20  and  C_21 
REMARK    8  A    between atoms: C_31  and  O_32 
ROOT
HETATM    1  N   UNL     1     -12.354   2.563 -33.979  1.00  0.00    -0.067 N 
HETATM    2  H   UNL     1     -12.993   3.081 -34.594  1.00  0.00     0.280 HD
HETATM    3  C   UNL     1     -11.851   3.585 -32.956  1.00  0.00     0.281 C 
HETATM    4  C   UNL     1     -10.621   3.091 -32.277  1.00  0.00     0.018 A 
HETATM    5  C   UNL     1      -9.803   2.075 -32.746  1.00  0.00    -0.024 A 
HETATM    6  C   UNL     1      -8.713   1.840 -31.851  1.00  0.00     0.057 A 
HETATM    7  C   UNL     1      -8.744   2.700 -30.782  1.00  0.00     0.087 A 
HETATM    8  N   UNL     1      -7.806   2.666 -29.817  1.00  0.00    -0.357 N 
HETATM    9  C   UNL     1      -6.527   2.053 -30.175  1.00  0.00     0.243 C 
HETATM   10  N   UNL     1      -6.612   0.903 -31.106  1.00  0.00    -0.235 NA
HETATM   11  C   UNL     1      -7.638   0.883 -31.875  1.00  0.00     0.173 C 
HETATM   12  S   UNL     1     -10.066   3.760 -30.814  1.00  0.00    -0.074 SA
HETATM   13  C   UNL     1     -10.114   1.346 -34.021  1.00  0.00     0.068 C 
HETATM   14  C   UNL     1     -11.190   2.079 -34.846  1.00  0.00     0.240 C 
HETATM   15  H   UNL     1      -7.752   3.429 -29.151  1.00  0.00     0.162 HD
ENDROOT
BRANCH   9  16
HETATM   16  C   UNL     1      -5.566   3.142 -30.669  1.00  0.00    -0.012 A 
HETATM   17  C   UNL     1      -5.466   4.394 -30.029  1.00  0.00     0.050 A 
HETATM   18  C   UNL     1      -4.540   5.354 -30.450  1.00  0.00     0.103 A 
HETATM   19  C   UNL     1      -3.685   5.050 -31.517  1.00  0.00     0.112 A 
HETATM   20  C   UNL     1      -3.780   3.832 -32.185  1.00  0.00     0.041 A 
HETATM   21  C   UNL     1      -4.733   2.897 -31.778  1.00  0.00     0.014 A 
BRANCH  18  22
HETATM   22  O   UNL     1      -4.371   6.575 -29.850  1.00  0.00    -0.349 OA
BRANCH  22  23
HETATM   23  C   UNL     1      -5.531   7.139 -29.238  1.00  0.00     0.171 C 
HETATM   24  C   UNL     1      -5.681   8.565 -29.740  1.00  0.00     0.034 C 
ENDBRANCH  22  23
ENDBRANCH  18  22
BRANCH  19  25
HETATM   25  O   UNL     1      -2.674   5.998 -31.804  1.00  0.00    -0.272 OA
BRANCH  25  26
HETATM   26  C   UNL     1      -1.329   5.679 -31.891  1.00  0.00     0.298 C 
HETATM   27  O   UNL     1      -0.766   5.087 -32.797  1.00  0.00    -0.259 OA
BRANCH  26  28
HETATM   28  C   UNL     1      -0.650   6.118 -30.642  1.00  0.00     0.039 A 
HETATM   29  C   UNL     1       0.105   5.174 -29.933  1.00  0.00     0.017 A 
HETATM   30  C   UNL     1       0.740   5.533 -28.742  1.00  0.00     0.001 A 
HETATM   31  C   UNL     1       0.629   6.836 -28.258  1.00  0.00     0.000 A 
HETATM   32  C   UNL     1      -0.111   7.785 -28.964  1.00  0.00     0.001 A 
HETATM   33  C   UNL     1      -0.750   7.429 -30.154  1.00  0.00     0.017 A 
ENDBRANCH  26  28
ENDBRANCH  25  26
ENDBRANCH  19  25
ENDBRANCH   9  16
BRANCH  11  34
HETATM   34  O   UNL     1      -7.737  -0.107 -32.780  1.00  0.00    -0.344 OA
HETATM   35  H   UNL     1      -6.906  -0.610 -32.730  1.00  0.00     0.219 HD
ENDBRANCH  11  34
BRANCH   1  36
HETATM   36  C   UNL     1     -13.174   1.474 -33.318  1.00  0.00     0.231 C 
HETATM   37  C   UNL     1     -14.041   0.752 -34.334  1.00  0.00     0.034 C 
ENDBRANCH   1  36
TORSDOF 8
ENDMDL
