MODEL 1
REMARK VINA RESULT:      -8.2      0.000      0.000
REMARK  8 active torsions:
REMARK  status: ('A' for Active; 'I' for Inactive)
REMARK    1  A    between atoms: C_2  and  C_3 
REMARK    2  A    between atoms: C_6  and  C_7 
REMARK       I    between atoms: C_7  and  N_8 
REMARK    3  A    between atoms: C_12  and  O_13 
REMARK    4  A    between atoms: O_13  and  C_14 
REMARK    5  A    between atoms: C_14  and  C_15 
REMARK    6  A    between atoms: C_15  and  O_16 
REMARK    7  A    between atoms: C_18  and  N_19 
REMARK       I    between atoms: N_19  and  C_20 
REMARK    8  A    between atoms: C_20  and  C_21 
ROOT
HETATM    1  C   UNL     1      -6.246   0.162 -31.340  1.00  0.00     0.274 C 
HETATM    2  N   UNL     1      -5.508   1.355 -31.394  1.00  0.00    -0.347 N 
HETATM    3  C   UNL     1      -5.008   1.995 -32.612  1.00  0.00     0.127 C 
HETATM    4  C   UNL     1      -5.476   3.445 -32.681  1.00  0.00     0.037 C 
HETATM    5  C   UNL     1      -5.101   4.254 -31.420  1.00  0.00     0.019 C 
HETATM    6  C   UNL     1      -3.555   4.564 -31.296  1.00  0.00     0.162 C 
HETATM    7  C   UNL     1      -3.411   6.073 -30.906  1.00  0.00     0.148 C 
HETATM    8  C   UNL     1      -4.760   6.639 -31.239  1.00  0.00    -0.026 A 
HETATM    9  C   UNL     1      -5.705   5.645 -31.486  1.00  0.00    -0.038 A 
HETATM   10  C   UNL     1      -5.109   7.986 -31.263  1.00  0.00     0.010 A 
HETATM   11  C   UNL     1      -6.434   8.333 -31.529  1.00  0.00     0.001 A 
HETATM   12  C   UNL     1      -7.390   7.339 -31.758  1.00  0.00     0.001 A 
HETATM   13  C   UNL     1      -7.030   5.989 -31.738  1.00  0.00     0.009 A 
HETATM   14  C   UNL     1      -5.622   3.508 -30.170  1.00  0.00     0.037 C 
HETATM   15  C   UNL     1      -5.181   2.042 -30.148  1.00  0.00     0.127 C 
HETATM   16  O   UNL     1      -6.821  -0.178 -30.304  1.00  0.00    -0.266 OA
ENDROOT
BRANCH   6  17
HETATM   17  O   UNL     1      -2.897   4.299 -32.553  1.00  0.00    -0.380 OA
BRANCH  17  18
HETATM   18  C   UNL     1      -1.720   5.089 -32.744  1.00  0.00     0.194 C 
BRANCH  18  19
HETATM   19  C   UNL     1      -1.465   5.264 -34.238  1.00  0.00     0.193 C 
BRANCH  19  20
HETATM   20  O   UNL     1      -1.206   6.638 -34.518  1.00  0.00    -0.394 OA
HETATM   21  C   UNL     1      -1.523   7.470 -33.411  1.00  0.00     0.201 C 
ENDBRANCH  19  20
ENDBRANCH  18  19
ENDBRANCH  17  18
ENDBRANCH   6  17
BRANCH   7  22
HETATM   22  N   UNL     1      -3.110   6.324 -29.504  1.00  0.00    -0.350 N 
HETATM   23  C   UNL     1      -2.036   7.091 -29.127  1.00  0.00     0.221 C 
HETATM   24  O   UNL     1      -1.143   7.415 -29.904  1.00  0.00    -0.273 OA
HETATM   25  H   UNL     1      -3.871   6.205 -28.848  1.00  0.00     0.163 HD
BRANCH  23  26
HETATM   26  C   UNL     1      -2.049   7.576 -27.682  1.00  0.00     0.070 C 
HETATM   27  C   UNL     1      -3.452   7.435 -27.094  1.00  0.00     0.019 C 
HETATM   28  C   UNL     1      -1.010   6.863 -26.823  1.00  0.00     0.019 C 
ENDBRANCH  23  26
ENDBRANCH   7  22
BRANCH   1  29
HETATM   29  C   UNL     1      -6.367  -0.688 -32.536  1.00  0.00     0.154 A 
HETATM   30  N   UNL     1      -7.378  -0.606 -33.417  1.00  0.00    -0.123 NA
HETATM   31  O   UNL     1      -7.124  -1.553 -34.389  1.00  0.00    -0.217 OA
HETATM   32  C   UNL     1      -5.939  -2.169 -34.131  1.00  0.00     0.084 A 
HETATM   33  C   UNL     1      -5.408  -1.640 -32.981  1.00  0.00     0.075 A 
BRANCH  32  34
HETATM   34  C   UNL     1      -5.496  -3.228 -35.081  1.00  0.00     0.037 C 
HETATM   35  C   UNL     1      -6.593  -4.263 -35.325  1.00  0.00     0.016 C 
HETATM   36  C   UNL     1      -4.218  -3.902 -34.580  1.00  0.00     0.016 C 
ENDBRANCH  32  34
ENDBRANCH   1  29
TORSDOF 8
ENDMDL
MODEL 2
REMARK VINA RESULT:      -7.9      3.668      8.525
REMARK  8 active torsions:
REMARK  status: ('A' for Active; 'I' for Inactive)
REMARK    1  A    between atoms: C_2  and  C_3 
REMARK    2  A    between atoms: C_6  and  C_7 
REMARK       I    between atoms: C_7  and  N_8 
REMARK    3  A    between atoms: C_12  and  O_13 
REMARK    4  A    between atoms: O_13  and  C_14 
REMARK    5  A    between atoms: C_14  and  C_15 
REMARK    6  A    between atoms: C_15  and  O_16 
REMARK    7  A    between atoms: C_18  and  N_19 
REMARK       I    between atoms: N_19  and  C_20 
REMARK    8  A    between atoms: C_20  and  C_21 
ROOT
HETATM    1  C   UNL     1      -4.172   5.037 -33.274  1.00  0.00     0.274 C 
HETATM    2  N   UNL     1      -5.378   4.405 -32.932  1.00  0.00    -0.347 N 
HETATM    3  C   UNL     1      -5.691   3.810 -31.632  1.00  0.00     0.127 C 
HETATM    4  C   UNL     1      -6.992   4.389 -31.082  1.00  0.00     0.037 C 
HETATM    5  C   UNL     1      -8.172   4.249 -32.069  1.00  0.00     0.019 C 
HETATM    6  C   UNL     1      -8.688   2.765 -32.242  1.00  0.00     0.162 C 
HETATM    7  C   UNL     1     -10.251   2.802 -32.169  1.00  0.00     0.148 C 
HETATM    8  C   UNL     1     -10.529   4.142 -31.552  1.00  0.00    -0.026 A 
HETATM    9  C   UNL     1      -9.400   4.958 -31.528  1.00  0.00    -0.038 A 
HETATM   10  C   UNL     1     -11.758   4.600 -31.088  1.00  0.00     0.010 A 
HETATM   11  C   UNL     1     -11.851   5.904 -30.603  1.00  0.00     0.001 A 
HETATM   12  C   UNL     1     -10.725   6.734 -30.594  1.00  0.00     0.001 A 
HETATM   13  C   UNL     1      -9.493   6.264 -31.057  1.00  0.00     0.009 A 
HETATM   14  C   UNL     1      -7.763   4.860 -33.430  1.00  0.00     0.037 C 
HETATM   15  C   UNL     1      -6.432   4.300 -33.937  1.00  0.00     0.127 C 
HETATM   16  O   UNL     1      -4.082   5.709 -34.304  1.00  0.00    -0.266 OA
ENDROOT
BRANCH   6  17
HETATM   17  O   UNL     1      -8.150   1.930 -31.194  1.00  0.00    -0.380 OA
BRANCH  17  18
HETATM   18  C   UNL     1      -8.022   0.559 -31.582  1.00  0.00     0.194 C 
BRANCH  18  19
HETATM   19  C   UNL     1      -7.095   0.461 -32.789  1.00  0.00     0.193 C 
BRANCH  19  20
HETATM   20  O   UNL     1      -6.134  -0.570 -32.566  1.00  0.00    -0.394 OA
HETATM   21  C   UNL     1      -5.737  -1.191 -33.781  1.00  0.00     0.201 C 
ENDBRANCH  19  20
ENDBRANCH  18  19
ENDBRANCH  17  18
ENDBRANCH   6  17
BRANCH   7  22
HETATM   22  N   UNL     1     -10.933   2.706 -33.451  1.00  0.00    -0.350 N 
HETATM   23  C   UNL     1     -11.414   1.509 -33.919  1.00  0.00     0.221 C 
HETATM   24  O   UNL     1     -11.110   0.429 -33.424  1.00  0.00    -0.273 OA
HETATM   25  H   UNL     1     -11.325   3.561 -33.822  1.00  0.00     0.163 HD
BRANCH  23  26
HETATM   26  C   UNL     1     -12.412   1.606 -35.068  1.00  0.00     0.070 C 
HETATM   27  C   UNL     1     -13.810   1.230 -34.581  1.00  0.00     0.019 C 
HETATM   28  C   UNL     1     -12.402   2.980 -35.729  1.00  0.00     0.019 C 
ENDBRANCH  23  26
ENDBRANCH   7  22
BRANCH   1  29
HETATM   29  C   UNL     1      -3.003   4.931 -32.385  1.00  0.00     0.154 A 
HETATM   30  N   UNL     1      -2.300   3.801 -32.200  1.00  0.00    -0.123 NA
HETATM   31  O   UNL     1      -1.290   4.113 -31.312  1.00  0.00    -0.217 OA
HETATM   32  C   UNL     1      -1.344   5.436 -31.003  1.00  0.00     0.084 A 
HETATM   33  C   UNL     1      -2.397   6.005 -31.676  1.00  0.00     0.075 A 
BRANCH  32  34
HETATM   34  C   UNL     1      -0.323   5.960 -30.052  1.00  0.00     0.037 C 
HETATM   35  C   UNL     1       0.392   7.189 -30.613  1.00  0.00     0.016 C 
HETATM   36  C   UNL     1       0.684   4.869 -29.685  1.00  0.00     0.016 C 
ENDBRANCH  32  34
ENDBRANCH   1  29
TORSDOF 8
ENDMDL
MODEL 3
REMARK VINA RESULT:      -7.7      2.620      8.704
REMARK  8 active torsions:
REMARK  status: ('A' for Active; 'I' for Inactive)
REMARK    1  A    between atoms: C_2  and  C_3 
REMARK    2  A    between atoms: C_6  and  C_7 
REMARK       I    between atoms: C_7  and  N_8 
REMARK    3  A    between atoms: C_12  and  O_13 
REMARK    4  A    between atoms: O_13  and  C_14 
REMARK    5  A    between atoms: C_14  and  C_15 
REMARK    6  A    between atoms: C_15  and  O_16 
REMARK    7  A    between atoms: C_18  and  N_19 
REMARK       I    between atoms: N_19  and  C_20 
REMARK    8  A    between atoms: C_20  and  C_21 
ROOT
HETATM    1  C   UNL     1      -4.484   6.439 -28.043  1.00  0.00     0.274 C 
HETATM    2  N   UNL     1      -4.896   5.814 -29.230  1.00  0.00    -0.347 N 
HETATM    3  C   UNL     1      -4.241   5.938 -30.533  1.00  0.00     0.127 C 
HETATM    4  C   UNL     1      -3.905   4.559 -31.093  1.00  0.00     0.037 C 
HETATM    5  C   UNL     1      -5.136   3.628 -31.164  1.00  0.00     0.019 C 
HETATM    6  C   UNL     1      -6.180   4.034 -32.280  1.00  0.00     0.162 C 
HETATM    7  C   UNL     1      -6.583   2.726 -33.040  1.00  0.00     0.148 C 
HETATM    8  C   UNL     1      -5.498   1.763 -32.657  1.00  0.00    -0.026 A 
HETATM    9  C   UNL     1      -4.721   2.235 -31.600  1.00  0.00    -0.038 A 
HETATM   10  C   UNL     1      -5.271   0.508 -33.212  1.00  0.00     0.010 A 
HETATM   11  C   UNL     1      -4.252  -0.287 -32.686  1.00  0.00     0.001 A 
HETATM   12  C   UNL     1      -3.482   0.174 -31.613  1.00  0.00     0.001 A 
HETATM   13  C   UNL     1      -3.713   1.438 -31.065  1.00  0.00     0.009 A 
HETATM   14  C   UNL     1      -5.804   3.571 -29.770  1.00  0.00     0.037 C 
HETATM   15  C   UNL     1      -6.085   4.967 -29.208  1.00  0.00     0.127 C 
HETATM   16  O   UNL     1      -4.951   6.097 -26.954  1.00  0.00    -0.266 OA
ENDROOT
BRANCH   6  17
HETATM   17  O   UNL     1      -5.586   4.986 -33.188  1.00  0.00    -0.380 OA
BRANCH  17  18
HETATM   18  C   UNL     1      -5.348   4.443 -34.490  1.00  0.00     0.194 C 
BRANCH  18  19
HETATM   19  C   UNL     1      -4.079   5.060 -35.070  1.00  0.00     0.193 C 
BRANCH  19  20
HETATM   20  O   UNL     1      -3.664   6.151 -34.250  1.00  0.00    -0.394 OA
HETATM   21  C   UNL     1      -2.252   6.308 -34.258  1.00  0.00     0.201 C 
ENDBRANCH  19  20
ENDBRANCH  18  19
ENDBRANCH  17  18
ENDBRANCH   6  17
BRANCH   7  22
HETATM   22  N   UNL     1      -7.877   2.171 -32.673  1.00  0.00    -0.350 N 
HETATM   23  C   UNL     1      -9.006   2.435 -33.409  1.00  0.00     0.221 C 
HETATM   24  O   UNL     1      -9.054   3.317 -34.260  1.00  0.00    -0.273 OA
HETATM   25  H   UNL     1      -7.869   1.349 -32.084  1.00  0.00     0.163 HD
BRANCH  23  26
HETATM   26  C   UNL     1     -10.193   1.516 -33.145  1.00  0.00     0.070 C 
HETATM   27  C   UNL     1     -11.134   1.517 -34.348  1.00  0.00     0.019 C 
HETATM   28  C   UNL     1      -9.759   0.101 -32.777  1.00  0.00     0.019 C 
ENDBRANCH  23  26
ENDBRANCH   7  22
BRANCH   1  29
HETATM   29  C   UNL     1      -3.459   7.495 -28.080  1.00  0.00     0.154 A 
HETATM   30  N   UNL     1      -3.720   8.787 -28.342  1.00  0.00    -0.123 NA
HETATM   31  O   UNL     1      -2.511   9.450 -28.275  1.00  0.00    -0.217 OA
HETATM   32  C   UNL     1      -1.530   8.578 -27.919  1.00  0.00     0.084 A 
HETATM   33  C   UNL     1      -2.083   7.331 -27.760  1.00  0.00     0.075 A 
BRANCH  32  34
HETATM   34  C   UNL     1      -0.146   9.117 -27.794  1.00  0.00     0.037 C 
HETATM   35  C   UNL     1       0.896   8.123 -28.306  1.00  0.00     0.016 C 
HETATM   36  C   UNL     1       0.149   9.514 -26.347  1.00  0.00     0.016 C 
ENDBRANCH  32  34
ENDBRANCH   1  29
TORSDOF 8
ENDMDL
MODEL 4
REMARK VINA RESULT:      -7.2      2.440      8.853
REMARK  8 active torsions:
REMARK  status: ('A' for Active; 'I' for Inactive)
REMARK    1  A    between atoms: C_2  and  C_3 
REMARK    2  A    between atoms: C_6  and  C_7 
REMARK       I    between atoms: C_7  and  N_8 
REMARK    3  A    between atoms: C_12  and  O_13 
REMARK    4  A    between atoms: O_13  and  C_14 
REMARK    5  A    between atoms: C_14  and  C_15 
REMARK    6  A    between atoms: C_15  and  O_16 
REMARK    7  A    between atoms: C_18  and  N_19 
REMARK       I    between atoms: N_19  and  C_20 
REMARK    8  A    between atoms: C_20  and  C_21 
ROOT
HETATM    1  C   UNL     1      -4.319   6.319 -28.669  1.00  0.00     0.274 C 
HETATM    2  N   UNL     1      -4.628   5.557 -29.806  1.00  0.00    -0.347 N 
HETATM    3  C   UNL     1      -3.813   5.461 -31.018  1.00  0.00     0.127 C 
HETATM    4  C   UNL     1      -3.512   4.000 -31.342  1.00  0.00     0.037 C 
HETATM    5  C   UNL     1      -4.789   3.138 -31.449  1.00  0.00     0.019 C 
HETATM    6  C   UNL     1      -5.658   3.439 -32.735  1.00  0.00     0.162 C 
HETATM    7  C   UNL     1      -6.059   2.062 -33.360  1.00  0.00     0.148 C 
HETATM    8  C   UNL     1      -5.100   1.104 -32.715  1.00  0.00    -0.026 A 
HETATM    9  C   UNL     1      -4.425   1.677 -31.639  1.00  0.00    -0.038 A 
HETATM   10  C   UNL     1      -4.899  -0.227 -33.065  1.00  0.00     0.010 A 
HETATM   11  C   UNL     1      -4.011  -0.995 -32.311  1.00  0.00     0.001 A 
HETATM   12  C   UNL     1      -3.346  -0.430 -31.217  1.00  0.00     0.001 A 
HETATM   13  C   UNL     1      -3.550   0.909 -30.877  1.00  0.00     0.009 A 
HETATM   14  C   UNL     1      -5.623   3.314 -30.158  1.00  0.00     0.037 C 
HETATM   15  C   UNL     1      -5.869   4.788 -29.827  1.00  0.00     0.127 C 
HETATM   16  O   UNL     1      -4.939   6.160 -27.615  1.00  0.00    -0.266 OA
ENDROOT
BRANCH   6  17
HETATM   17  O   UNL     1      -4.892   4.221 -33.676  1.00  0.00    -0.380 OA
BRANCH  17  18
HETATM   18  C   UNL     1      -5.611   5.349 -34.181  1.00  0.00     0.194 C 
BRANCH  18  19
HETATM   19  C   UNL     1      -6.794   5.646 -33.264  1.00  0.00     0.193 C 
BRANCH  19  20
HETATM   20  O   UNL     1      -6.561   6.872 -32.573  1.00  0.00    -0.394 OA
HETATM   21  C   UNL     1      -7.717   7.309 -31.873  1.00  0.00     0.201 C 
ENDBRANCH  19  20
ENDBRANCH  18  19
ENDBRANCH  17  18
ENDBRANCH   6  17
BRANCH   7  22
HETATM   22  N   UNL     1      -7.425   1.635 -33.094  1.00  0.00    -0.350 N 
HETATM   23  C   UNL     1      -8.138   0.902 -34.010  1.00  0.00     0.221 C 
HETATM   24  O   UNL     1      -7.779   0.758 -35.174  1.00  0.00    -0.273 OA
HETATM   25  H   UNL     1      -7.710   1.603 -32.125  1.00  0.00     0.163 HD
BRANCH  23  26
HETATM   26  C   UNL     1      -9.389   0.216 -33.471  1.00  0.00     0.070 C 
HETATM   27  C   UNL     1      -9.278   0.035 -31.959  1.00  0.00     0.019 C 
HETATM   28  C   UNL     1     -10.666   0.957 -33.853  1.00  0.00     0.019 C 
ENDBRANCH  23  26
ENDBRANCH   7  22
BRANCH   1  29
HETATM   29  C   UNL     1      -3.225   7.302 -28.713  1.00  0.00     0.154 A 
HETATM   30  N   UNL     1      -3.267   8.445 -29.419  1.00  0.00    -0.123 NA
HETATM   31  O   UNL     1      -2.066   9.087 -29.193  1.00  0.00    -0.217 OA
HETATM   32  C   UNL     1      -1.322   8.368 -28.312  1.00  0.00     0.084 A 
HETATM   33  C   UNL     1      -2.020   7.241 -27.958  1.00  0.00     0.075 A 
BRANCH  32  34
HETATM   34  C   UNL     1       0.017   8.911 -27.943  1.00  0.00     0.037 C 
HETATM   35  C   UNL     1       1.122   7.874 -28.145  1.00  0.00     0.016 C 
HETATM   36  C   UNL     1       0.013   9.424 -26.503  1.00  0.00     0.016 C 
ENDBRANCH  32  34
ENDBRANCH   1  29
TORSDOF 8
ENDMDL
MODEL 5
REMARK VINA RESULT:      -7.1      2.017      2.535
REMARK  8 active torsions:
REMARK  status: ('A' for Active; 'I' for Inactive)
REMARK    1  A    between atoms: C_2  and  C_3 
REMARK    2  A    between atoms: C_6  and  C_7 
REMARK       I    between atoms: C_7  and  N_8 
REMARK    3  A    between atoms: C_12  and  O_13 
REMARK    4  A    between atoms: O_13  and  C_14 
REMARK    5  A    between atoms: C_14  and  C_15 
REMARK    6  A    between atoms: C_15  and  O_16 
REMARK    7  A    between atoms: C_18  and  N_19 
REMARK       I    between atoms: N_19  and  C_20 
REMARK    8  A    between atoms: C_20  and  C_21 
ROOT
HETATM    1  C   UNL     1      -5.196   0.789 -30.774  1.00  0.00     0.274 C 
HETATM    2  N   UNL     1      -5.153   2.143 -31.139  1.00  0.00    -0.347 N 
HETATM    3  C   UNL     1      -5.029   2.656 -32.504  1.00  0.00     0.127 C 
HETATM    4  C   UNL     1      -6.159   3.635 -32.810  1.00  0.00     0.037 C 
HETATM    5  C   UNL     1      -6.249   4.782 -31.780  1.00  0.00     0.019 C 
HETATM    6  C   UNL     1      -5.066   5.826 -31.881  1.00  0.00     0.162 C 
HETATM    7  C   UNL     1      -5.699   7.256 -31.814  1.00  0.00     0.148 C 
HETATM    8  C   UNL     1      -7.147   7.001 -32.109  1.00  0.00    -0.026 A 
HETATM    9  C   UNL     1      -7.467   5.645 -32.055  1.00  0.00    -0.038 A 
HETATM   10  C   UNL     1      -8.122   7.960 -32.362  1.00  0.00     0.010 A 
HETATM   11  C   UNL     1      -9.441   7.546 -32.552  1.00  0.00     0.001 A 
HETATM   12  C   UNL     1      -9.771   6.189 -32.480  1.00  0.00     0.001 A 
HETATM   13  C   UNL     1      -8.784   5.231 -32.231  1.00  0.00     0.009 A 
HETATM   14  C   UNL     1      -6.338   4.176 -30.360  1.00  0.00     0.037 C 
HETATM   15  C   UNL     1      -5.224   3.161 -30.095  1.00  0.00     0.127 C 
HETATM   16  O   UNL     1      -5.534   0.452 -29.637  1.00  0.00    -0.266 OA
ENDROOT
BRANCH   6  17
HETATM   17  O   UNL     1      -4.352   5.644 -33.122  1.00  0.00    -0.380 OA
BRANCH  17  18
HETATM   18  C   UNL     1      -2.953   5.920 -33.008  1.00  0.00     0.194 C 
BRANCH  18  19
HETATM   19  C   UNL     1      -2.168   4.620 -33.154  1.00  0.00     0.193 C 
BRANCH  19  20
HETATM   20  O   UNL     1      -1.723   4.188 -31.869  1.00  0.00    -0.394 OA
HETATM   21  C   UNL     1      -1.263   5.275 -31.079  1.00  0.00     0.201 C 
ENDBRANCH  19  20
ENDBRANCH  18  19
ENDBRANCH  17  18
ENDBRANCH   6  17
BRANCH   7  22
HETATM   22  N   UNL     1      -5.576   7.928 -30.528  1.00  0.00    -0.350 N 
HETATM   23  C   UNL     1      -4.840   9.078 -30.387  1.00  0.00     0.221 C 
HETATM   24  O   UNL     1      -4.064   9.482 -31.247  1.00  0.00    -0.273 OA
HETATM   25  H   UNL     1      -6.288   7.725 -29.840  1.00  0.00     0.163 HD
BRANCH  23  26
HETATM   26  C   UNL     1      -5.093   9.867 -29.108  1.00  0.00     0.070 C 
HETATM   27  C   UNL     1      -6.570   9.795 -28.729  1.00  0.00     0.019 C 
HETATM   28  C   UNL     1      -4.199   9.410 -27.959  1.00  0.00     0.019 C 
ENDBRANCH  23  26
ENDBRANCH   7  22
BRANCH   1  29
HETATM   29  C   UNL     1      -4.866  -0.254 -31.759  1.00  0.00     0.154 A 
HETATM   30  N   UNL     1      -3.681  -0.885 -31.818  1.00  0.00    -0.123 NA
HETATM   31  O   UNL     1      -3.772  -1.787 -32.860  1.00  0.00    -0.217 OA
HETATM   32  C   UNL     1      -5.021  -1.744 -33.394  1.00  0.00     0.084 A 
HETATM   33  C   UNL     1      -5.761  -0.807 -32.717  1.00  0.00     0.075 A 
BRANCH  32  34
HETATM   34  C   UNL     1      -5.309  -2.657 -34.537  1.00  0.00     0.037 C 
HETATM   35  C   UNL     1      -6.801  -2.971 -34.647  1.00  0.00     0.016 C 
HETATM   36  C   UNL     1      -4.492  -3.944 -34.420  1.00  0.00     0.016 C 
ENDBRANCH  32  34
ENDBRANCH   1  29
TORSDOF 8
ENDMDL
MODEL 6
REMARK VINA RESULT:      -7.0      4.109      9.281
REMARK  8 active torsions:
REMARK  status: ('A' for Active; 'I' for Inactive)
REMARK    1  A    between atoms: C_2  and  C_3 
REMARK    2  A    between atoms: C_6  and  C_7 
REMARK       I    between atoms: C_7  and  N_8 
REMARK    3  A    between atoms: C_12  and  O_13 
REMARK    4  A    between atoms: O_13  and  C_14 
REMARK    5  A    between atoms: C_14  and  C_15 
REMARK    6  A    between atoms: C_15  and  O_16 
REMARK    7  A    between atoms: C_18  and  N_19 
REMARK       I    between atoms: N_19  and  C_20 
REMARK    8  A    between atoms: C_20  and  C_21 
ROOT
HETATM    1  C   UNL     1      -6.765   5.492 -29.392  1.00  0.00     0.274 C 
HETATM    2  N   UNL     1      -7.344   4.989 -30.568  1.00  0.00    -0.347 N 
HETATM    3  C   UNL     1      -6.937   5.327 -31.932  1.00  0.00     0.127 C 
HETATM    4  C   UNL     1      -6.628   4.059 -32.724  1.00  0.00     0.037 C 
HETATM    5  C   UNL     1      -7.798   3.051 -32.715  1.00  0.00     0.019 C 
HETATM    6  C   UNL     1      -9.043   3.509 -33.574  1.00  0.00     0.162 C 
HETATM    7  C   UNL     1      -9.499   2.278 -34.428  1.00  0.00     0.148 C 
HETATM    8  C   UNL     1      -8.311   1.364 -34.367  1.00  0.00    -0.026 A 
HETATM    9  C   UNL     1      -7.388   1.760 -33.401  1.00  0.00    -0.038 A 
HETATM   10  C   UNL     1      -8.115   0.210 -35.119  1.00  0.00     0.010 A 
HETATM   11  C   UNL     1      -6.977  -0.561 -34.884  1.00  0.00     0.001 A 
HETATM   12  C   UNL     1      -6.056  -0.178 -33.902  1.00  0.00     0.001 A 
HETATM   13  C   UNL     1      -6.259   0.985 -33.156  1.00  0.00     0.009 A 
HETATM   14  C   UNL     1      -8.205   2.767 -31.250  1.00  0.00     0.037 C 
HETATM   15  C   UNL     1      -8.461   4.055 -30.463  1.00  0.00     0.127 C 
HETATM   16  O   UNL     1      -7.013   4.981 -28.298  1.00  0.00    -0.266 OA
ENDROOT
BRANCH   6  17
HETATM   17  O   UNL     1      -8.674   4.611 -34.430  1.00  0.00    -0.380 OA
BRANCH  17  18
HETATM   18  C   UNL     1      -9.694   5.609 -34.528  1.00  0.00     0.194 C 
BRANCH  18  19
HETATM   19  C   UNL     1     -10.470   5.668 -33.215  1.00  0.00     0.193 C 
BRANCH  19  20
HETATM   20  O   UNL     1     -10.324   6.964 -32.636  1.00  0.00    -0.394 OA
HETATM   21  C   UNL     1     -10.615   6.955 -31.246  1.00  0.00     0.201 C 
ENDBRANCH  19  20
ENDBRANCH  18  19
ENDBRANCH  17  18
ENDBRANCH   6  17
BRANCH   7  22
HETATM   22  N   UNL     1     -10.675   1.581 -33.929  1.00  0.00    -0.350 N 
HETATM   23  C   UNL     1     -11.934   1.873 -34.393  1.00  0.00     0.221 C 
HETATM   24  O   UNL     1     -12.181   2.871 -35.064  1.00  0.00    -0.273 OA
HETATM   25  H   UNL     1     -10.520   0.681 -33.495  1.00  0.00     0.163 HD
BRANCH  23  26
HETATM   26  C   UNL     1     -13.009   0.841 -34.074  1.00  0.00     0.070 C 
HETATM   27  C   UNL     1     -12.383  -0.376 -33.396  1.00  0.00     0.019 C 
HETATM   28  C   UNL     1     -14.143   1.425 -33.238  1.00  0.00     0.019 C 
ENDBRANCH  23  26
ENDBRANCH   7  22
BRANCH   1  29
HETATM   29  C   UNL     1      -5.825   6.623 -29.455  1.00  0.00     0.154 A 
HETATM   30  N   UNL     1      -6.169   7.901 -29.223  1.00  0.00    -0.123 NA
HETATM   31  O   UNL     1      -5.016   8.646 -29.370  1.00  0.00    -0.217 OA
HETATM   32  C   UNL     1      -3.968   7.822 -29.635  1.00  0.00     0.084 A 
HETATM   33  C   UNL     1      -4.422   6.527 -29.675  1.00  0.00     0.075 A 
BRANCH  32  34
HETATM   34  C   UNL     1      -2.631   8.452 -29.824  1.00  0.00     0.037 C 
HETATM   35  C   UNL     1      -2.313   8.669 -31.303  1.00  0.00     0.016 C 
HETATM   36  C   UNL     1      -1.540   7.617 -29.153  1.00  0.00     0.016 C 
ENDBRANCH  32  34
ENDBRANCH   1  29
TORSDOF 8
ENDMDL
MODEL 7
REMARK VINA RESULT:      -6.9     17.555     20.118
REMARK  8 active torsions:
REMARK  status: ('A' for Active; 'I' for Inactive)
REMARK    1  A    between atoms: C_2  and  C_3 
REMARK    2  A    between atoms: C_6  and  C_7 
REMARK       I    between atoms: C_7  and  N_8 
REMARK    3  A    between atoms: C_12  and  O_13 
REMARK    4  A    between atoms: O_13  and  C_14 
REMARK    5  A    between atoms: C_14  and  C_15 
REMARK    6  A    between atoms: C_15  and  O_16 
REMARK    7  A    between atoms: C_18  and  N_19 
REMARK       I    between atoms: N_19  and  C_20 
REMARK    8  A    between atoms: C_20  and  C_21 
ROOT
HETATM    1  C   UNL     1      -9.073 -16.601 -40.245  1.00  0.00     0.274 C 
HETATM    2  N   UNL     1      -8.150 -15.684 -39.719  1.00  0.00    -0.347 N 
HETATM    3  C   UNL     1      -8.403 -14.264 -39.472  1.00  0.00     0.127 C 
HETATM    4  C   UNL     1      -8.076 -13.909 -38.024  1.00  0.00     0.037 C 
HETATM    5  C   UNL     1      -6.638 -14.307 -37.623  1.00  0.00     0.019 C 
HETATM    6  C   UNL     1      -5.518 -13.413 -38.292  1.00  0.00     0.162 C 
HETATM    7  C   UNL     1      -4.496 -13.029 -37.170  1.00  0.00     0.148 C 
HETATM    8  C   UNL     1      -5.254 -13.319 -35.907  1.00  0.00    -0.026 A 
HETATM    9  C   UNL     1      -6.414 -14.054 -36.143  1.00  0.00    -0.038 A 
HETATM   10  C   UNL     1      -4.872 -12.971 -34.615  1.00  0.00     0.010 A 
HETATM   11  C   UNL     1      -5.668 -13.381 -33.545  1.00  0.00     0.001 A 
HETATM   12  C   UNL     1      -6.824 -14.135 -33.775  1.00  0.00     0.001 A 
HETATM   13  C   UNL     1      -7.202 -14.475 -35.077  1.00  0.00     0.009 A 
HETATM   14  C   UNL     1      -6.423 -15.804 -37.944  1.00  0.00     0.037 C 
HETATM   15  C   UNL     1      -6.805 -16.145 -39.387  1.00  0.00     0.127 C 
HETATM   16  O   UNL     1      -8.853 -17.814 -40.201  1.00  0.00    -0.266 OA
ENDROOT
BRANCH   6  17
HETATM   17  O   UNL     1      -6.110 -12.228 -38.866  1.00  0.00    -0.380 OA
BRANCH  17  18
HETATM   18  C   UNL     1      -5.591 -11.919 -40.163  1.00  0.00     0.194 C 
BRANCH  18  19
HETATM   19  C   UNL     1      -5.028 -13.187 -40.798  1.00  0.00     0.193 C 
BRANCH  19  20
HETATM   20  O   UNL     1      -5.810 -13.533 -41.941  1.00  0.00    -0.394 OA
HETATM   21  C   UNL     1      -5.062 -14.293 -42.879  1.00  0.00     0.201 C 
ENDBRANCH  19  20
ENDBRANCH  18  19
ENDBRANCH  17  18
ENDBRANCH   6  17
BRANCH   7  22
HETATM   22  N   UNL     1      -3.255 -13.789 -37.177  1.00  0.00    -0.350 N 
HETATM   23  C   UNL     1      -2.120 -13.304 -37.777  1.00  0.00     0.221 C 
HETATM   24  O   UNL     1      -2.127 -12.336 -38.532  1.00  0.00    -0.273 OA
HETATM   25  H   UNL     1      -3.156 -14.505 -36.469  1.00  0.00     0.163 HD
BRANCH  23  26
HETATM   26  C   UNL     1      -0.823 -14.009 -37.399  1.00  0.00     0.070 C 
HETATM   27  C   UNL     1      -1.129 -15.344 -36.723  1.00  0.00     0.019 C 
HETATM   28  C   UNL     1       0.108 -14.189 -38.593  1.00  0.00     0.019 C 
ENDBRANCH  23  26
ENDBRANCH   7  22
BRANCH   1  29
HETATM   29  C   UNL     1     -10.337 -16.125 -40.831  1.00  0.00     0.154 A 
HETATM   30  N   UNL     1     -10.895 -14.936 -40.550  1.00  0.00    -0.123 NA
HETATM   31  O   UNL     1     -12.053 -14.863 -41.299  1.00  0.00    -0.217 OA
HETATM   32  C   UNL     1     -12.168 -15.975 -42.073  1.00  0.00     0.084 A 
HETATM   33  C   UNL     1     -11.094 -16.795 -41.832  1.00  0.00     0.075 A 
BRANCH  32  34
HETATM   34  C   UNL     1     -13.363 -16.073 -42.958  1.00  0.00     0.037 C 
HETATM   35  C   UNL     1     -14.485 -16.881 -42.305  1.00  0.00     0.016 C 
HETATM   36  C   UNL     1     -12.984 -16.671 -44.313  1.00  0.00     0.016 C 
ENDBRANCH  32  34
ENDBRANCH   1  29
TORSDOF 8
ENDMDL
MODEL 8
REMARK VINA RESULT:      -6.9      4.362      8.957
REMARK  8 active torsions:
REMARK  status: ('A' for Active; 'I' for Inactive)
REMARK    1  A    between atoms: C_2  and  C_3 
REMARK    2  A    between atoms: C_6  and  C_7 
REMARK       I    between atoms: C_7  and  N_8 
REMARK    3  A    between atoms: C_12  and  O_13 
REMARK    4  A    between atoms: O_13  and  C_14 
REMARK    5  A    between atoms: C_14  and  C_15 
REMARK    6  A    between atoms: C_15  and  O_16 
REMARK    7  A    between atoms: C_18  and  N_19 
REMARK       I    between atoms: N_19  and  C_20 
REMARK    8  A    between atoms: C_20  and  C_21 
ROOT
HETATM    1  C   UNL     1      -5.662   6.513 -30.338  1.00  0.00     0.274 C 
HETATM    2  N   UNL     1      -6.676   5.944 -31.124  1.00  0.00    -0.347 N 
HETATM    3  C   UNL     1      -6.591   5.670 -32.559  1.00  0.00     0.127 C 
HETATM    4  C   UNL     1      -6.920   4.206 -32.841  1.00  0.00     0.037 C 
HETATM    5  C   UNL     1      -8.288   3.781 -32.263  1.00  0.00     0.019 C 
HETATM    6  C   UNL     1      -9.526   4.401 -33.026  1.00  0.00     0.162 C 
HETATM    7  C   UNL     1     -10.557   3.247 -33.259  1.00  0.00     0.148 C 
HETATM    8  C   UNL     1      -9.737   2.010 -33.038  1.00  0.00    -0.026 A 
HETATM    9  C   UNL     1      -8.502   2.291 -32.455  1.00  0.00    -0.038 A 
HETATM   10  C   UNL     1     -10.123   0.701 -33.310  1.00  0.00     0.010 A 
HETATM   11  C   UNL     1      -9.255  -0.340 -32.978  1.00  0.00     0.001 A 
HETATM   12  C   UNL     1      -8.023  -0.065 -32.375  1.00  0.00     0.001 A 
HETATM   13  C   UNL     1      -7.641   1.253 -32.111  1.00  0.00     0.009 A 
HETATM   14  C   UNL     1      -8.328   4.132 -30.757  1.00  0.00     0.037 C 
HETATM   15  C   UNL     1      -7.945   5.591 -30.495  1.00  0.00     0.127 C 
HETATM   16  O   UNL     1      -5.732   6.494 -29.107  1.00  0.00    -0.266 OA
ENDROOT
BRANCH   6  17
HETATM   17  O   UNL     1      -9.098   4.961 -34.286  1.00  0.00    -0.380 OA
BRANCH  17  18
HETATM   18  C   UNL     1      -9.802   6.157 -34.633  1.00  0.00     0.194 C 
BRANCH  18  19
HETATM   19  C   UNL     1     -10.175   6.911 -33.360  1.00  0.00     0.193 C 
BRANCH  19  20
HETATM   20  O   UNL     1      -9.749   8.268 -33.470  1.00  0.00    -0.394 OA
HETATM   21  C   UNL     1      -9.133   8.725 -32.274  1.00  0.00     0.201 C 
ENDBRANCH  19  20
ENDBRANCH  18  19
ENDBRANCH  17  18
ENDBRANCH   6  17
BRANCH   7  22
HETATM   22  N   UNL     1     -11.696   3.243 -32.353  1.00  0.00    -0.350 N 
HETATM   23  C   UNL     1     -12.934   3.677 -32.756  1.00  0.00     0.221 C 
HETATM   24  O   UNL     1     -13.116   4.300 -33.797  1.00  0.00    -0.273 OA
HETATM   25  H   UNL     1     -11.639   2.625 -31.554  1.00  0.00     0.163 HD
BRANCH  23  26
HETATM   26  C   UNL     1     -14.096   3.280 -31.853  1.00  0.00     0.070 C 
HETATM   27  C   UNL     1     -14.992   4.488 -31.589  1.00  0.00     0.019 C 
HETATM   28  C   UNL     1     -14.893   2.107 -32.415  1.00  0.00     0.019 C 
ENDBRANCH  23  26
ENDBRANCH   7  22
BRANCH   1  29
HETATM   29  C   UNL     1      -4.482   7.118 -30.977  1.00  0.00     0.154 A 
HETATM   30  N   UNL     1      -4.350   8.432 -31.223  1.00  0.00    -0.123 NA
HETATM   31  O   UNL     1      -3.113   8.595 -31.816  1.00  0.00    -0.217 OA
HETATM   32  C   UNL     1      -2.475   7.396 -31.879  1.00  0.00     0.084 A 
HETATM   33  C   UNL     1      -3.289   6.432 -31.339  1.00  0.00     0.075 A 
BRANCH  32  34
HETATM   34  C   UNL     1      -1.116   7.375 -32.491  1.00  0.00     0.037 C 
HETATM   35  C   UNL     1      -1.118   6.672 -33.848  1.00  0.00     0.016 C 
HETATM   36  C   UNL     1      -0.108   6.722 -31.545  1.00  0.00     0.016 C 
ENDBRANCH  32  34
ENDBRANCH   1  29
TORSDOF 8
ENDMDL
MODEL 9
REMARK VINA RESULT:      -6.8     18.838     21.917
REMARK  8 active torsions:
REMARK  status: ('A' for Active; 'I' for Inactive)
REMARK    1  A    between atoms: C_2  and  C_3 
REMARK    2  A    between atoms: C_6  and  C_7 
REMARK       I    between atoms: C_7  and  N_8 
REMARK    3  A    between atoms: C_12  and  O_13 
REMARK    4  A    between atoms: O_13  and  C_14 
REMARK    5  A    between atoms: C_14  and  C_15 
REMARK    6  A    between atoms: C_15  and  O_16 
REMARK    7  A    between atoms: C_18  and  N_19 
REMARK       I    between atoms: N_19  and  C_20 
REMARK    8  A    between atoms: C_20  and  C_21 
ROOT
HETATM    1  C   UNL     1      -3.065 -14.344 -41.105  1.00  0.00     0.274 C 
HETATM    2  N   UNL     1      -4.353 -14.792 -40.773  1.00  0.00    -0.347 N 
HETATM    3  C   UNL     1      -4.899 -14.894 -39.419  1.00  0.00     0.127 C 
HETATM    4  C   UNL     1      -6.217 -14.131 -39.319  1.00  0.00     0.037 C 
HETATM    5  C   UNL     1      -7.247 -14.577 -40.381  1.00  0.00     0.019 C 
HETATM    6  C   UNL     1      -7.846 -16.018 -40.125  1.00  0.00     0.162 C 
HETATM    7  C   UNL     1      -9.395 -15.922 -40.328  1.00  0.00     0.148 C 
HETATM    8  C   UNL     1      -9.656 -14.446 -40.254  1.00  0.00    -0.026 A 
HETATM    9  C   UNL     1      -8.482 -13.697 -40.321  1.00  0.00    -0.038 A 
HETATM   10  C   UNL     1     -10.900 -13.828 -40.181  1.00  0.00     0.010 A 
HETATM   11  C   UNL     1     -10.961 -12.434 -40.187  1.00  0.00     0.001 A 
HETATM   12  C   UNL     1      -9.788 -11.678 -40.273  1.00  0.00     0.001 A 
HETATM   13  C   UNL     1      -8.542 -12.307 -40.340  1.00  0.00     0.009 A 
HETATM   14  C   UNL     1      -6.597 -14.483 -41.781  1.00  0.00     0.037 C 
HETATM   15  C   UNL     1      -5.253 -15.214 -41.843  1.00  0.00     0.127 C 
HETATM   16  O   UNL     1      -2.772 -14.072 -42.271  1.00  0.00    -0.266 OA
ENDROOT
BRANCH   6  17
HETATM   17  O   UNL     1      -7.535 -16.450 -38.783  1.00  0.00    -0.380 OA
BRANCH  17  18
HETATM   18  C   UNL     1      -8.596 -17.191 -38.176  1.00  0.00     0.194 C 
BRANCH  18  19
HETATM   19  C   UNL     1      -8.232 -17.499 -36.726  1.00  0.00     0.193 C 
BRANCH  19  20
HETATM   20  O   UNL     1      -6.955 -16.937 -36.428  1.00  0.00    -0.394 OA
HETATM   21  C   UNL     1      -7.037 -15.958 -35.403  1.00  0.00     0.201 C 
ENDBRANCH  19  20
ENDBRANCH  18  19
ENDBRANCH  17  18
ENDBRANCH   6  17
BRANCH   7  22
HETATM   22  N   UNL     1      -9.886 -16.439 -41.596  1.00  0.00    -0.350 N 
HETATM   23  C   UNL     1     -11.160 -16.935 -41.722  1.00  0.00     0.221 C 
HETATM   24  O   UNL     1     -11.875 -17.191 -40.758  1.00  0.00    -0.273 OA
HETATM   25  H   UNL     1      -9.405 -16.131 -42.430  1.00  0.00     0.163 HD
BRANCH  23  26
HETATM   26  C   UNL     1     -11.665 -17.095 -43.152  1.00  0.00     0.070 C 
HETATM   27  C   UNL     1     -12.979 -16.338 -43.332  1.00  0.00     0.019 C 
HETATM   28  C   UNL     1     -10.627 -16.664 -44.184  1.00  0.00     0.019 C 
ENDBRANCH  23  26
ENDBRANCH   7  22
BRANCH   1  29
HETATM   29  C   UNL     1      -2.051 -14.163 -40.053  1.00  0.00     0.154 A 
HETATM   30  N   UNL     1      -2.089 -13.186 -39.132  1.00  0.00    -0.123 NA
HETATM   31  O   UNL     1      -0.978 -13.364 -38.330  1.00  0.00    -0.217 OA
HETATM   32  C   UNL     1      -0.300 -14.473 -38.727  1.00  0.00     0.084 A 
HETATM   33  C   UNL     1      -0.952 -15.030 -39.799  1.00  0.00     0.075 A 
BRANCH  32  34
HETATM   34  C   UNL     1       0.935 -14.828 -37.972  1.00  0.00     0.037 C 
HETATM   35  C   UNL     1       2.081 -15.207 -38.910  1.00  0.00     0.016 C 
HETATM   36  C   UNL     1       0.655 -15.954 -36.976  1.00  0.00     0.016 C 
ENDBRANCH  32  34
ENDBRANCH   1  29
TORSDOF 8
ENDMDL
MODEL 10
REMARK VINA RESULT:      -6.7      2.729      4.143
REMARK  8 active torsions:
REMARK  status: ('A' for Active; 'I' for Inactive)
REMARK    1  A    between atoms: C_2  and  C_3 
REMARK    2  A    between atoms: C_6  and  C_7 
REMARK       I    between atoms: C_7  and  N_8 
REMARK    3  A    between atoms: C_12  and  O_13 
REMARK    4  A    between atoms: O_13  and  C_14 
REMARK    5  A    between atoms: C_14  and  C_15 
REMARK    6  A    between atoms: C_15  and  O_16 
REMARK    7  A    between atoms: C_18  and  N_19 
REMARK       I    between atoms: N_19  and  C_20 
REMARK    8  A    between atoms: C_20  and  C_21 
ROOT
HETATM    1  C   UNL     1      -5.326   0.694 -30.764  1.00  0.00     0.274 C 
HETATM    2  N   UNL     1      -5.683   1.949 -31.282  1.00  0.00    -0.347 N 
HETATM    3  C   UNL     1      -5.722   2.307 -32.700  1.00  0.00     0.127 C 
HETATM    4  C   UNL     1      -7.091   2.873 -33.068  1.00  0.00     0.037 C 
HETATM    5  C   UNL     1      -7.506   4.060 -32.172  1.00  0.00     0.019 C 
HETATM    6  C   UNL     1      -6.680   5.382 -32.439  1.00  0.00     0.162 C 
HETATM    7  C   UNL     1      -7.703   6.565 -32.509  1.00  0.00     0.148 C 
HETATM    8  C   UNL     1      -9.015   5.867 -32.714  1.00  0.00    -0.026 A 
HETATM    9  C   UNL     1      -8.925   4.494 -32.494  1.00  0.00    -0.038 A 
HETATM   10  C   UNL     1     -10.230   6.466 -33.034  1.00  0.00     0.010 A 
HETATM   11  C   UNL     1     -11.371   5.668 -33.122  1.00  0.00     0.001 A 
HETATM   12  C   UNL     1     -11.289   4.292 -32.883  1.00  0.00     0.001 A 
HETATM   13  C   UNL     1     -10.064   3.699 -32.568  1.00  0.00     0.009 A 
HETATM   14  C   UNL     1      -7.406   3.630 -30.690  1.00  0.00     0.037 C 
HETATM   15  C   UNL     1      -6.042   3.020 -30.357  1.00  0.00     0.127 C 
HETATM   16  O   UNL     1      -5.544   0.414 -29.583  1.00  0.00    -0.266 OA
ENDROOT
BRANCH   6  17
HETATM   17  O   UNL     1      -5.952   5.266 -33.680  1.00  0.00    -0.380 OA
BRANCH  17  18
HETATM   18  C   UNL     1      -4.593   5.699 -33.572  1.00  0.00     0.194 C 
BRANCH  18  19
HETATM   19  C   UNL     1      -4.179   5.704 -32.103  1.00  0.00     0.193 C 
BRANCH  19  20
HETATM   20  O   UNL     1      -2.788   5.407 -32.001  1.00  0.00    -0.394 OA
HETATM   21  C   UNL     1      -2.564   4.052 -31.636  1.00  0.00     0.201 C 
ENDBRANCH  19  20
ENDBRANCH  18  19
ENDBRANCH  17  18
ENDBRANCH   6  17
BRANCH   7  22
HETATM   22  N   UNL     1      -7.774   7.393 -31.314  1.00  0.00    -0.350 N 
HETATM   23  C   UNL     1      -7.841   8.762 -31.392  1.00  0.00     0.221 C 
HETATM   24  O   UNL     1      -7.615   9.382 -32.427  1.00  0.00    -0.273 OA
HETATM   25  H   UNL     1      -8.098   6.943 -30.468  1.00  0.00     0.163 HD
BRANCH  23  26
HETATM   26  C   UNL     1      -8.280   9.473 -30.117  1.00  0.00     0.070 C 
HETATM   27  C   UNL     1      -7.418  10.712 -29.885  1.00  0.00     0.019 C 
HETATM   28  C   UNL     1      -9.765   9.820 -30.129  1.00  0.00     0.019 C 
ENDBRANCH  23  26
ENDBRANCH   7  22
BRANCH   1  29
HETATM   29  C   UNL     1      -4.711  -0.319 -31.637  1.00  0.00     0.154 A 
HETATM   30  N   UNL     1      -3.444  -0.748 -31.515  1.00  0.00    -0.123 NA
HETATM   31  O   UNL     1      -3.257  -1.694 -32.504  1.00  0.00    -0.217 OA
HETATM   32  C   UNL     1      -4.418  -1.880 -33.185  1.00  0.00     0.084 A 
HETATM   33  C   UNL     1      -5.377  -1.050 -32.660  1.00  0.00     0.075 A 
BRANCH  32  34
HETATM   34  C   UNL     1      -4.409  -2.873 -34.297  1.00  0.00     0.037 C 
HETATM   35  C   UNL     1      -5.802  -3.061 -34.897  1.00  0.00     0.016 C 
HETATM   36  C   UNL     1      -3.839  -4.210 -33.822  1.00  0.00     0.016 C 
ENDBRANCH  32  34
ENDBRANCH   1  29
TORSDOF 8
ENDMDL
