MODEL 1
REMARK VINA RESULT:      -9.6      0.000      0.000
REMARK  1 active torsions:
REMARK  status: ('A' for Active; 'I' for Inactive)
REMARK    1  A    between atoms: C_8  and  C_9 
ROOT
HETATM    1  C   UNL     1      -7.395  -0.377 -35.091  1.00  0.00     0.049 C 
HETATM    2  C   UNL     1      -6.348  -1.343 -34.605  1.00  0.00    -0.050 A 
HETATM    3  C   UNL     1      -5.327  -0.966 -33.710  1.00  0.00    -0.002 A 
HETATM    4  C   UNL     1      -4.390  -1.927 -33.279  1.00  0.00     0.051 A 
HETATM    5  N   UNL     1      -3.404  -1.538 -32.360  1.00  0.00    -0.322 N 
HETATM    6  C   UNL     1      -3.273  -0.277 -31.854  1.00  0.00     0.256 A 
HETATM    7  O   UNL     1      -2.414  -0.022 -31.014  1.00  0.00    -0.267 OA
HETATM    8  C   UNL     1      -4.202   0.774 -32.362  1.00  0.00     0.053 A 
HETATM    9  C   UNL     1      -5.180   0.410 -33.214  1.00  0.00     0.031 A 
HETATM   10  C   UNL     1      -4.440  -3.252 -33.742  1.00  0.00    -0.034 A 
HETATM   11  C   UNL     1      -3.439  -4.290 -33.317  1.00  0.00     0.050 C 
HETATM   12  C   UNL     1      -5.461  -3.611 -34.629  1.00  0.00     0.009 A 
HETATM   13  C   UNL     1      -6.403  -2.672 -35.051  1.00  0.00     0.008 A 
HETATM   14  H   UNL     1      -2.737  -2.212 -32.012  1.00  0.00     0.169 HD
ENDROOT
BRANCH   8  15
HETATM   15  C   UNL     1      -3.925   2.154 -31.814  1.00  0.00     0.224 C 
HETATM   16  N   UNL     1      -4.118   3.148 -32.828  1.00  0.00    -0.331 N 
HETATM   17  C   UNL     1      -5.343   3.658 -33.152  1.00  0.00     0.255 C 
HETATM   18  H   UNL     1      -3.436   3.173 -33.576  1.00  0.00     0.165 HD
HETATM   19  O   UNL     1      -5.548   4.216 -34.224  1.00  0.00    -0.268 OA
HETATM   20  C   UNL     1      -6.395   3.522 -32.129  1.00  0.00     0.058 A 
HETATM   21  C   UNL     1      -6.046   2.937 -30.904  1.00  0.00     0.045 A 
HETATM   22  C   UNL     1      -7.689   3.991 -32.372  1.00  0.00     0.019 A 
HETATM   23  N   UNL     1      -4.740   2.500 -30.656  1.00  0.00    -0.364 N 
HETATM   24  C   UNL     1      -7.011   2.902 -29.892  1.00  0.00     0.030 A 
HETATM   25  H   UNL     1      -4.652   1.847 -29.886  1.00  0.00     0.162 HD
HETATM   26  C   UNL     1      -8.309   3.367 -30.127  1.00  0.00     0.002 A 
HETATM   27  C   UNL     1      -8.652   3.902 -31.369  1.00  0.00     0.001 A 
ENDBRANCH   8  15
TORSDOF 1
ENDMDL
MODEL 2
REMARK VINA RESULT:      -9.3      2.146      3.849
REMARK  1 active torsions:
REMARK  status: ('A' for Active; 'I' for Inactive)
REMARK    1  A    between atoms: C_8  and  C_9 
ROOT
HETATM    1  C   UNL     1      -3.024  -1.372 -31.872  1.00  0.00     0.049 C 
HETATM    2  C   UNL     1      -3.982  -2.040 -32.821  1.00  0.00    -0.050 A 
HETATM    3  C   UNL     1      -5.205  -1.452 -33.204  1.00  0.00    -0.002 A 
HETATM    4  C   UNL     1      -6.047  -2.123 -34.113  1.00  0.00     0.051 A 
HETATM    5  N   UNL     1      -7.242  -1.503 -34.506  1.00  0.00    -0.322 N 
HETATM    6  C   UNL     1      -7.664  -0.285 -34.057  1.00  0.00     0.256 A 
HETATM    7  O   UNL     1      -8.700   0.219 -34.484  1.00  0.00    -0.267 OA
HETATM    8  C   UNL     1      -6.829   0.403 -33.030  1.00  0.00     0.053 A 
HETATM    9  C   UNL     1      -5.659  -0.159 -32.671  1.00  0.00     0.031 A 
HETATM   10  C   UNL     1      -5.701  -3.383 -34.632  1.00  0.00    -0.034 A 
HETATM   11  C   UNL     1      -6.591  -4.130 -35.584  1.00  0.00     0.050 C 
HETATM   12  C   UNL     1      -4.483  -3.953 -34.245  1.00  0.00     0.009 A 
HETATM   13  C   UNL     1      -3.635  -3.289 -33.357  1.00  0.00     0.008 A 
HETATM   14  H   UNL     1      -7.850  -1.948 -35.178  1.00  0.00     0.169 HD
ENDROOT
BRANCH   8  15
HETATM   15  C   UNL     1      -7.420   1.700 -32.528  1.00  0.00     0.224 C 
HETATM   16  N   UNL     1      -6.893   2.029 -31.237  1.00  0.00    -0.331 N 
HETATM   17  C   UNL     1      -5.690   2.650 -31.055  1.00  0.00     0.255 C 
HETATM   18  H   UNL     1      -7.192   1.448 -30.463  1.00  0.00     0.165 HD
HETATM   19  O   UNL     1      -5.094   2.605 -29.986  1.00  0.00    -0.268 OA
HETATM   20  C   UNL     1      -5.165   3.399 -32.212  1.00  0.00     0.058 A 
HETATM   21  C   UNL     1      -5.955   3.457 -33.369  1.00  0.00     0.045 A 
HETATM   22  C   UNL     1      -3.931   4.052 -32.136  1.00  0.00     0.019 A 
HETATM   23  N   UNL     1      -7.204   2.829 -33.425  1.00  0.00    -0.364 N 
HETATM   24  C   UNL     1      -5.512   4.254 -34.429  1.00  0.00     0.030 A 
HETATM   25  H   UNL     1      -7.559   2.678 -34.362  1.00  0.00     0.162 HD
HETATM   26  C   UNL     1      -4.277   4.908 -34.362  1.00  0.00     0.002 A 
HETATM   27  C   UNL     1      -3.482   4.800 -33.222  1.00  0.00     0.001 A 
ENDBRANCH   8  15
TORSDOF 1
ENDMDL
MODEL 3
REMARK VINA RESULT:      -9.2      1.851      3.102
REMARK  1 active torsions:
REMARK  status: ('A' for Active; 'I' for Inactive)
REMARK    1  A    between atoms: C_8  and  C_9 
ROOT
HETATM    1  C   UNL     1      -7.440  -0.403 -35.351  1.00  0.00     0.049 C 
HETATM    2  C   UNL     1      -6.374  -1.184 -34.631  1.00  0.00    -0.050 A 
HETATM    3  C   UNL     1      -5.656  -0.658 -33.538  1.00  0.00    -0.002 A 
HETATM    4  C   UNL     1      -4.684  -1.451 -32.897  1.00  0.00     0.051 A 
HETATM    5  N   UNL     1      -4.006  -0.919 -31.790  1.00  0.00    -0.322 N 
HETATM    6  C   UNL     1      -4.211   0.333 -31.287  1.00  0.00     0.256 A 
HETATM    7  O   UNL     1      -3.615   0.714 -30.282  1.00  0.00    -0.267 OA
HETATM    8  C   UNL     1      -5.174   1.219 -32.004  1.00  0.00     0.053 A 
HETATM    9  C   UNL     1      -5.862   0.712 -33.044  1.00  0.00     0.031 A 
HETATM   10  C   UNL     1      -4.400  -2.754 -33.339  1.00  0.00    -0.034 A 
HETATM   11  C   UNL     1      -3.352  -3.613 -32.687  1.00  0.00     0.050 C 
HETATM   12  C   UNL     1      -5.123  -3.264 -34.423  1.00  0.00     0.009 A 
HETATM   13  C   UNL     1      -6.098  -2.492 -35.056  1.00  0.00     0.008 A 
HETATM   14  H   UNL     1      -3.326  -1.476 -31.293  1.00  0.00     0.169 HD
ENDROOT
BRANCH   8  15
HETATM   15  C   UNL     1      -5.268   2.613 -31.430  1.00  0.00     0.224 C 
HETATM   16  N   UNL     1      -4.023   2.999 -30.835  1.00  0.00    -0.331 N 
HETATM   17  C   UNL     1      -2.973   3.499 -31.552  1.00  0.00     0.255 C 
HETATM   18  H   UNL     1      -3.765   2.529 -29.976  1.00  0.00     0.165 HD
HETATM   19  O   UNL     1      -1.828   3.487 -31.117  1.00  0.00    -0.268 OA
HETATM   20  C   UNL     1      -3.303   4.077 -32.868  1.00  0.00     0.058 A 
HETATM   21  C   UNL     1      -4.651   4.114 -33.249  1.00  0.00     0.045 A 
HETATM   22  C   UNL     1      -2.297   4.594 -33.690  1.00  0.00     0.019 A 
HETATM   23  N   UNL     1      -5.655   3.625 -32.406  1.00  0.00    -0.364 N 
HETATM   24  C   UNL     1      -4.980   4.758 -34.447  1.00  0.00     0.030 A 
HETATM   25  H   UNL     1      -6.536   3.429 -32.867  1.00  0.00     0.162 HD
HETATM   26  C   UNL     1      -3.979   5.276 -35.276  1.00  0.00     0.002 A 
HETATM   27  C   UNL     1      -2.638   5.186 -34.904  1.00  0.00     0.001 A 
ENDBRANCH   8  15
TORSDOF 1
ENDMDL
MODEL 4
REMARK VINA RESULT:      -9.0      2.373      3.574
REMARK  1 active torsions:
REMARK  status: ('A' for Active; 'I' for Inactive)
REMARK    1  A    between atoms: C_8  and  C_9 
ROOT
HETATM    1  C   UNL     1      -2.933  -0.607 -31.798  1.00  0.00     0.049 C 
HETATM    2  C   UNL     1      -3.722  -1.580 -32.631  1.00  0.00    -0.050 A 
HETATM    3  C   UNL     1      -4.849  -1.193 -33.386  1.00  0.00    -0.002 A 
HETATM    4  C   UNL     1      -5.530  -2.152 -34.161  1.00  0.00     0.051 A 
HETATM    5  N   UNL     1      -6.627  -1.738 -34.931  1.00  0.00    -0.322 N 
HETATM    6  C   UNL     1      -7.099  -0.458 -34.977  1.00  0.00     0.256 A 
HETATM    7  O   UNL     1      -8.035  -0.158 -35.715  1.00  0.00    -0.267 OA
HETATM    8  C   UNL     1      -6.444   0.554 -34.099  1.00  0.00     0.053 A 
HETATM    9  C   UNL     1      -5.366   0.183 -33.383  1.00  0.00     0.031 A 
HETATM   10  C   UNL     1      -5.121  -3.497 -34.181  1.00  0.00    -0.034 A 
HETATM   11  C   UNL     1      -5.845  -4.544 -34.980  1.00  0.00     0.050 C 
HETATM   12  C   UNL     1      -4.001  -3.865 -33.429  1.00  0.00     0.009 A 
HETATM   13  C   UNL     1      -3.309  -2.920 -32.669  1.00  0.00     0.008 A 
HETATM   14  H   UNL     1      -7.116  -2.398 -35.519  1.00  0.00     0.169 HD
ENDROOT
BRANCH   8  15
HETATM   15  C   UNL     1      -7.091   1.919 -34.149  1.00  0.00     0.224 C 
HETATM   16  N   UNL     1      -8.259   1.956 -33.321  1.00  0.00    -0.331 N 
HETATM   17  C   UNL     1      -8.215   2.164 -31.972  1.00  0.00     0.255 C 
HETATM   18  H   UNL     1      -9.061   1.427 -33.643  1.00  0.00     0.165 HD
HETATM   19  O   UNL     1      -9.141   1.844 -31.237  1.00  0.00    -0.268 OA
HETATM   20  C   UNL     1      -6.998   2.818 -31.456  1.00  0.00     0.058 A 
HETATM   21  C   UNL     1      -6.025   3.216 -32.382  1.00  0.00     0.045 A 
HETATM   22  C   UNL     1      -6.845   3.056 -30.087  1.00  0.00     0.019 A 
HETATM   23  N   UNL     1      -6.201   3.005 -33.754  1.00  0.00    -0.364 N 
HETATM   24  C   UNL     1      -4.920   3.933 -31.910  1.00  0.00     0.030 A 
HETATM   25  H   UNL     1      -5.351   3.054 -34.302  1.00  0.00     0.162 HD
HETATM   26  C   UNL     1      -4.757   4.172 -30.542  1.00  0.00     0.002 A 
HETATM   27  C   UNL     1      -5.713   3.726 -29.629  1.00  0.00     0.001 A 
ENDBRANCH   8  15
TORSDOF 1
ENDMDL
MODEL 5
REMARK VINA RESULT:      -8.7      2.527      6.037
REMARK  1 active torsions:
REMARK  status: ('A' for Active; 'I' for Inactive)
REMARK    1  A    between atoms: C_8  and  C_9 
ROOT
HETATM    1  C   UNL     1      -6.790   5.951 -31.520  1.00  0.00     0.049 C 
HETATM    2  C   UNL     1      -5.302   5.737 -31.581  1.00  0.00    -0.050 A 
HETATM    3  C   UNL     1      -4.710   4.469 -31.409  1.00  0.00    -0.002 A 
HETATM    4  C   UNL     1      -3.310   4.336 -31.499  1.00  0.00     0.051 A 
HETATM    5  N   UNL     1      -2.747   3.059 -31.360  1.00  0.00    -0.322 N 
HETATM    6  C   UNL     1      -3.461   1.920 -31.127  1.00  0.00     0.256 A 
HETATM    7  O   UNL     1      -2.903   0.827 -31.066  1.00  0.00    -0.267 OA
HETATM    8  C   UNL     1      -4.936   2.053 -30.944  1.00  0.00     0.053 A 
HETATM    9  C   UNL     1      -5.499   3.264 -31.114  1.00  0.00     0.031 A 
HETATM   10  C   UNL     1      -2.487   5.450 -31.736  1.00  0.00    -0.034 A 
HETATM   11  C   UNL     1      -0.990   5.339 -31.813  1.00  0.00     0.050 C 
HETATM   12  C   UNL     1      -3.088   6.701 -31.907  1.00  0.00     0.009 A 
HETATM   13  C   UNL     1      -4.475   6.842 -31.835  1.00  0.00     0.008 A 
HETATM   14  H   UNL     1      -1.749   2.930 -31.448  1.00  0.00     0.169 HD
ENDROOT
BRANCH   8  15
HETATM   15  C   UNL     1      -5.630   0.755 -30.602  1.00  0.00     0.224 C 
HETATM   16  N   UNL     1      -7.039   0.962 -30.445  1.00  0.00    -0.331 N 
HETATM   17  C   UNL     1      -7.911   1.008 -31.495  1.00  0.00     0.255 C 
HETATM   18  H   UNL     1      -7.334   1.479 -29.625  1.00  0.00     0.165 HD
HETATM   19  O   UNL     1      -9.016   1.528 -31.396  1.00  0.00    -0.268 OA
HETATM   20  C   UNL     1      -7.456   0.373 -32.745  1.00  0.00     0.058 A 
HETATM   21  C   UNL     1      -6.207  -0.263 -32.740  1.00  0.00     0.045 A 
HETATM   22  C   UNL     1      -8.265   0.385 -33.885  1.00  0.00     0.019 A 
HETATM   23  N   UNL     1      -5.418  -0.301 -31.586  1.00  0.00    -0.364 N 
HETATM   24  C   UNL     1      -5.818  -0.959 -33.889  1.00  0.00     0.030 A 
HETATM   25  H   UNL     1      -4.441  -0.515 -31.748  1.00  0.00     0.162 HD
HETATM   26  C   UNL     1      -6.620  -0.950 -35.035  1.00  0.00     0.002 A 
HETATM   27  C   UNL     1      -7.838  -0.270 -35.037  1.00  0.00     0.001 A 
ENDBRANCH   8  15
TORSDOF 1
ENDMDL
MODEL 6
REMARK VINA RESULT:      -8.6      1.533      1.809
REMARK  1 active torsions:
REMARK  status: ('A' for Active; 'I' for Inactive)
REMARK    1  A    between atoms: C_8  and  C_9 
ROOT
HETATM    1  C   UNL     1      -7.657   0.297 -35.207  1.00  0.00     0.049 C 
HETATM    2  C   UNL     1      -6.529  -0.357 -34.455  1.00  0.00    -0.050 A 
HETATM    3  C   UNL     1      -5.603   0.378 -33.687  1.00  0.00    -0.002 A 
HETATM    4  C   UNL     1      -4.583  -0.300 -32.991  1.00  0.00     0.051 A 
HETATM    5  N   UNL     1      -3.694   0.449 -32.205  1.00  0.00    -0.322 N 
HETATM    6  C   UNL     1      -3.736   1.806 -32.071  1.00  0.00     0.256 A 
HETATM    7  O   UNL     1      -2.954   2.390 -31.324  1.00  0.00    -0.267 OA
HETATM    8  C   UNL     1      -4.755   2.550 -32.867  1.00  0.00     0.053 A 
HETATM    9  C   UNL     1      -5.641   1.845 -33.596  1.00  0.00     0.031 A 
HETATM   10  C   UNL     1      -4.456  -1.698 -33.064  1.00  0.00    -0.034 A 
HETATM   11  C   UNL     1      -3.363  -2.443 -32.351  1.00  0.00     0.050 C 
HETATM   12  C   UNL     1      -5.383  -2.413 -33.829  1.00  0.00     0.009 A 
HETATM   13  C   UNL     1      -6.407  -1.753 -34.510  1.00  0.00     0.008 A 
HETATM   14  H   UNL     1      -2.971  -0.014 -31.672  1.00  0.00     0.169 HD
ENDROOT
BRANCH   8  15
HETATM   15  C   UNL     1      -4.668   4.051 -32.725  1.00  0.00     0.224 C 
HETATM   16  N   UNL     1      -5.557   4.698 -33.643  1.00  0.00    -0.331 N 
HETATM   17  C   UNL     1      -6.889   4.877 -33.396  1.00  0.00     0.255 C 
HETATM   18  H   UNL     1      -5.310   4.652 -34.624  1.00  0.00     0.165 HD
HETATM   19  O   UNL     1      -7.690   5.093 -34.297  1.00  0.00    -0.268 OA
HETATM   20  C   UNL     1      -7.299   4.821 -31.981  1.00  0.00     0.058 A 
HETATM   21  C   UNL     1      -6.300   4.645 -31.014  1.00  0.00     0.045 A 
HETATM   22  C   UNL     1      -8.643   4.969 -31.624  1.00  0.00     0.019 A 
HETATM   23  N   UNL     1      -4.953   4.531 -31.378  1.00  0.00    -0.364 N 
HETATM   24  C   UNL     1      -6.670   4.699 -29.667  1.00  0.00     0.030 A 
HETATM   25  H   UNL     1      -4.356   4.125 -30.667  1.00  0.00     0.162 HD
HETATM   26  C   UNL     1      -8.012   4.844 -29.301  1.00  0.00     0.002 A 
HETATM   27  C   UNL     1      -8.999   4.969 -30.277  1.00  0.00     0.001 A 
ENDBRANCH   8  15
TORSDOF 1
ENDMDL
MODEL 7
REMARK VINA RESULT:      -8.5      2.286      3.009
REMARK  1 active torsions:
REMARK  status: ('A' for Active; 'I' for Inactive)
REMARK    1  A    between atoms: C_8  and  C_9 
ROOT
HETATM    1  C   UNL     1      -7.815  -0.422 -35.274  1.00  0.00     0.049 C 
HETATM    2  C   UNL     1      -6.665  -0.858 -34.407  1.00  0.00    -0.050 A 
HETATM    3  C   UNL     1      -6.463  -0.355 -33.106  1.00  0.00    -0.002 A 
HETATM    4  C   UNL     1      -5.376  -0.821 -32.340  1.00  0.00     0.051 A 
HETATM    5  N   UNL     1      -5.215  -0.332 -31.035  1.00  0.00    -0.322 N 
HETATM    6  C   UNL     1      -6.037   0.584 -30.446  1.00  0.00     0.256 A 
HETATM    7  O   UNL     1      -5.863   0.929 -29.280  1.00  0.00    -0.267 OA
HETATM    8  C   UNL     1      -7.143   1.153 -31.270  1.00  0.00     0.053 A 
HETATM    9  C   UNL     1      -7.337   0.667 -32.511  1.00  0.00     0.031 A 
HETATM   10  C   UNL     1      -4.472  -1.765 -32.857  1.00  0.00    -0.034 A 
HETATM   11  C   UNL     1      -3.291  -2.261 -32.070  1.00  0.00     0.050 C 
HETATM   12  C   UNL     1      -4.687  -2.256 -34.149  1.00  0.00     0.009 A 
HETATM   13  C   UNL     1      -5.769  -1.813 -34.911  1.00  0.00     0.008 A 
HETATM   14  H   UNL     1      -4.462  -0.670 -30.453  1.00  0.00     0.169 HD
ENDROOT
BRANCH   8  15
HETATM   15  C   UNL     1      -7.944   2.224 -30.565  1.00  0.00     0.224 C 
HETATM   16  N   UNL     1      -7.345   3.511 -30.757  1.00  0.00    -0.331 N 
HETATM   17  C   UNL     1      -7.545   4.271 -31.875  1.00  0.00     0.255 C 
HETATM   18  H   UNL     1      -6.467   3.679 -30.282  1.00  0.00     0.165 HD
HETATM   19  O   UNL     1      -6.777   5.171 -32.191  1.00  0.00    -0.268 OA
HETATM   20  C   UNL     1      -8.753   3.961 -32.662  1.00  0.00     0.058 A 
HETATM   21  C   UNL     1      -9.612   2.965 -32.180  1.00  0.00     0.045 A 
HETATM   22  C   UNL     1      -9.037   4.666 -33.835  1.00  0.00     0.019 A 
HETATM   23  N   UNL     1      -9.338   2.287 -30.987  1.00  0.00    -0.364 N 
HETATM   24  C   UNL     1     -10.812   2.742 -32.864  1.00  0.00     0.030 A 
HETATM   25  H   UNL     1      -9.838   1.413 -30.873  1.00  0.00     0.162 HD
HETATM   26  C   UNL     1     -11.103   3.441 -34.040  1.00  0.00     0.002 A 
HETATM   27  C   UNL     1     -10.212   4.395 -34.532  1.00  0.00     0.001 A 
ENDBRANCH   8  15
TORSDOF 1
ENDMDL
MODEL 8
REMARK VINA RESULT:      -8.4      4.657      6.334
REMARK  1 active torsions:
REMARK  status: ('A' for Active; 'I' for Inactive)
REMARK    1  A    between atoms: C_8  and  C_9 
ROOT
HETATM    1  C   UNL     1      -7.842  -0.325 -35.483  1.00  0.00     0.049 C 
HETATM    2  C   UNL     1      -7.499   0.115 -34.086  1.00  0.00    -0.050 A 
HETATM    3  C   UNL     1      -8.134   1.205 -33.457  1.00  0.00    -0.002 A 
HETATM    4  C   UNL     1      -7.779   1.551 -32.138  1.00  0.00     0.051 A 
HETATM    5  N   UNL     1      -8.449   2.618 -31.520  1.00  0.00    -0.322 N 
HETATM    6  C   UNL     1      -9.425   3.366 -32.113  1.00  0.00     0.256 A 
HETATM    7  O   UNL     1     -10.003   4.254 -31.492  1.00  0.00    -0.267 OA
HETATM    8  C   UNL     1      -9.755   3.069 -33.538  1.00  0.00     0.053 A 
HETATM    9  C   UNL     1      -9.150   2.024 -34.134  1.00  0.00     0.031 A 
HETATM   10  C   UNL     1      -6.786   0.843 -31.441  1.00  0.00    -0.034 A 
HETATM   11  C   UNL     1      -6.372   1.206 -30.043  1.00  0.00     0.050 C 
HETATM   12  C   UNL     1      -6.166  -0.238 -32.077  1.00  0.00     0.009 A 
HETATM   13  C   UNL     1      -6.521  -0.599 -33.378  1.00  0.00     0.008 A 
HETATM   14  H   UNL     1      -8.235   2.870 -30.565  1.00  0.00     0.169 HD
ENDROOT
BRANCH   8  15
HETATM   15  C   UNL     1     -10.780   4.004 -34.136  1.00  0.00     0.224 C 
HETATM   16  N   UNL     1     -11.290   3.474 -35.366  1.00  0.00    -0.331 N 
HETATM   17  C   UNL     1     -12.288   2.542 -35.423  1.00  0.00     0.255 C 
HETATM   18  H   UNL     1     -10.655   3.465 -36.155  1.00  0.00     0.165 HD
HETATM   19  O   UNL     1     -12.466   1.846 -36.415  1.00  0.00    -0.268 OA
HETATM   20  C   UNL     1     -13.152   2.443 -34.233  1.00  0.00     0.058 A 
HETATM   21  C   UNL     1     -12.918   3.334 -33.176  1.00  0.00     0.045 A 
HETATM   22  C   UNL     1     -14.188   1.505 -34.182  1.00  0.00     0.019 A 
HETATM   23  N   UNL     1     -11.901   4.292 -33.248  1.00  0.00    -0.364 N 
HETATM   24  C   UNL     1     -13.801   3.316 -32.092  1.00  0.00     0.030 A 
HETATM   25  H   UNL     1     -11.623   4.681 -32.356  1.00  0.00     0.162 HD
HETATM   26  C   UNL     1     -14.839   2.380 -32.032  1.00  0.00     0.002 A 
HETATM   27  C   UNL     1     -15.026   1.468 -33.070  1.00  0.00     0.001 A 
ENDBRANCH   8  15
TORSDOF 1
ENDMDL
MODEL 9
REMARK VINA RESULT:      -8.4      3.440      4.736
REMARK  1 active torsions:
REMARK  status: ('A' for Active; 'I' for Inactive)
REMARK    1  A    between atoms: C_8  and  C_9 
ROOT
HETATM    1  C   UNL     1      -7.842  -0.101 -35.346  1.00  0.00     0.049 C 
HETATM    2  C   UNL     1      -6.888  -0.044 -34.184  1.00  0.00    -0.050 A 
HETATM    3  C   UNL     1      -7.096   0.800 -33.073  1.00  0.00    -0.002 A 
HETATM    4  C   UNL     1      -6.173   0.789 -32.009  1.00  0.00     0.051 A 
HETATM    5  N   UNL     1      -6.418   1.611 -30.898  1.00  0.00    -0.322 N 
HETATM    6  C   UNL     1      -7.493   2.443 -30.775  1.00  0.00     0.256 A 
HETATM    7  O   UNL     1      -7.669   3.097 -29.750  1.00  0.00    -0.267 OA
HETATM    8  C   UNL     1      -8.437   2.531 -31.927  1.00  0.00     0.053 A 
HETATM    9  C   UNL     1      -8.239   1.721 -32.984  1.00  0.00     0.031 A 
HETATM   10  C   UNL     1      -5.033  -0.032 -32.041  1.00  0.00    -0.034 A 
HETATM   11  C   UNL     1      -4.021  -0.045 -30.930  1.00  0.00     0.050 C 
HETATM   12  C   UNL     1      -4.842  -0.865 -33.149  1.00  0.00     0.009 A 
HETATM   13  C   UNL     1      -5.758  -0.874 -34.202  1.00  0.00     0.008 A 
HETATM   14  H   UNL     1      -5.789   1.602 -30.109  1.00  0.00     0.169 HD
ENDROOT
BRANCH   8  15
HETATM   15  C   UNL     1      -9.544   3.541 -31.736  1.00  0.00     0.224 C 
HETATM   16  N   UNL     1      -9.390   4.637 -32.647  1.00  0.00    -0.331 N 
HETATM   17  C   UNL     1      -9.818   4.598 -33.944  1.00  0.00     0.255 C 
HETATM   18  H   UNL     1      -8.617   5.267 -32.474  1.00  0.00     0.165 HD
HETATM   19  O   UNL     1      -9.379   5.365 -34.793  1.00  0.00    -0.268 OA
HETATM   20  C   UNL     1     -10.856   3.599 -34.255  1.00  0.00     0.058 A 
HETATM   21  C   UNL     1     -11.352   2.818 -33.202  1.00  0.00     0.045 A 
HETATM   22  C   UNL     1     -11.345   3.464 -35.558  1.00  0.00     0.019 A 
HETATM   23  N   UNL     1     -10.881   2.983 -31.895  1.00  0.00    -0.364 N 
HETATM   24  C   UNL     1     -12.411   1.946 -33.471  1.00  0.00     0.030 A 
HETATM   25  H   UNL     1     -11.073   2.205 -31.275  1.00  0.00     0.162 HD
HETATM   26  C   UNL     1     -12.905   1.802 -34.772  1.00  0.00     0.002 A 
HETATM   27  C   UNL     1     -12.366   2.552 -35.817  1.00  0.00     0.001 A 
ENDBRANCH   8  15
TORSDOF 1
ENDMDL
MODEL 10
REMARK VINA RESULT:      -8.3     15.365     17.246
REMARK  1 active torsions:
REMARK  status: ('A' for Active; 'I' for Inactive)
REMARK    1  A    between atoms: C_8  and  C_9 
ROOT
HETATM    1  C   UNL     1      -4.077 -12.727 -37.077  1.00  0.00     0.049 C 
HETATM    2  C   UNL     1      -2.932 -13.309 -37.861  1.00  0.00    -0.050 A 
HETATM    3  C   UNL     1      -3.041 -13.644 -39.226  1.00  0.00    -0.002 A 
HETATM    4  C   UNL     1      -1.922 -14.166 -39.906  1.00  0.00     0.051 A 
HETATM    5  N   UNL     1      -2.044 -14.458 -41.273  1.00  0.00    -0.322 N 
HETATM    6  C   UNL     1      -3.184 -14.285 -42.002  1.00  0.00     0.256 A 
HETATM    7  O   UNL     1      -3.202 -14.516 -43.209  1.00  0.00    -0.267 OA
HETATM    8  C   UNL     1      -4.403 -13.813 -41.282  1.00  0.00     0.053 A 
HETATM    9  C   UNL     1      -4.294 -13.490 -39.979  1.00  0.00     0.031 A 
HETATM   10  C   UNL     1      -0.703 -14.382 -39.243  1.00  0.00    -0.034 A 
HETATM   11  C   UNL     1       0.498 -14.960 -39.939  1.00  0.00     0.050 C 
HETATM   12  C   UNL     1      -0.609 -14.043 -37.889  1.00  0.00     0.009 A 
HETATM   13  C   UNL     1      -1.706 -13.511 -37.210  1.00  0.00     0.008 A 
HETATM   14  H   UNL     1      -1.251 -14.807 -41.792  1.00  0.00     0.169 HD
ENDROOT
BRANCH   8  15
HETATM   15  C   UNL     1      -5.637 -13.736 -42.150  1.00  0.00     0.224 C 
HETATM   16  N   UNL     1      -6.205 -15.038 -42.336  1.00  0.00    -0.331 N 
HETATM   17  C   UNL     1      -7.034 -15.630 -41.425  1.00  0.00     0.255 C 
HETATM   18  H   UNL     1      -5.684 -15.683 -42.918  1.00  0.00     0.165 HD
HETATM   19  O   UNL     1      -7.220 -16.841 -41.412  1.00  0.00    -0.268 OA
HETATM   20  C   UNL     1      -7.709 -14.725 -40.478  1.00  0.00     0.058 A 
HETATM   21  C   UNL     1      -7.493 -13.348 -40.619  1.00  0.00     0.045 A 
HETATM   22  C   UNL     1      -8.561 -15.234 -39.492  1.00  0.00     0.019 A 
HETATM   23  N   UNL     1      -6.666 -12.844 -41.629  1.00  0.00    -0.364 N 
HETATM   24  C   UNL     1      -8.214 -12.479 -39.793  1.00  0.00     0.030 A 
HETATM   25  H   UNL     1      -6.344 -11.896 -41.479  1.00  0.00     0.162 HD
HETATM   26  C   UNL     1      -9.066 -12.980 -38.803  1.00  0.00     0.002 A 
HETATM   27  C   UNL     1      -9.232 -14.356 -38.645  1.00  0.00     0.001 A 
ENDBRANCH   8  15
TORSDOF 1
ENDMDL
