MODEL 1
REMARK VINA RESULT:      -8.6      0.000      0.000
REMARK  7 active torsions:
REMARK  status: ('A' for Active; 'I' for Inactive)
REMARK    1  A    between atoms: C_5  and  O_6 
REMARK    2  A    between atoms: O_6  and  C_7 
REMARK    3  A    between atoms: C_7  and  C_8 
REMARK       I    between atoms: C_8  and  N_9 
REMARK    4  A    between atoms: N_9  and  N_10 
REMARK       I    between atoms: N_10  and  C_11 
REMARK    5  A    between atoms: C_11  and  C_12 
REMARK    6  A    between atoms: C_14  and  C_15 
REMARK    7  A    between atoms: C_22  and  C_23 
ROOT
HETATM    1  N   UNL     1      -5.341   3.655 -29.499  1.00  0.00    -0.262 N 
HETATM    2  C   UNL     1      -6.480   3.130 -30.088  1.00  0.00     0.291 C 
HETATM    3  O   UNL     1      -7.611   3.243 -29.630  1.00  0.00    -0.264 OA
HETATM    4  H   UNL     1      -4.465   3.618 -30.018  1.00  0.00     0.190 HD
ENDROOT
BRANCH   2   5
HETATM    5  C   UNL     1      -6.169   2.393 -31.302  1.00  0.00     0.159 A 
HETATM    6  N   UNL     1      -6.381   1.024 -31.421  1.00  0.00    -0.216 NA
HETATM    7  C   UNL     1      -5.942   0.740 -32.634  1.00  0.00     0.180 A 
HETATM    8  O   UNL     1      -5.535   1.833 -33.351  1.00  0.00    -0.293 OA
HETATM    9  C   UNL     1      -5.692   2.891 -32.497  1.00  0.00     0.094 A 
BRANCH   7  10
HETATM   10  C   UNL     1      -5.821  -0.559 -33.292  1.00  0.00     0.017 A 
HETATM   11  C   UNL     1      -4.574  -1.204 -33.334  1.00  0.00     0.016 A 
HETATM   12  C   UNL     1      -4.425  -2.435 -33.980  1.00  0.00     0.001 A 
HETATM   13  C   UNL     1      -5.521  -3.039 -34.591  1.00  0.00     0.000 A 
HETATM   14  C   UNL     1      -6.767  -2.415 -34.555  1.00  0.00     0.001 A 
HETATM   15  C   UNL     1      -6.915  -1.184 -33.911  1.00  0.00     0.016 A 
ENDBRANCH   7  10
BRANCH   9  16
HETATM   16  C   UNL     1      -5.430   4.340 -32.864  1.00  0.00     0.046 A 
HETATM   17  C   UNL     1      -5.263   4.691 -34.326  1.00  0.00     0.012 A 
HETATM   18  C   UNL     1      -6.518   5.074 -33.621  1.00  0.00     0.012 A 
ENDBRANCH   9  16
ENDBRANCH   2   5
BRANCH   1  19
HETATM   19  N   UNL     1      -5.415   4.456 -28.362  1.00  0.00    -0.265 N 
HETATM   20  C   UNL     1      -5.249   5.822 -28.347  1.00  0.00     0.260 C 
HETATM   21  O   UNL     1      -5.411   6.426 -27.283  1.00  0.00    -0.269 OA
HETATM   22  H   UNL     1      -5.577   4.007 -27.466  1.00  0.00     0.190 HD
BRANCH  20  23
HETATM   23  C   UNL     1      -4.866   6.547 -29.635  1.00  0.00     0.280 C 
BRANCH  23  24
HETATM   24  O   UNL     1      -3.455   6.429 -29.777  1.00  0.00    -0.342 OA
BRANCH  24  25
HETATM   25  C   UNL     1      -2.950   6.275 -31.035  1.00  0.00     0.069 A 
HETATM   26  C   UNL     1      -2.268   5.074 -31.244  1.00  0.00     0.037 A 
HETATM   27  C   UNL     1      -1.701   4.781 -32.486  1.00  0.00     0.009 A 
HETATM   28  C   UNL     1      -1.796   5.699 -33.536  1.00  0.00    -0.062 A 
HETATM   29  C   UNL     1      -1.219   5.371 -34.881  1.00  0.00     0.048 C 
HETATM   30  C   UNL     1      -2.482   6.901 -33.325  1.00  0.00     0.009 A 
HETATM   31  C   UNL     1      -3.046   7.194 -32.077  1.00  0.00     0.037 A 
ENDBRANCH  24  25
ENDBRANCH  23  24
ENDBRANCH  20  23
ENDBRANCH   1  19
TORSDOF 7
ENDMDL
MODEL 2
REMARK VINA RESULT:      -8.5      2.422      7.982
REMARK  7 active torsions:
REMARK  status: ('A' for Active; 'I' for Inactive)
REMARK    1  A    between atoms: C_5  and  O_6 
REMARK    2  A    between atoms: O_6  and  C_7 
REMARK    3  A    between atoms: C_7  and  C_8 
REMARK       I    between atoms: C_8  and  N_9 
REMARK    4  A    between atoms: N_9  and  N_10 
REMARK       I    between atoms: N_10  and  C_11 
REMARK    5  A    between atoms: C_11  and  C_12 
REMARK    6  A    between atoms: C_14  and  C_15 
REMARK    7  A    between atoms: C_22  and  C_23 
ROOT
HETATM    1  N   UNL     1      -6.486   2.513 -33.323  1.00  0.00    -0.262 N 
HETATM    2  C   UNL     1      -6.160   2.993 -32.064  1.00  0.00     0.291 C 
HETATM    3  O   UNL     1      -6.976   3.240 -31.185  1.00  0.00    -0.264 OA
HETATM    4  H   UNL     1      -5.732   2.219 -33.941  1.00  0.00     0.190 HD
ENDROOT
BRANCH   2   5
HETATM    5  C   UNL     1      -4.729   3.206 -31.923  1.00  0.00     0.159 A 
HETATM    6  N   UNL     1      -4.178   4.463 -31.695  1.00  0.00    -0.216 NA
HETATM    7  C   UNL     1      -2.877   4.238 -31.669  1.00  0.00     0.180 A 
HETATM    8  O   UNL     1      -2.536   2.917 -31.779  1.00  0.00    -0.293 OA
HETATM    9  C   UNL     1      -3.726   2.259 -31.931  1.00  0.00     0.094 A 
BRANCH   7  10
HETATM   10  C   UNL     1      -1.777   5.194 -31.556  1.00  0.00     0.017 A 
HETATM   11  C   UNL     1      -0.574   4.800 -30.948  1.00  0.00     0.016 A 
HETATM   12  C   UNL     1       0.485   5.700 -30.803  1.00  0.00     0.001 A 
HETATM   13  C   UNL     1       0.357   7.007 -31.267  1.00  0.00     0.000 A 
HETATM   14  C   UNL     1      -0.829   7.415 -31.876  1.00  0.00     0.001 A 
HETATM   15  C   UNL     1      -1.888   6.514 -32.019  1.00  0.00     0.016 A 
ENDBRANCH   7  10
BRANCH   9  16
HETATM   16  C   UNL     1      -3.869   0.751 -32.030  1.00  0.00     0.046 A 
HETATM   17  C   UNL     1      -2.931  -0.114 -31.217  1.00  0.00     0.012 A 
HETATM   18  C   UNL     1      -4.353   0.016 -30.796  1.00  0.00     0.012 A 
ENDBRANCH   9  16
ENDBRANCH   2   5
BRANCH   1  19
HETATM   19  N   UNL     1      -7.796   2.173 -33.653  1.00  0.00    -0.265 N 
HETATM   20  C   UNL     1      -8.162   1.089 -34.417  1.00  0.00     0.260 C 
HETATM   21  O   UNL     1      -9.363   0.855 -34.577  1.00  0.00    -0.269 OA
HETATM   22  H   UNL     1      -8.546   2.779 -33.333  1.00  0.00     0.190 HD
BRANCH  20  23
HETATM   23  C   UNL     1      -7.080   0.213 -35.046  1.00  0.00     0.280 C 
BRANCH  23  24
HETATM   24  O   UNL     1      -7.527  -1.135 -34.949  1.00  0.00    -0.342 OA
BRANCH  24  25
HETATM   25  C   UNL     1      -6.594  -2.102 -34.713  1.00  0.00     0.069 A 
HETATM   26  C   UNL     1      -5.387  -1.630 -34.193  1.00  0.00     0.037 A 
HETATM   27  C   UNL     1      -4.343  -2.508 -33.900  1.00  0.00     0.009 A 
HETATM   28  C   UNL     1      -4.487  -3.877 -34.140  1.00  0.00    -0.062 A 
HETATM   29  C   UNL     1      -3.381  -4.827 -33.792  1.00  0.00     0.048 C 
HETATM   30  C   UNL     1      -5.699  -4.349 -34.658  1.00  0.00     0.009 A 
HETATM   31  C   UNL     1      -6.744  -3.465 -34.955  1.00  0.00     0.037 A 
ENDBRANCH  24  25
ENDBRANCH  23  24
ENDBRANCH  20  23
ENDBRANCH   1  19
TORSDOF 7
ENDMDL
MODEL 3
REMARK VINA RESULT:      -8.3      2.791      3.728
REMARK  7 active torsions:
REMARK  status: ('A' for Active; 'I' for Inactive)
REMARK    1  A    between atoms: C_5  and  O_6 
REMARK    2  A    between atoms: O_6  and  C_7 
REMARK    3  A    between atoms: C_7  and  C_8 
REMARK       I    between atoms: C_8  and  N_9 
REMARK    4  A    between atoms: N_9  and  N_10 
REMARK       I    between atoms: N_10  and  C_11 
REMARK    5  A    between atoms: C_11  and  C_12 
REMARK    6  A    between atoms: C_14  and  C_15 
REMARK    7  A    between atoms: C_22  and  C_23 
ROOT
HETATM    1  N   UNL     1      -8.006   2.838 -33.907  1.00  0.00    -0.262 N 
HETATM    2  C   UNL     1      -7.902   1.935 -32.860  1.00  0.00     0.291 C 
HETATM    3  O   UNL     1      -8.554   1.998 -31.825  1.00  0.00    -0.264 OA
HETATM    4  H   UNL     1      -7.516   2.632 -34.776  1.00  0.00     0.190 HD
ENDROOT
BRANCH   2   5
HETATM    5  C   UNL     1      -6.895   0.921 -33.122  1.00  0.00     0.159 A 
HETATM    6  N   UNL     1      -7.205  -0.318 -33.675  1.00  0.00    -0.216 NA
HETATM    7  C   UNL     1      -6.044  -0.947 -33.712  1.00  0.00     0.180 A 
HETATM    8  O   UNL     1      -4.982  -0.186 -33.304  1.00  0.00    -0.293 OA
HETATM    9  C   UNL     1      -5.531   1.013 -32.936  1.00  0.00     0.094 A 
BRANCH   7  10
HETATM   10  C   UNL     1      -5.752  -2.323 -34.109  1.00  0.00     0.017 A 
HETATM   11  C   UNL     1      -6.762  -3.109 -34.689  1.00  0.00     0.016 A 
HETATM   12  C   UNL     1      -6.518  -4.436 -35.054  1.00  0.00     0.001 A 
HETATM   13  C   UNL     1      -5.259  -4.995 -34.846  1.00  0.00     0.000 A 
HETATM   14  C   UNL     1      -4.244  -4.229 -34.275  1.00  0.00     0.001 A 
HETATM   15  C   UNL     1      -4.490  -2.903 -33.909  1.00  0.00     0.016 A 
ENDBRANCH   7  10
BRANCH   9  16
HETATM   16  C   UNL     1      -4.733   2.216 -32.469  1.00  0.00     0.046 A 
HETATM   17  C   UNL     1      -4.601   2.456 -30.981  1.00  0.00     0.012 A 
HETATM   18  C   UNL     1      -3.429   1.949 -31.745  1.00  0.00     0.012 A 
ENDBRANCH   9  16
ENDBRANCH   2   5
BRANCH   1  19
HETATM   19  N   UNL     1      -8.958   3.854 -33.897  1.00  0.00    -0.265 N 
HETATM   20  C   UNL     1      -8.705   5.171 -33.588  1.00  0.00     0.260 C 
HETATM   21  O   UNL     1      -9.624   5.989 -33.687  1.00  0.00    -0.269 OA
HETATM   22  H   UNL     1      -9.922   3.612 -34.106  1.00  0.00     0.190 HD
BRANCH  20  23
HETATM   23  C   UNL     1      -7.307   5.580 -33.130  1.00  0.00     0.280 C 
BRANCH  23  24
HETATM   24  O   UNL     1      -6.421   5.318 -34.212  1.00  0.00    -0.342 OA
BRANCH  24  25
HETATM   25  C   UNL     1      -5.079   5.351 -33.961  1.00  0.00     0.069 A 
HETATM   26  C   UNL     1      -4.740   5.765 -32.672  1.00  0.00     0.037 A 
HETATM   27  C   UNL     1      -3.404   5.844 -32.275  1.00  0.00     0.009 A 
HETATM   28  C   UNL     1      -2.384   5.523 -33.175  1.00  0.00    -0.062 A 
HETATM   29  C   UNL     1      -0.949   5.572 -32.741  1.00  0.00     0.048 C 
HETATM   30  C   UNL     1      -2.726   5.105 -34.467  1.00  0.00     0.009 A 
HETATM   31  C   UNL     1      -4.068   5.031 -34.864  1.00  0.00     0.037 A 
ENDBRANCH  24  25
ENDBRANCH  23  24
ENDBRANCH  20  23
ENDBRANCH   1  19
TORSDOF 7
ENDMDL
MODEL 4
REMARK VINA RESULT:      -8.1      2.826      4.025
REMARK  7 active torsions:
REMARK  status: ('A' for Active; 'I' for Inactive)
REMARK    1  A    between atoms: C_5  and  O_6 
REMARK    2  A    between atoms: O_6  and  C_7 
REMARK    3  A    between atoms: C_7  and  C_8 
REMARK       I    between atoms: C_8  and  N_9 
REMARK    4  A    between atoms: N_9  and  N_10 
REMARK       I    between atoms: N_10  and  C_11 
REMARK    5  A    between atoms: C_11  and  C_12 
REMARK    6  A    between atoms: C_14  and  C_15 
REMARK    7  A    between atoms: C_22  and  C_23 
ROOT
HETATM    1  N   UNL     1      -4.932   3.214 -33.641  1.00  0.00    -0.262 N 
HETATM    2  C   UNL     1      -6.197   2.648 -33.618  1.00  0.00     0.291 C 
HETATM    3  O   UNL     1      -7.235   3.268 -33.814  1.00  0.00    -0.264 OA
HETATM    4  H   UNL     1      -4.123   2.597 -33.592  1.00  0.00     0.190 HD
ENDROOT
BRANCH   2   5
HETATM    5  C   UNL     1      -6.148   1.232 -33.295  1.00  0.00     0.159 A 
HETATM    6  N   UNL     1      -5.807   0.262 -34.232  1.00  0.00    -0.216 NA
HETATM    7  C   UNL     1      -5.918  -0.874 -33.566  1.00  0.00     0.180 A 
HETATM    8  O   UNL     1      -6.225  -0.716 -32.241  1.00  0.00    -0.293 OA
HETATM    9  C   UNL     1      -6.361   0.634 -32.070  1.00  0.00     0.094 A 
BRANCH   7  10
HETATM   10  C   UNL     1      -5.774  -2.246 -34.049  1.00  0.00     0.017 A 
HETATM   11  C   UNL     1      -6.878  -2.901 -34.619  1.00  0.00     0.016 A 
HETATM   12  C   UNL     1      -6.776  -4.221 -35.065  1.00  0.00     0.001 A 
HETATM   13  C   UNL     1      -5.567  -4.905 -34.950  1.00  0.00     0.000 A 
HETATM   14  C   UNL     1      -4.461  -4.269 -34.390  1.00  0.00     0.001 A 
HETATM   15  C   UNL     1      -4.564  -2.949 -33.943  1.00  0.00     0.016 A 
ENDBRANCH   7  10
BRANCH   9  16
HETATM   16  C   UNL     1      -6.640   1.310 -30.740  1.00  0.00     0.046 A 
HETATM   17  C   UNL     1      -5.962   0.765 -29.502  1.00  0.00     0.012 A 
HETATM   18  C   UNL     1      -5.494   2.053 -30.083  1.00  0.00     0.012 A 
ENDBRANCH   9  16
ENDBRANCH   2   5
BRANCH   1  19
HETATM   19  N   UNL     1      -4.739   4.547 -33.997  1.00  0.00    -0.265 N 
HETATM   20  C   UNL     1      -3.556   5.237 -33.860  1.00  0.00     0.260 C 
HETATM   21  O   UNL     1      -3.495   6.395 -34.282  1.00  0.00    -0.269 OA
HETATM   22  H   UNL     1      -5.530   5.067 -34.361  1.00  0.00     0.190 HD
BRANCH  20  23
HETATM   23  C   UNL     1      -2.362   4.558 -33.192  1.00  0.00     0.280 C 
BRANCH  23  24
HETATM   24  O   UNL     1      -1.270   5.468 -33.268  1.00  0.00    -0.342 OA
BRANCH  24  25
HETATM   25  C   UNL     1      -0.842   6.051 -32.110  1.00  0.00     0.069 A 
HETATM   26  C   UNL     1       0.072   5.288 -31.381  1.00  0.00     0.037 A 
HETATM   27  C   UNL     1       0.597   5.761 -30.177  1.00  0.00     0.009 A 
HETATM   28  C   UNL     1       0.198   7.003 -29.676  1.00  0.00    -0.062 A 
HETATM   29  C   UNL     1       0.787   7.530 -28.401  1.00  0.00     0.048 C 
HETATM   30  C   UNL     1      -0.717   7.767 -30.410  1.00  0.00     0.009 A 
HETATM   31  C   UNL     1      -1.245   7.289 -31.616  1.00  0.00     0.037 A 
ENDBRANCH  24  25
ENDBRANCH  23  24
ENDBRANCH  20  23
ENDBRANCH   1  19
TORSDOF 7
ENDMDL
MODEL 5
REMARK VINA RESULT:      -8.1      2.715      4.494
REMARK  7 active torsions:
REMARK  status: ('A' for Active; 'I' for Inactive)
REMARK    1  A    between atoms: C_5  and  O_6 
REMARK    2  A    between atoms: O_6  and  C_7 
REMARK    3  A    between atoms: C_7  and  C_8 
REMARK       I    between atoms: C_8  and  N_9 
REMARK    4  A    between atoms: N_9  and  N_10 
REMARK       I    between atoms: N_10  and  C_11 
REMARK    5  A    between atoms: C_11  and  C_12 
REMARK    6  A    between atoms: C_14  and  C_15 
REMARK    7  A    between atoms: C_22  and  C_23 
ROOT
HETATM    1  N   UNL     1      -5.410   3.612 -34.429  1.00  0.00    -0.262 N 
HETATM    2  C   UNL     1      -6.615   3.285 -33.828  1.00  0.00     0.291 C 
HETATM    3  O   UNL     1      -7.312   4.074 -33.201  1.00  0.00    -0.264 OA
HETATM    4  H   UNL     1      -4.966   2.922 -35.034  1.00  0.00     0.190 HD
ENDROOT
BRANCH   2   5
HETATM    5  C   UNL     1      -6.939   1.878 -33.999  1.00  0.00     0.159 A 
HETATM    6  N   UNL     1      -5.977   0.876 -33.933  1.00  0.00    -0.216 NA
HETATM    7  C   UNL     1      -6.657  -0.231 -34.175  1.00  0.00     0.180 A 
HETATM    8  O   UNL     1      -8.005  -0.040 -34.313  1.00  0.00    -0.293 OA
HETATM    9  C   UNL     1      -8.182   1.312 -34.189  1.00  0.00     0.094 A 
BRANCH   7  10
HETATM   10  C   UNL     1      -6.168  -1.600 -34.327  1.00  0.00     0.017 A 
HETATM   11  C   UNL     1      -7.061  -2.619 -34.697  1.00  0.00     0.016 A 
HETATM   12  C   UNL     1      -6.627  -3.942 -34.824  1.00  0.00     0.001 A 
HETATM   13  C   UNL     1      -5.293  -4.263 -34.585  1.00  0.00     0.000 A 
HETATM   14  C   UNL     1      -4.392  -3.264 -34.221  1.00  0.00     0.001 A 
HETATM   15  C   UNL     1      -4.827  -1.942 -34.093  1.00  0.00     0.016 A 
ENDBRANCH   7  10
BRANCH   9  16
HETATM   16  C   UNL     1      -9.530   2.008 -34.207  1.00  0.00     0.046 A 
HETATM   17  C   UNL     1     -10.769   1.182 -33.937  1.00  0.00     0.012 A 
HETATM   18  C   UNL     1     -10.274   2.120 -32.891  1.00  0.00     0.012 A 
ENDBRANCH   9  16
ENDBRANCH   2   5
BRANCH   1  19
HETATM   19  N   UNL     1      -4.940   4.923 -34.447  1.00  0.00    -0.265 N 
HETATM   20  C   UNL     1      -3.678   5.314 -34.063  1.00  0.00     0.260 C 
HETATM   21  O   UNL     1      -3.359   6.499 -34.196  1.00  0.00    -0.269 OA
HETATM   22  H   UNL     1      -5.576   5.659 -34.738  1.00  0.00     0.190 HD
BRANCH  20  23
HETATM   23  C   UNL     1      -2.713   4.281 -33.484  1.00  0.00     0.280 C 
BRANCH  23  24
HETATM   24  O   UNL     1      -2.845   4.337 -32.068  1.00  0.00    -0.342 OA
BRANCH  24  25
HETATM   25  C   UNL     1      -3.691   3.448 -31.469  1.00  0.00     0.069 A 
HETATM   26  C   UNL     1      -3.364   2.107 -31.676  1.00  0.00     0.037 A 
HETATM   27  C   UNL     1      -4.141   1.088 -31.121  1.00  0.00     0.009 A 
HETATM   28  C   UNL     1      -5.270   1.402 -30.359  1.00  0.00    -0.062 A 
HETATM   29  C   UNL     1      -6.085   0.311 -29.731  1.00  0.00     0.048 C 
HETATM   30  C   UNL     1      -5.594   2.748 -30.150  1.00  0.00     0.009 A 
HETATM   31  C   UNL     1      -4.815   3.767 -30.712  1.00  0.00     0.037 A 
ENDBRANCH  24  25
ENDBRANCH  23  24
ENDBRANCH  20  23
ENDBRANCH   1  19
TORSDOF 7
ENDMDL
MODEL 6
REMARK VINA RESULT:      -8.1      2.601      7.706
REMARK  7 active torsions:
REMARK  status: ('A' for Active; 'I' for Inactive)
REMARK    1  A    between atoms: C_5  and  O_6 
REMARK    2  A    between atoms: O_6  and  C_7 
REMARK    3  A    between atoms: C_7  and  C_8 
REMARK       I    between atoms: C_8  and  N_9 
REMARK    4  A    between atoms: N_9  and  N_10 
REMARK       I    between atoms: N_10  and  C_11 
REMARK    5  A    between atoms: C_11  and  C_12 
REMARK    6  A    between atoms: C_14  and  C_15 
REMARK    7  A    between atoms: C_22  and  C_23 
ROOT
HETATM    1  N   UNL     1      -3.046  -0.038 -31.788  1.00  0.00    -0.262 N 
HETATM    2  C   UNL     1      -3.953   0.807 -31.169  1.00  0.00     0.291 C 
HETATM    3  O   UNL     1      -4.889   0.429 -30.476  1.00  0.00    -0.264 OA
HETATM    4  H   UNL     1      -2.229   0.372 -32.239  1.00  0.00     0.190 HD
ENDROOT
BRANCH   2   5
HETATM    5  C   UNL     1      -3.682   2.203 -31.472  1.00  0.00     0.159 A 
HETATM    6  N   UNL     1      -2.453   2.800 -31.215  1.00  0.00    -0.216 NA
HETATM    7  C   UNL     1      -2.626   4.055 -31.588  1.00  0.00     0.180 A 
HETATM    8  O   UNL     1      -3.849   4.307 -32.149  1.00  0.00    -0.293 OA
HETATM    9  C   UNL     1      -4.518   3.116 -32.082  1.00  0.00     0.094 A 
BRANCH   7  10
HETATM   10  C   UNL     1      -1.710   5.189 -31.471  1.00  0.00     0.017 A 
HETATM   11  C   UNL     1      -1.952   6.356 -32.212  1.00  0.00     0.016 A 
HETATM   12  C   UNL     1      -1.079   7.446 -32.139  1.00  0.00     0.001 A 
HETATM   13  C   UNL     1       0.047   7.383 -31.322  1.00  0.00     0.000 A 
HETATM   14  C   UNL     1       0.301   6.233 -30.577  1.00  0.00     0.001 A 
HETATM   15  C   UNL     1      -0.572   5.143 -30.651  1.00  0.00     0.016 A 
ENDBRANCH   7  10
BRANCH   9  16
HETATM   16  C   UNL     1      -5.907   2.876 -32.643  1.00  0.00     0.046 A 
HETATM   17  C   UNL     1      -6.731   4.076 -33.058  1.00  0.00     0.012 A 
HETATM   18  C   UNL     1      -6.133   3.203 -34.106  1.00  0.00     0.012 A 
ENDBRANCH   9  16
ENDBRANCH   2   5
BRANCH   1  19
HETATM   19  N   UNL     1      -3.077  -1.415 -31.579  1.00  0.00    -0.265 N 
HETATM   20  C   UNL     1      -3.527  -2.342 -32.490  1.00  0.00     0.260 C 
HETATM   21  O   UNL     1      -3.435  -3.540 -32.211  1.00  0.00    -0.269 OA
HETATM   22  H   UNL     1      -2.772  -1.772 -30.679  1.00  0.00     0.190 HD
BRANCH  20  23
HETATM   23  C   UNL     1      -4.129  -1.867 -33.812  1.00  0.00     0.280 C 
BRANCH  23  24
HETATM   24  O   UNL     1      -5.476  -2.325 -33.844  1.00  0.00    -0.342 OA
BRANCH  24  25
HETATM   25  C   UNL     1      -6.470  -1.389 -33.835  1.00  0.00     0.069 A 
HETATM   26  C   UNL     1      -6.831  -0.915 -35.098  1.00  0.00     0.037 A 
HETATM   27  C   UNL     1      -7.835   0.044 -35.240  1.00  0.00     0.009 A 
HETATM   28  C   UNL     1      -8.484   0.555 -34.113  1.00  0.00    -0.062 A 
HETATM   29  C   UNL     1      -9.588   1.558 -34.265  1.00  0.00     0.048 C 
HETATM   30  C   UNL     1      -8.123   0.075 -32.848  1.00  0.00     0.009 A 
HETATM   31  C   UNL     1      -7.111  -0.884 -32.707  1.00  0.00     0.037 A 
ENDBRANCH  24  25
ENDBRANCH  23  24
ENDBRANCH  20  23
ENDBRANCH   1  19
TORSDOF 7
ENDMDL
MODEL 7
REMARK VINA RESULT:      -8.0      2.333      8.120
REMARK  7 active torsions:
REMARK  status: ('A' for Active; 'I' for Inactive)
REMARK    1  A    between atoms: C_5  and  O_6 
REMARK    2  A    between atoms: O_6  and  C_7 
REMARK    3  A    between atoms: C_7  and  C_8 
REMARK       I    between atoms: C_8  and  N_9 
REMARK    4  A    between atoms: N_9  and  N_10 
REMARK       I    between atoms: N_10  and  C_11 
REMARK    5  A    between atoms: C_11  and  C_12 
REMARK    6  A    between atoms: C_14  and  C_15 
REMARK    7  A    between atoms: C_22  and  C_23 
ROOT
HETATM    1  N   UNL     1      -5.086   3.605 -31.081  1.00  0.00    -0.262 N 
HETATM    2  C   UNL     1      -4.837   4.697 -31.898  1.00  0.00     0.291 C 
HETATM    3  O   UNL     1      -5.596   5.092 -32.774  1.00  0.00    -0.264 OA
HETATM    4  H   UNL     1      -4.456   3.430 -30.299  1.00  0.00     0.190 HD
ENDROOT
BRANCH   2   5
HETATM    5  C   UNL     1      -3.544   5.299 -31.615  1.00  0.00     0.159 A 
HETATM    6  N   UNL     1      -3.264   5.942 -30.414  1.00  0.00    -0.216 NA
HETATM    7  C   UNL     1      -2.026   6.373 -30.567  1.00  0.00     0.180 A 
HETATM    8  O   UNL     1      -1.443   5.991 -31.745  1.00  0.00    -0.293 OA
HETATM    9  C   UNL     1      -2.416   5.294 -32.409  1.00  0.00     0.094 A 
BRANCH   7  10
HETATM   10  C   UNL     1      -1.218   7.200 -29.672  1.00  0.00     0.017 A 
HETATM   11  C   UNL     1       0.111   6.836 -29.400  1.00  0.00     0.016 A 
HETATM   12  C   UNL     1       0.898   7.593 -28.528  1.00  0.00     0.001 A 
HETATM   13  C   UNL     1       0.367   8.728 -27.918  1.00  0.00     0.000 A 
HETATM   14  C   UNL     1      -0.949   9.106 -28.179  1.00  0.00     0.001 A 
HETATM   15  C   UNL     1      -1.735   8.347 -29.051  1.00  0.00     0.016 A 
ENDBRANCH   7  10
BRANCH   9  16
HETATM   16  C   UNL     1      -2.222   4.609 -33.749  1.00  0.00     0.046 A 
HETATM   17  C   UNL     1      -2.831   5.249 -34.977  1.00  0.00     0.012 A 
HETATM   18  C   UNL     1      -1.358   5.316 -34.773  1.00  0.00     0.012 A 
ENDBRANCH   9  16
ENDBRANCH   2   5
BRANCH   1  19
HETATM   19  N   UNL     1      -6.297   2.920 -31.134  1.00  0.00    -0.265 N 
HETATM   20  C   UNL     1      -6.430   1.568 -31.348  1.00  0.00     0.260 C 
HETATM   21  O   UNL     1      -7.558   1.068 -31.299  1.00  0.00    -0.269 OA
HETATM   22  H   UNL     1      -7.156   3.452 -31.035  1.00  0.00     0.190 HD
BRANCH  20  23
HETATM   23  C   UNL     1      -5.189   0.727 -31.642  1.00  0.00     0.280 C 
BRANCH  23  24
HETATM   24  O   UNL     1      -5.091   0.610 -33.058  1.00  0.00    -0.342 OA
BRANCH  24  25
HETATM   25  C   UNL     1      -5.447  -0.579 -33.626  1.00  0.00     0.069 A 
HETATM   26  C   UNL     1      -4.410  -1.510 -33.719  1.00  0.00     0.037 A 
HETATM   27  C   UNL     1      -4.630  -2.770 -34.277  1.00  0.00     0.009 A 
HETATM   28  C   UNL     1      -5.894  -3.111 -34.767  1.00  0.00    -0.062 A 
HETATM   29  C   UNL     1      -6.143  -4.477 -35.334  1.00  0.00     0.048 C 
HETATM   30  C   UNL     1      -6.933  -2.177 -34.670  1.00  0.00     0.009 A 
HETATM   31  C   UNL     1      -6.708  -0.911 -34.114  1.00  0.00     0.037 A 
ENDBRANCH  24  25
ENDBRANCH  23  24
ENDBRANCH  20  23
ENDBRANCH   1  19
TORSDOF 7
ENDMDL
MODEL 8
REMARK VINA RESULT:      -7.9      2.325      3.564
REMARK  7 active torsions:
REMARK  status: ('A' for Active; 'I' for Inactive)
REMARK    1  A    between atoms: C_5  and  O_6 
REMARK    2  A    between atoms: O_6  and  C_7 
REMARK    3  A    between atoms: C_7  and  C_8 
REMARK       I    between atoms: C_8  and  N_9 
REMARK    4  A    between atoms: N_9  and  N_10 
REMARK       I    between atoms: N_10  and  C_11 
REMARK    5  A    between atoms: C_11  and  C_12 
REMARK    6  A    between atoms: C_14  and  C_15 
REMARK    7  A    between atoms: C_22  and  C_23 
ROOT
HETATM    1  N   UNL     1      -6.422   3.358 -33.034  1.00  0.00    -0.262 N 
HETATM    2  C   UNL     1      -6.182   2.262 -32.221  1.00  0.00     0.291 C 
HETATM    3  O   UNL     1      -5.706   2.327 -31.094  1.00  0.00    -0.264 OA
HETATM    4  H   UNL     1      -6.936   3.215 -33.902  1.00  0.00     0.190 HD
ENDROOT
BRANCH   2   5
HETATM    5  C   UNL     1      -6.528   1.014 -32.882  1.00  0.00     0.159 A 
HETATM    6  N   UNL     1      -5.678  -0.086 -32.898  1.00  0.00    -0.216 NA
HETATM    7  C   UNL     1      -6.331  -0.981 -33.617  1.00  0.00     0.180 A 
HETATM    8  O   UNL     1      -7.582  -0.581 -34.004  1.00  0.00    -0.293 OA
HETATM    9  C   UNL     1      -7.708   0.693 -33.522  1.00  0.00     0.094 A 
BRANCH   7  10
HETATM   10  C   UNL     1      -5.899  -2.306 -34.057  1.00  0.00     0.017 A 
HETATM   11  C   UNL     1      -6.809  -3.152 -34.711  1.00  0.00     0.016 A 
HETATM   12  C   UNL     1      -6.430  -4.434 -35.120  1.00  0.00     0.001 A 
HETATM   13  C   UNL     1      -5.135  -4.887 -34.883  1.00  0.00     0.000 A 
HETATM   14  C   UNL     1      -4.217  -4.059 -34.238  1.00  0.00     0.001 A 
HETATM   15  C   UNL     1      -4.597  -2.778 -33.828  1.00  0.00     0.016 A 
ENDBRANCH   7  10
BRANCH   9  16
HETATM   16  C   UNL     1      -8.961   1.540 -33.645  1.00  0.00     0.046 A 
HETATM   17  C   UNL     1     -10.301   0.839 -33.680  1.00  0.00     0.012 A 
HETATM   18  C   UNL     1      -9.895   1.578 -32.453  1.00  0.00     0.012 A 
ENDBRANCH   9  16
ENDBRANCH   2   5
BRANCH   1  19
HETATM   19  N   UNL     1      -6.225   4.658 -32.576  1.00  0.00    -0.265 N 
HETATM   20  C   UNL     1      -5.395   5.585 -33.163  1.00  0.00     0.260 C 
HETATM   21  O   UNL     1      -5.365   6.729 -32.701  1.00  0.00    -0.269 OA
HETATM   22  H   UNL     1      -6.705   4.948 -31.729  1.00  0.00     0.190 HD
BRANCH  20  23
HETATM   23  C   UNL     1      -4.537   5.176 -34.359  1.00  0.00     0.280 C 
BRANCH  23  24
HETATM   24  O   UNL     1      -3.522   4.309 -33.865  1.00  0.00    -0.342 OA
BRANCH  24  25
HETATM   25  C   UNL     1      -2.538   4.852 -33.092  1.00  0.00     0.069 A 
HETATM   26  C   UNL     1      -1.851   5.912 -33.688  1.00  0.00     0.037 A 
HETATM   27  C   UNL     1      -0.819   6.565 -33.011  1.00  0.00     0.009 A 
HETATM   28  C   UNL     1      -0.449   6.153 -31.728  1.00  0.00    -0.062 A 
HETATM   29  C   UNL     1       0.634   6.876 -30.984  1.00  0.00     0.048 C 
HETATM   30  C   UNL     1      -1.142   5.093 -31.131  1.00  0.00     0.009 A 
HETATM   31  C   UNL     1      -2.173   4.436 -31.814  1.00  0.00     0.037 A 
ENDBRANCH  24  25
ENDBRANCH  23  24
ENDBRANCH  20  23
ENDBRANCH   1  19
TORSDOF 7
ENDMDL
MODEL 9
REMARK VINA RESULT:      -7.9      2.657      4.632
REMARK  7 active torsions:
REMARK  status: ('A' for Active; 'I' for Inactive)
REMARK    1  A    between atoms: C_5  and  O_6 
REMARK    2  A    between atoms: O_6  and  C_7 
REMARK    3  A    between atoms: C_7  and  C_8 
REMARK       I    between atoms: C_8  and  N_9 
REMARK    4  A    between atoms: N_9  and  N_10 
REMARK       I    between atoms: N_10  and  C_11 
REMARK    5  A    between atoms: C_11  and  C_12 
REMARK    6  A    between atoms: C_14  and  C_15 
REMARK    7  A    between atoms: C_22  and  C_23 
ROOT
HETATM    1  N   UNL     1      -3.522   3.412 -33.186  1.00  0.00    -0.262 N 
HETATM    2  C   UNL     1      -3.316   2.598 -32.084  1.00  0.00     0.291 C 
HETATM    3  O   UNL     1      -2.517   2.838 -31.186  1.00  0.00    -0.264 OA
HETATM    4  H   UNL     1      -4.295   3.194 -33.813  1.00  0.00     0.190 HD
ENDROOT
BRANCH   2   5
HETATM    5  C   UNL     1      -4.136   1.400 -32.138  1.00  0.00     0.159 A 
HETATM    6  N   UNL     1      -3.904   0.374 -33.049  1.00  0.00    -0.216 NA
HETATM    7  C   UNL     1      -4.871  -0.492 -32.803  1.00  0.00     0.180 A 
HETATM    8  O   UNL     1      -5.669  -0.152 -31.744  1.00  0.00    -0.293 OA
HETATM    9  C   UNL     1      -5.189   1.055 -31.315  1.00  0.00     0.094 A 
BRANCH   7  10
HETATM   10  C   UNL     1      -5.202  -1.730 -33.505  1.00  0.00     0.017 A 
HETATM   11  C   UNL     1      -4.224  -2.726 -33.658  1.00  0.00     0.016 A 
HETATM   12  C   UNL     1      -4.506  -3.909 -34.347  1.00  0.00     0.001 A 
HETATM   13  C   UNL     1      -5.772  -4.113 -34.892  1.00  0.00     0.000 A 
HETATM   14  C   UNL     1      -6.756  -3.137 -34.746  1.00  0.00     0.001 A 
HETATM   15  C   UNL     1      -6.473  -1.954 -34.058  1.00  0.00     0.016 A 
ENDBRANCH   7  10
BRANCH   9  16
HETATM   16  C   UNL     1      -5.716   1.812 -30.110  1.00  0.00     0.046 A 
HETATM   17  C   UNL     1      -5.962   3.299 -30.248  1.00  0.00     0.012 A 
HETATM   18  C   UNL     1      -7.123   2.368 -30.198  1.00  0.00     0.012 A 
ENDBRANCH   9  16
ENDBRANCH   2   5
BRANCH   1  19
HETATM   19  N   UNL     1      -2.889   4.647 -33.305  1.00  0.00    -0.265 N 
HETATM   20  C   UNL     1      -3.523   5.867 -33.257  1.00  0.00     0.260 C 
HETATM   21  O   UNL     1      -2.838   6.893 -33.302  1.00  0.00    -0.269 OA
HETATM   22  H   UNL     1      -1.887   4.661 -33.467  1.00  0.00     0.190 HD
BRANCH  20  23
HETATM   23  C   UNL     1      -5.047   5.920 -33.155  1.00  0.00     0.280 C 
BRANCH  23  24
HETATM   24  O   UNL     1      -5.563   5.114 -34.208  1.00  0.00    -0.342 OA
BRANCH  24  25
HETATM   25  C   UNL     1      -6.645   4.326 -33.939  1.00  0.00     0.069 A 
HETATM   26  C   UNL     1      -6.471   2.976 -34.249  1.00  0.00     0.037 A 
HETATM   27  C   UNL     1      -7.494   2.054 -34.023  1.00  0.00     0.009 A 
HETATM   28  C   UNL     1      -8.718   2.476 -33.496  1.00  0.00    -0.062 A 
HETATM   29  C   UNL     1      -9.806   1.483 -33.218  1.00  0.00     0.048 C 
HETATM   30  C   UNL     1      -8.889   3.830 -33.183  1.00  0.00     0.009 A 
HETATM   31  C   UNL     1      -7.862   4.755 -33.414  1.00  0.00     0.037 A 
ENDBRANCH  24  25
ENDBRANCH  23  24
ENDBRANCH  20  23
ENDBRANCH   1  19
TORSDOF 7
ENDMDL
MODEL 10
REMARK VINA RESULT:      -7.8      1.704      2.466
REMARK  7 active torsions:
REMARK  status: ('A' for Active; 'I' for Inactive)
REMARK    1  A    between atoms: C_5  and  O_6 
REMARK    2  A    between atoms: O_6  and  C_7 
REMARK    3  A    between atoms: C_7  and  C_8 
REMARK       I    between atoms: C_8  and  N_9 
REMARK    4  A    between atoms: N_9  and  N_10 
REMARK       I    between atoms: N_10  and  C_11 
REMARK    5  A    between atoms: C_11  and  C_12 
REMARK    6  A    between atoms: C_14  and  C_15 
REMARK    7  A    between atoms: C_22  and  C_23 
ROOT
HETATM    1  N   UNL     1      -5.652   2.469 -30.586  1.00  0.00    -0.262 N 
HETATM    2  C   UNL     1      -4.792   2.165 -31.629  1.00  0.00     0.291 C 
HETATM    3  O   UNL     1      -3.713   2.714 -31.818  1.00  0.00    -0.264 OA
HETATM    4  H   UNL     1      -6.466   1.874 -30.438  1.00  0.00     0.190 HD
ENDROOT
BRANCH   2   5
HETATM    5  C   UNL     1      -5.341   1.138 -32.499  1.00  0.00     0.159 A 
HETATM    6  N   UNL     1      -4.892  -0.178 -32.478  1.00  0.00    -0.216 NA
HETATM    7  C   UNL     1      -5.601  -0.769 -33.424  1.00  0.00     0.180 A 
HETATM    8  O   UNL     1      -6.540   0.041 -34.005  1.00  0.00    -0.293 OA
HETATM    9  C   UNL     1      -6.376   1.258 -33.403  1.00  0.00     0.094 A 
BRANCH   7  10
HETATM   10  C   UNL     1      -5.508  -2.137 -33.930  1.00  0.00     0.017 A 
HETATM   11  C   UNL     1      -6.629  -2.733 -34.531  1.00  0.00     0.016 A 
HETATM   12  C   UNL     1      -6.576  -4.048 -35.000  1.00  0.00     0.001 A 
HETATM   13  C   UNL     1      -5.401  -4.786 -34.877  1.00  0.00     0.000 A 
HETATM   14  C   UNL     1      -4.278  -4.209 -34.285  1.00  0.00     0.001 A 
HETATM   15  C   UNL     1      -4.332  -2.893 -33.815  1.00  0.00     0.016 A 
ENDBRANCH   7  10
BRANCH   9  16
HETATM   16  C   UNL     1      -7.241   2.476 -33.673  1.00  0.00     0.046 A 
HETATM   17  C   UNL     1      -8.638   2.259 -34.211  1.00  0.00     0.012 A 
HETATM   18  C   UNL     1      -8.459   2.673 -32.793  1.00  0.00     0.012 A 
ENDBRANCH   9  16
ENDBRANCH   2   5
BRANCH   1  19
HETATM   19  N   UNL     1      -5.296   3.378 -29.592  1.00  0.00    -0.265 N 
HETATM   20  C   UNL     1      -5.700   4.692 -29.543  1.00  0.00     0.260 C 
HETATM   21  O   UNL     1      -5.374   5.376 -28.568  1.00  0.00    -0.269 OA
HETATM   22  H   UNL     1      -4.668   3.067 -28.857  1.00  0.00     0.190 HD
BRANCH  20  23
HETATM   23  C   UNL     1      -6.532   5.267 -30.688  1.00  0.00     0.280 C 
BRANCH  23  24
HETATM   24  O   UNL     1      -5.771   6.323 -31.266  1.00  0.00    -0.342 OA
BRANCH  24  25
HETATM   25  C   UNL     1      -4.870   6.002 -32.239  1.00  0.00     0.069 A 
HETATM   26  C   UNL     1      -3.544   6.303 -31.924  1.00  0.00     0.037 A 
HETATM   27  C   UNL     1      -2.515   6.026 -32.826  1.00  0.00     0.009 A 
HETATM   28  C   UNL     1      -2.803   5.456 -34.068  1.00  0.00    -0.062 A 
HETATM   29  C   UNL     1      -1.696   5.125 -35.024  1.00  0.00     0.048 C 
HETATM   30  C   UNL     1      -4.134   5.152 -34.381  1.00  0.00     0.009 A 
HETATM   31  C   UNL     1      -5.165   5.435 -33.477  1.00  0.00     0.037 A 
ENDBRANCH  24  25
ENDBRANCH  23  24
ENDBRANCH  20  23
ENDBRANCH   1  19
TORSDOF 7
ENDMDL
