MODEL 1
REMARK VINA RESULT:      -7.8      0.000      0.000
REMARK  8 active torsions:
REMARK  status: ('A' for Active; 'I' for Inactive)
REMARK    1  A    between atoms: C_7  and  C_8 
REMARK       I    between atoms: C_8  and  N_9 
REMARK    2  A    between atoms: N_9  and  C_10 
REMARK    3  A    between atoms: C_11  and  C_12 
REMARK       I    between atoms: C_12  and  N_13 
REMARK    4  A    between atoms: N_13  and  C_14 
REMARK    5  A    between atoms: C_14  and  C_15 
REMARK    6  A    between atoms: C_15  and  C_16 
REMARK    7  A    between atoms: C_18  and  O_19 
REMARK    8  A    between atoms: C_21  and  O_22 
ROOT
HETATM    1  C   UNL     1      -4.539   4.139 -33.628  1.00  0.00     0.050 A 
HETATM    2  C   UNL     1      -3.492   3.744 -32.764  1.00  0.00     0.058 A 
HETATM    3  C   UNL     1      -2.221   4.343 -32.860  1.00  0.00     0.019 A 
HETATM    4  C   UNL     1      -1.989   5.354 -33.789  1.00  0.00     0.001 A 
HETATM    5  C   UNL     1      -3.018   5.765 -34.628  1.00  0.00     0.002 A 
HETATM    6  C   UNL     1      -4.279   5.161 -34.550  1.00  0.00     0.030 A 
ENDROOT
BRANCH   2   7
HETATM    7  C   UNL     1      -3.704   2.685 -31.740  1.00  0.00     0.253 C 
HETATM    8  N   UNL     1      -3.202   1.437 -32.042  1.00  0.00    -0.356 N 
HETATM    9  H   UNL     1      -2.617   1.315 -32.860  1.00  0.00     0.162 HD
HETATM   10  O   UNL     1      -4.264   2.945 -30.682  1.00  0.00    -0.268 OA
BRANCH   8  11
HETATM   11  C   UNL     1      -3.343   0.329 -31.117  1.00  0.00     0.127 C 
BRANCH  11  12
HETATM   12  C   UNL     1      -2.957  -1.020 -31.732  1.00  0.00     0.058 C 
BRANCH  12  13
HETATM   13  C   UNL     1      -3.942  -1.639 -32.703  1.00  0.00    -0.054 A 
HETATM   14  C   UNL     1      -5.107  -0.982 -33.126  1.00  0.00     0.046 A 
HETATM   15  C   UNL     1      -6.002  -1.594 -34.014  1.00  0.00     0.102 A 
HETATM   16  C   UNL     1      -5.746  -2.901 -34.473  1.00  0.00     0.101 A 
HETATM   17  C   UNL     1      -4.597  -3.567 -34.039  1.00  0.00     0.040 A 
HETATM   18  C   UNL     1      -3.708  -2.943 -33.160  1.00  0.00     0.010 A 
BRANCH  15  19
HETATM   19  O   UNL     1      -7.150  -1.006 -34.487  1.00  0.00    -0.353 OA
HETATM   20  C   UNL     1      -7.019   0.192 -35.240  1.00  0.00     0.210 C 
ENDBRANCH  15  19
BRANCH  16  21
HETATM   21  O   UNL     1      -6.669  -3.432 -35.340  1.00  0.00    -0.353 OA
HETATM   22  C   UNL     1      -6.550  -4.808 -35.667  1.00  0.00     0.210 C 
ENDBRANCH  16  21
ENDBRANCH  12  13
ENDBRANCH  11  12
ENDBRANCH   8  11
ENDBRANCH   2   7
BRANCH   1  23
HETATM   23  N   UNL     1      -5.802   3.500 -33.540  1.00  0.00    -0.321 N 
HETATM   24  C   UNL     1      -6.888   3.834 -32.750  1.00  0.00     0.265 C 
HETATM   25  O   UNL     1      -6.893   4.760 -31.944  1.00  0.00    -0.267 OA
HETATM   26  H   UNL     1      -5.928   2.685 -34.148  1.00  0.00     0.169 HD
BRANCH  24  27
HETATM   27  C   UNL     1      -8.110   2.929 -32.931  1.00  0.00     0.097 C 
HETATM   28  C   UNL     1      -8.258   1.781 -32.220  1.00  0.00     0.064 C 
HETATM   29  C   UNL     1      -7.254   1.270 -31.218  1.00  0.00     0.078 C 
HETATM   30  O   UNL     1      -9.331   0.906 -32.310  1.00  0.00    -0.353 OA
HETATM   31  C   UNL     1     -10.526   1.399 -32.912  1.00  0.00     0.185 C 
HETATM   32  C   UNL     1     -10.259   1.940 -34.298  1.00  0.00     0.106 C 
HETATM   33  S   UNL     1      -9.280   3.446 -34.130  1.00  0.00    -0.120 SA
ENDBRANCH  24  27
ENDBRANCH   1  23
TORSDOF 8
ENDMDL
MODEL 2
REMARK VINA RESULT:      -7.8      2.067      6.468
REMARK  8 active torsions:
REMARK  status: ('A' for Active; 'I' for Inactive)
REMARK    1  A    between atoms: C_7  and  C_8 
REMARK       I    between atoms: C_8  and  N_9 
REMARK    2  A    between atoms: N_9  and  C_10 
REMARK    3  A    between atoms: C_11  and  C_12 
REMARK       I    between atoms: C_12  and  N_13 
REMARK    4  A    between atoms: N_13  and  C_14 
REMARK    5  A    between atoms: C_14  and  C_15 
REMARK    6  A    between atoms: C_15  and  C_16 
REMARK    7  A    between atoms: C_18  and  O_19 
REMARK    8  A    between atoms: C_21  and  O_22 
ROOT
HETATM    1  C   UNL     1      -6.451  -2.079 -34.142  1.00  0.00     0.050 A 
HETATM    2  C   UNL     1      -5.088  -2.168 -33.775  1.00  0.00     0.058 A 
HETATM    3  C   UNL     1      -4.363  -3.354 -34.000  1.00  0.00     0.019 A 
HETATM    4  C   UNL     1      -4.972  -4.444 -34.615  1.00  0.00     0.001 A 
HETATM    5  C   UNL     1      -6.305  -4.358 -35.000  1.00  0.00     0.002 A 
HETATM    6  C   UNL     1      -7.037  -3.189 -34.762  1.00  0.00     0.030 A 
ENDROOT
BRANCH   2   7
HETATM    7  C   UNL     1      -4.391  -1.017 -33.137  1.00  0.00     0.253 C 
HETATM    8  N   UNL     1      -4.036  -1.177 -31.814  1.00  0.00    -0.356 N 
HETATM    9  H   UNL     1      -4.142  -2.082 -31.372  1.00  0.00     0.162 HD
HETATM   10  O   UNL     1      -4.129  -0.011 -33.786  1.00  0.00    -0.268 OA
BRANCH   8  11
HETATM   11  C   UNL     1      -3.347  -0.126 -31.092  1.00  0.00     0.127 C 
BRANCH  11  12
HETATM   12  C   UNL     1      -4.302   0.872 -30.428  1.00  0.00     0.058 C 
BRANCH  12  13
HETATM   13  C   UNL     1      -4.250   2.304 -30.920  1.00  0.00    -0.054 A 
HETATM   14  C   UNL     1      -3.213   2.792 -31.728  1.00  0.00     0.046 A 
HETATM   15  C   UNL     1      -3.192   4.129 -32.151  1.00  0.00     0.102 A 
HETATM   16  C   UNL     1      -4.213   5.007 -31.740  1.00  0.00     0.101 A 
HETATM   17  C   UNL     1      -5.237   4.531 -30.918  1.00  0.00     0.040 A 
HETATM   18  C   UNL     1      -5.252   3.193 -30.510  1.00  0.00     0.010 A 
BRANCH  15  19
HETATM   19  O   UNL     1      -2.222   4.672 -32.958  1.00  0.00    -0.353 OA
HETATM   20  C   UNL     1      -1.008   5.088 -32.349  1.00  0.00     0.210 C 
ENDBRANCH  15  19
BRANCH  16  21
HETATM   21  O   UNL     1      -4.122   6.300 -32.195  1.00  0.00    -0.353 OA
HETATM   22  C   UNL     1      -4.496   7.340 -31.303  1.00  0.00     0.210 C 
ENDBRANCH  16  21
ENDBRANCH  12  13
ENDBRANCH  11  12
ENDBRANCH   8  11
ENDBRANCH   2   7
BRANCH   1  23
HETATM   23  N   UNL     1      -7.174  -0.888 -33.875  1.00  0.00    -0.321 N 
HETATM   24  C   UNL     1      -7.453   0.164 -34.729  1.00  0.00     0.265 C 
HETATM   25  O   UNL     1      -7.057   0.233 -35.889  1.00  0.00    -0.267 OA
HETATM   26  H   UNL     1      -7.545  -0.800 -32.924  1.00  0.00     0.169 HD
BRANCH  24  27
HETATM   27  C   UNL     1      -8.288   1.286 -34.105  1.00  0.00     0.097 C 
HETATM   28  C   UNL     1      -7.748   2.498 -33.811  1.00  0.00     0.064 C 
HETATM   29  C   UNL     1      -6.302   2.857 -34.037  1.00  0.00     0.078 C 
HETATM   30  O   UNL     1      -8.427   3.573 -33.256  1.00  0.00    -0.353 OA
HETATM   31  C   UNL     1      -9.852   3.549 -33.319  1.00  0.00     0.185 C 
HETATM   32  C   UNL     1     -10.407   2.287 -32.699  1.00  0.00     0.106 C 
HETATM   33  S   UNL     1      -9.964   0.900 -33.765  1.00  0.00    -0.120 SA
ENDBRANCH  24  27
ENDBRANCH   1  23
TORSDOF 8
ENDMDL
MODEL 3
REMARK VINA RESULT:      -7.7      3.167      4.932
REMARK  8 active torsions:
REMARK  status: ('A' for Active; 'I' for Inactive)
REMARK    1  A    between atoms: C_7  and  C_8 
REMARK       I    between atoms: C_8  and  N_9 
REMARK    2  A    between atoms: N_9  and  C_10 
REMARK    3  A    between atoms: C_11  and  C_12 
REMARK       I    between atoms: C_12  and  N_13 
REMARK    4  A    between atoms: N_13  and  C_14 
REMARK    5  A    between atoms: C_14  and  C_15 
REMARK    6  A    between atoms: C_15  and  C_16 
REMARK    7  A    between atoms: C_18  and  O_19 
REMARK    8  A    between atoms: C_21  and  O_22 
ROOT
HETATM    1  C   UNL     1      -9.403   3.526 -30.733  1.00  0.00     0.050 A 
HETATM    2  C   UNL     1      -8.389   2.658 -31.198  1.00  0.00     0.058 A 
HETATM    3  C   UNL     1      -7.040   2.890 -30.864  1.00  0.00     0.019 A 
HETATM    4  C   UNL     1      -6.694   3.962 -30.047  1.00  0.00     0.001 A 
HETATM    5  C   UNL     1      -7.686   4.809 -29.567  1.00  0.00     0.002 A 
HETATM    6  C   UNL     1      -9.026   4.594 -29.909  1.00  0.00     0.030 A 
ENDROOT
BRANCH   2   7
HETATM    7  C   UNL     1      -8.719   1.485 -32.053  1.00  0.00     0.253 C 
HETATM    8  N   UNL     1      -8.520   1.645 -33.409  1.00  0.00    -0.356 N 
HETATM    9  H   UNL     1      -8.055   2.476 -33.753  1.00  0.00     0.162 HD
HETATM   10  O   UNL     1      -9.108   0.438 -31.551  1.00  0.00    -0.268 OA
BRANCH   8  11
HETATM   11  C   UNL     1      -8.801   0.568 -34.338  1.00  0.00     0.127 C 
BRANCH  11  12
HETATM   12  C   UNL     1      -7.612   0.234 -35.245  1.00  0.00     0.058 C 
BRANCH  12  13
HETATM   13  C   UNL     1      -6.562  -0.703 -34.684  1.00  0.00    -0.054 A 
HETATM   14  C   UNL     1      -5.466  -0.253 -33.932  1.00  0.00     0.046 A 
HETATM   15  C   UNL     1      -4.506  -1.151 -33.442  1.00  0.00     0.102 A 
HETATM   16  C   UNL     1      -4.625  -2.524 -33.727  1.00  0.00     0.101 A 
HETATM   17  C   UNL     1      -5.704  -2.975 -34.492  1.00  0.00     0.040 A 
HETATM   18  C   UNL     1      -6.659  -2.072 -34.968  1.00  0.00     0.010 A 
BRANCH  15  19
HETATM   19  O   UNL     1      -3.420  -0.787 -32.684  1.00  0.00    -0.353 OA
HETATM   20  C   UNL     1      -3.489   0.442 -31.974  1.00  0.00     0.210 C 
ENDBRANCH  15  19
BRANCH  16  21
HETATM   21  O   UNL     1      -3.646  -3.338 -33.213  1.00  0.00    -0.353 OA
HETATM   22  C   UNL     1      -3.580  -4.673 -33.692  1.00  0.00     0.210 C 
ENDBRANCH  16  21
ENDBRANCH  12  13
ENDBRANCH  11  12
ENDBRANCH   8  11
ENDBRANCH   2   7
BRANCH   1  23
HETATM   23  N   UNL     1     -10.752   3.295 -31.108  1.00  0.00    -0.321 N 
HETATM   24  C   UNL     1     -11.369   3.554 -32.319  1.00  0.00     0.265 C 
HETATM   25  O   UNL     1     -10.813   4.084 -33.276  1.00  0.00    -0.267 OA
HETATM   26  H   UNL     1     -11.345   2.875 -30.387  1.00  0.00     0.169 HD
BRANCH  24  27
HETATM   27  C   UNL     1     -12.845   3.150 -32.380  1.00  0.00     0.097 C 
HETATM   28  C   UNL     1     -13.275   2.139 -33.179  1.00  0.00     0.064 C 
HETATM   29  C   UNL     1     -12.377   1.337 -34.087  1.00  0.00     0.078 C 
HETATM   30  O   UNL     1     -14.586   1.699 -33.293  1.00  0.00    -0.353 OA
HETATM   31  C   UNL     1     -15.493   2.075 -32.259  1.00  0.00     0.185 C 
HETATM   32  C   UNL     1     -15.528   3.576 -32.080  1.00  0.00     0.106 C 
HETATM   33  S   UNL     1     -13.943   4.093 -31.389  1.00  0.00    -0.120 SA
ENDBRANCH  24  27
ENDBRANCH   1  23
TORSDOF 8
ENDMDL
MODEL 4
REMARK VINA RESULT:      -7.7      2.031      6.401
REMARK  8 active torsions:
REMARK  status: ('A' for Active; 'I' for Inactive)
REMARK    1  A    between atoms: C_7  and  C_8 
REMARK       I    between atoms: C_8  and  N_9 
REMARK    2  A    between atoms: N_9  and  C_10 
REMARK    3  A    between atoms: C_11  and  C_12 
REMARK       I    between atoms: C_12  and  N_13 
REMARK    4  A    between atoms: N_13  and  C_14 
REMARK    5  A    between atoms: C_14  and  C_15 
REMARK    6  A    between atoms: C_15  and  C_16 
REMARK    7  A    between atoms: C_18  and  O_19 
REMARK    8  A    between atoms: C_21  and  O_22 
ROOT
HETATM    1  C   UNL     1      -6.286  -1.900 -34.015  1.00  0.00     0.050 A 
HETATM    2  C   UNL     1      -4.936  -2.053 -33.625  1.00  0.00     0.058 A 
HETATM    3  C   UNL     1      -4.246  -3.252 -33.888  1.00  0.00     0.019 A 
HETATM    4  C   UNL     1      -4.879  -4.292 -34.564  1.00  0.00     0.001 A 
HETATM    5  C   UNL     1      -6.199  -4.144 -34.970  1.00  0.00     0.002 A 
HETATM    6  C   UNL     1      -6.896  -2.962 -34.696  1.00  0.00     0.030 A 
ENDROOT
BRANCH   2   7
HETATM    7  C   UNL     1      -4.214  -0.956 -32.923  1.00  0.00     0.253 C 
HETATM    8  N   UNL     1      -4.603  -0.706 -31.623  1.00  0.00    -0.356 N 
HETATM    9  H   UNL     1      -5.251  -1.333 -31.164  1.00  0.00     0.162 HD
HETATM   10  O   UNL     1      -3.307  -0.351 -33.480  1.00  0.00    -0.268 OA
BRANCH   8  11
HETATM   11  C   UNL     1      -3.966   0.334 -30.839  1.00  0.00     0.127 C 
BRANCH  11  12
HETATM   12  C   UNL     1      -4.849   1.572 -30.654  1.00  0.00     0.058 C 
BRANCH  12  13
HETATM   13  C   UNL     1      -4.324   2.881 -31.209  1.00  0.00    -0.054 A 
HETATM   14  C   UNL     1      -4.976   4.107 -31.010  1.00  0.00     0.046 A 
HETATM   15  C   UNL     1      -4.466   5.295 -31.552  1.00  0.00     0.102 A 
HETATM   16  C   UNL     1      -3.294   5.260 -32.332  1.00  0.00     0.101 A 
HETATM   17  C   UNL     1      -2.652   4.039 -32.550  1.00  0.00     0.040 A 
HETATM   18  C   UNL     1      -3.165   2.862 -31.997  1.00  0.00     0.010 A 
BRANCH  15  19
HETATM   19  O   UNL     1      -5.038   6.533 -31.383  1.00  0.00    -0.353 OA
HETATM   20  C   UNL     1      -6.389   6.700 -31.788  1.00  0.00     0.210 C 
ENDBRANCH  15  19
BRANCH  16  21
HETATM   21  O   UNL     1      -2.859   6.464 -32.828  1.00  0.00    -0.353 OA
HETATM   22  C   UNL     1      -2.335   6.482 -34.147  1.00  0.00     0.210 C 
ENDBRANCH  16  21
ENDBRANCH  12  13
ENDBRANCH  11  12
ENDBRANCH   8  11
ENDBRANCH   2   7
BRANCH   1  23
HETATM   23  N   UNL     1      -6.975  -0.698 -33.710  1.00  0.00    -0.321 N 
HETATM   24  C   UNL     1      -7.361   0.318 -34.565  1.00  0.00     0.265 C 
HETATM   25  O   UNL     1      -7.114   0.338 -35.767  1.00  0.00    -0.267 OA
HETATM   26  H   UNL     1      -7.224  -0.570 -32.724  1.00  0.00     0.169 HD
BRANCH  24  27
HETATM   27  C   UNL     1      -8.116   1.467 -33.889  1.00  0.00     0.097 C 
HETATM   28  C   UNL     1      -7.567   2.703 -33.762  1.00  0.00     0.064 C 
HETATM   29  C   UNL     1      -6.183   3.068 -34.237  1.00  0.00     0.078 C 
HETATM   30  O   UNL     1      -8.176   3.803 -33.175  1.00  0.00    -0.353 OA
HETATM   31  C   UNL     1      -9.592   3.754 -33.010  1.00  0.00     0.185 C 
HETATM   32  C   UNL     1     -10.011   2.528 -32.231  1.00  0.00     0.106 C 
HETATM   33  S   UNL     1      -9.707   1.080 -33.263  1.00  0.00    -0.120 SA
ENDBRANCH  24  27
ENDBRANCH   1  23
TORSDOF 8
ENDMDL
MODEL 5
REMARK VINA RESULT:      -7.6      3.871      5.413
REMARK  8 active torsions:
REMARK  status: ('A' for Active; 'I' for Inactive)
REMARK    1  A    between atoms: C_7  and  C_8 
REMARK       I    between atoms: C_8  and  N_9 
REMARK    2  A    between atoms: N_9  and  C_10 
REMARK    3  A    between atoms: C_11  and  C_12 
REMARK       I    between atoms: C_12  and  N_13 
REMARK    4  A    between atoms: N_13  and  C_14 
REMARK    5  A    between atoms: C_14  and  C_15 
REMARK    6  A    between atoms: C_15  and  C_16 
REMARK    7  A    between atoms: C_18  and  O_19 
REMARK    8  A    between atoms: C_21  and  O_22 
ROOT
HETATM    1  C   UNL     1      -1.862   5.790 -32.082  1.00  0.00     0.050 A 
HETATM    2  C   UNL     1      -2.620   4.716 -32.602  1.00  0.00     0.058 A 
HETATM    3  C   UNL     1      -2.580   4.411 -33.977  1.00  0.00     0.019 A 
HETATM    4  C   UNL     1      -1.769   5.148 -34.836  1.00  0.00     0.001 A 
HETATM    5  C   UNL     1      -1.004   6.193 -34.330  1.00  0.00     0.002 A 
HETATM    6  C   UNL     1      -1.053   6.512 -32.968  1.00  0.00     0.030 A 
ENDROOT
BRANCH   2   7
HETATM    7  C   UNL     1      -3.480   3.886 -31.715  1.00  0.00     0.253 C 
HETATM    8  N   UNL     1      -3.396   2.520 -31.889  1.00  0.00    -0.356 N 
HETATM    9  H   UNL     1      -2.688   2.135 -32.501  1.00  0.00     0.162 HD
HETATM   10  O   UNL     1      -4.185   4.412 -30.862  1.00  0.00    -0.268 OA
BRANCH   8  11
HETATM   11  C   UNL     1      -4.183   1.613 -31.076  1.00  0.00     0.127 C 
BRANCH  11  12
HETATM   12  C   UNL     1      -3.685   0.165 -31.141  1.00  0.00     0.058 C 
BRANCH  12  13
HETATM   13  C   UNL     1      -4.238  -0.702 -32.254  1.00  0.00    -0.054 A 
HETATM   14  C   UNL     1      -5.369  -0.345 -33.004  1.00  0.00     0.046 A 
HETATM   15  C   UNL     1      -5.860  -1.182 -34.016  1.00  0.00     0.102 A 
HETATM   16  C   UNL     1      -5.227  -2.413 -34.273  1.00  0.00     0.101 A 
HETATM   17  C   UNL     1      -4.112  -2.782 -33.515  1.00  0.00     0.040 A 
HETATM   18  C   UNL     1      -3.627  -1.935 -32.514  1.00  0.00     0.010 A 
BRANCH  15  19
HETATM   19  O   UNL     1      -6.947  -0.891 -34.804  1.00  0.00    -0.353 OA
HETATM   20  C   UNL     1      -7.080   0.439 -35.285  1.00  0.00     0.210 C 
ENDBRANCH  15  19
BRANCH  16  21
HETATM   21  O   UNL     1      -5.767  -3.176 -35.279  1.00  0.00    -0.353 OA
HETATM   22  C   UNL     1      -6.082  -4.529 -34.984  1.00  0.00     0.210 C 
ENDBRANCH  16  21
ENDBRANCH  12  13
ENDBRANCH  11  12
ENDBRANCH   8  11
ENDBRANCH   2   7
BRANCH   1  23
HETATM   23  N   UNL     1      -1.943   6.103 -30.700  1.00  0.00    -0.321 N 
HETATM   24  C   UNL     1      -2.276   7.305 -30.104  1.00  0.00     0.265 C 
HETATM   25  O   UNL     1      -2.524   8.336 -30.723  1.00  0.00    -0.267 OA
HETATM   26  H   UNL     1      -1.732   5.331 -30.061  1.00  0.00     0.169 HD
BRANCH  24  27
HETATM   27  C   UNL     1      -2.287   7.275 -28.572  1.00  0.00     0.097 C 
HETATM   28  C   UNL     1      -3.439   7.110 -27.871  1.00  0.00     0.064 C 
HETATM   29  C   UNL     1      -4.800   6.965 -28.502  1.00  0.00     0.078 C 
HETATM   30  O   UNL     1      -3.544   7.060 -26.489  1.00  0.00    -0.353 OA
HETATM   31  C   UNL     1      -2.350   6.809 -25.751  1.00  0.00     0.185 C 
HETATM   32  C   UNL     1      -1.273   7.813 -26.092  1.00  0.00     0.106 C 
HETATM   33  S   UNL     1      -0.736   7.501 -27.787  1.00  0.00    -0.120 SA
ENDBRANCH  24  27
ENDBRANCH   1  23
TORSDOF 8
ENDMDL
MODEL 6
REMARK VINA RESULT:      -7.4      3.392      7.813
REMARK  8 active torsions:
REMARK  status: ('A' for Active; 'I' for Inactive)
REMARK    1  A    between atoms: C_7  and  C_8 
REMARK       I    between atoms: C_8  and  N_9 
REMARK    2  A    between atoms: N_9  and  C_10 
REMARK    3  A    between atoms: C_11  and  C_12 
REMARK       I    between atoms: C_12  and  N_13 
REMARK    4  A    between atoms: N_13  and  C_14 
REMARK    5  A    between atoms: C_14  and  C_15 
REMARK    6  A    between atoms: C_15  and  C_16 
REMARK    7  A    between atoms: C_18  and  O_19 
REMARK    8  A    between atoms: C_21  and  O_22 
ROOT
HETATM    1  C   UNL     1      -5.962   0.065 -33.302  1.00  0.00     0.050 A 
HETATM    2  C   UNL     1      -7.277  -0.310 -33.659  1.00  0.00     0.058 A 
HETATM    3  C   UNL     1      -7.517  -1.526 -34.328  1.00  0.00     0.019 A 
HETATM    4  C   UNL     1      -6.462  -2.388 -34.619  1.00  0.00     0.001 A 
HETATM    5  C   UNL     1      -5.169  -2.037 -34.252  1.00  0.00     0.002 A 
HETATM    6  C   UNL     1      -4.921  -0.822 -33.603  1.00  0.00     0.030 A 
ENDROOT
BRANCH   2   7
HETATM    7  C   UNL     1      -8.436   0.569 -33.345  1.00  0.00     0.253 C 
HETATM    8  N   UNL     1      -9.016   1.218 -34.415  1.00  0.00    -0.356 N 
HETATM    9  H   UNL     1      -8.729   0.987 -35.358  1.00  0.00     0.162 HD
HETATM   10  O   UNL     1      -8.852   0.664 -32.196  1.00  0.00    -0.268 OA
BRANCH   8  11
HETATM   11  C   UNL     1     -10.156   2.095 -34.229  1.00  0.00     0.127 C 
BRANCH  11  12
HETATM   12  C   UNL     1     -11.452   1.527 -34.819  1.00  0.00     0.058 C 
BRANCH  12  13
HETATM   13  C   UNL     1     -12.718   1.723 -34.010  1.00  0.00    -0.054 A 
HETATM   14  C   UNL     1     -12.849   2.721 -33.033  1.00  0.00     0.046 A 
HETATM   15  C   UNL     1     -14.032   2.861 -32.295  1.00  0.00     0.102 A 
HETATM   16  C   UNL     1     -15.102   1.973 -32.515  1.00  0.00     0.101 A 
HETATM   17  C   UNL     1     -14.969   0.964 -33.473  1.00  0.00     0.040 A 
HETATM   18  C   UNL     1     -13.787   0.840 -34.209  1.00  0.00     0.010 A 
BRANCH  15  19
HETATM   19  O   UNL     1     -14.240   3.825 -31.338  1.00  0.00    -0.353 OA
HETATM   20  C   UNL     1     -13.186   4.089 -30.423  1.00  0.00     0.210 C 
ENDBRANCH  15  19
BRANCH  16  21
HETATM   21  O   UNL     1     -16.226   2.174 -31.753  1.00  0.00    -0.353 OA
HETATM   22  C   UNL     1     -17.393   2.643 -32.411  1.00  0.00     0.210 C 
ENDBRANCH  16  21
ENDBRANCH  12  13
ENDBRANCH  11  12
ENDBRANCH   8  11
ENDBRANCH   2   7
BRANCH   1  23
HETATM   23  N   UNL     1      -5.737   1.310 -32.659  1.00  0.00    -0.321 N 
HETATM   24  C   UNL     1      -5.319   1.552 -31.363  1.00  0.00     0.265 C 
HETATM   25  O   UNL     1      -5.111   0.672 -30.532  1.00  0.00    -0.267 OA
HETATM   26  H   UNL     1      -5.900   2.141 -33.237  1.00  0.00     0.169 HD
BRANCH  24  27
HETATM   27  C   UNL     1      -5.156   3.033 -31.012  1.00  0.00     0.097 C 
HETATM   28  C   UNL     1      -6.138   3.729 -30.382  1.00  0.00     0.064 C 
HETATM   29  C   UNL     1      -7.472   3.144 -29.989  1.00  0.00     0.078 C 
HETATM   30  O   UNL     1      -6.077   5.066 -30.017  1.00  0.00    -0.353 OA
HETATM   31  C   UNL     1      -4.786   5.671 -29.969  1.00  0.00     0.185 C 
HETATM   32  C   UNL     1      -4.061   5.522 -31.286  1.00  0.00     0.106 C 
HETATM   33  S   UNL     1      -3.646   3.779 -31.502  1.00  0.00    -0.120 SA
ENDBRANCH  24  27
ENDBRANCH   1  23
TORSDOF 8
ENDMDL
MODEL 7
REMARK VINA RESULT:      -7.4      2.744      7.201
REMARK  8 active torsions:
REMARK  status: ('A' for Active; 'I' for Inactive)
REMARK    1  A    between atoms: C_7  and  C_8 
REMARK       I    between atoms: C_8  and  N_9 
REMARK    2  A    between atoms: N_9  and  C_10 
REMARK    3  A    between atoms: C_11  and  C_12 
REMARK       I    between atoms: C_12  and  N_13 
REMARK    4  A    between atoms: N_13  and  C_14 
REMARK    5  A    between atoms: C_14  and  C_15 
REMARK    6  A    between atoms: C_15  and  C_16 
REMARK    7  A    between atoms: C_18  and  O_19 
REMARK    8  A    between atoms: C_21  and  O_22 
ROOT
HETATM    1  C   UNL     1      -6.403  -1.047 -33.657  1.00  0.00     0.050 A 
HETATM    2  C   UNL     1      -5.126  -1.108 -33.053  1.00  0.00     0.058 A 
HETATM    3  C   UNL     1      -4.242  -2.162 -33.353  1.00  0.00     0.019 A 
HETATM    4  C   UNL     1      -4.605  -3.143 -34.272  1.00  0.00     0.001 A 
HETATM    5  C   UNL     1      -5.850  -3.081 -34.887  1.00  0.00     0.002 A 
HETATM    6  C   UNL     1      -6.740  -2.045 -34.580  1.00  0.00     0.030 A 
ENDROOT
BRANCH   2   7
HETATM    7  C   UNL     1      -4.688  -0.065 -32.085  1.00  0.00     0.253 C 
HETATM    8  N   UNL     1      -3.882   0.934 -32.589  1.00  0.00    -0.356 N 
HETATM    9  H   UNL     1      -3.725   0.996 -33.587  1.00  0.00     0.162 HD
HETATM   10  O   UNL     1      -5.067  -0.099 -30.920  1.00  0.00    -0.268 OA
BRANCH   8  11
HETATM   11  C   UNL     1      -3.401   2.006 -31.740  1.00  0.00     0.127 C 
BRANCH  11  12
HETATM   12  C   UNL     1      -3.158   3.313 -32.503  1.00  0.00     0.058 C 
BRANCH  12  13
HETATM   13  C   UNL     1      -2.799   4.533 -31.681  1.00  0.00    -0.054 A 
HETATM   14  C   UNL     1      -1.490   4.803 -31.254  1.00  0.00     0.046 A 
HETATM   15  C   UNL     1      -1.200   5.936 -30.480  1.00  0.00     0.102 A 
HETATM   16  C   UNL     1      -2.239   6.807 -30.101  1.00  0.00     0.101 A 
HETATM   17  C   UNL     1      -3.547   6.532 -30.506  1.00  0.00     0.040 A 
HETATM   18  C   UNL     1      -3.823   5.404 -31.285  1.00  0.00     0.010 A 
BRANCH  15  19
HETATM   19  O   UNL     1       0.058   6.276 -30.044  1.00  0.00    -0.353 OA
HETATM   20  C   UNL     1       0.662   5.452 -29.057  1.00  0.00     0.210 C 
ENDBRANCH  15  19
BRANCH  16  21
HETATM   21  O   UNL     1      -1.875   7.893 -29.344  1.00  0.00    -0.353 OA
HETATM   22  C   UNL     1      -2.227   7.885 -27.968  1.00  0.00     0.210 C 
ENDBRANCH  16  21
ENDBRANCH  12  13
ENDBRANCH  11  12
ENDBRANCH   8  11
ENDBRANCH   2   7
BRANCH   1  23
HETATM   23  N   UNL     1      -7.293   0.004 -33.316  1.00  0.00    -0.321 N 
HETATM   24  C   UNL     1      -7.301   1.311 -33.770  1.00  0.00     0.265 C 
HETATM   25  O   UNL     1      -6.471   1.777 -34.544  1.00  0.00    -0.267 OA
HETATM   26  H   UNL     1      -8.031  -0.241 -32.650  1.00  0.00     0.169 HD
BRANCH  24  27
HETATM   27  C   UNL     1      -8.433   2.174 -33.204  1.00  0.00     0.097 C 
HETATM   28  C   UNL     1      -8.264   2.928 -32.086  1.00  0.00     0.064 C 
HETATM   29  C   UNL     1      -6.987   2.980 -31.286  1.00  0.00     0.078 C 
HETATM   30  O   UNL     1      -9.225   3.744 -31.508  1.00  0.00    -0.353 OA
HETATM   31  C   UNL     1     -10.345   4.106 -32.313  1.00  0.00     0.185 C 
HETATM   32  C   UNL     1     -11.049   2.883 -32.854  1.00  0.00     0.106 C 
HETATM   33  S   UNL     1      -9.960   2.101 -34.062  1.00  0.00    -0.120 SA
ENDBRANCH  24  27
ENDBRANCH   1  23
TORSDOF 8
ENDMDL
MODEL 8
REMARK VINA RESULT:      -7.3      3.447      7.758
REMARK  8 active torsions:
REMARK  status: ('A' for Active; 'I' for Inactive)
REMARK    1  A    between atoms: C_7  and  C_8 
REMARK       I    between atoms: C_8  and  N_9 
REMARK    2  A    between atoms: N_9  and  C_10 
REMARK    3  A    between atoms: C_11  and  C_12 
REMARK       I    between atoms: C_12  and  N_13 
REMARK    4  A    between atoms: N_13  and  C_14 
REMARK    5  A    between atoms: C_14  and  C_15 
REMARK    6  A    between atoms: C_15  and  C_16 
REMARK    7  A    between atoms: C_18  and  O_19 
REMARK    8  A    between atoms: C_21  and  O_22 
ROOT
HETATM    1  C   UNL     1      -5.955   2.849 -30.939  1.00  0.00     0.050 A 
HETATM    2  C   UNL     1      -4.906   3.794 -30.860  1.00  0.00     0.058 A 
HETATM    3  C   UNL     1      -5.055   4.965 -30.092  1.00  0.00     0.019 A 
HETATM    4  C   UNL     1      -6.227   5.191 -29.376  1.00  0.00     0.001 A 
HETATM    5  C   UNL     1      -7.255   4.258 -29.430  1.00  0.00     0.002 A 
HETATM    6  C   UNL     1      -7.121   3.100 -30.205  1.00  0.00     0.030 A 
ENDROOT
BRANCH   2   7
HETATM    7  C   UNL     1      -3.627   3.579 -31.590  1.00  0.00     0.253 C 
HETATM    8  N   UNL     1      -3.346   4.472 -32.603  1.00  0.00    -0.356 N 
HETATM    9  H   UNL     1      -3.932   5.288 -32.729  1.00  0.00     0.162 HD
HETATM   10  O   UNL     1      -2.868   2.674 -31.264  1.00  0.00    -0.268 OA
BRANCH   8  11
HETATM   11  C   UNL     1      -2.124   4.365 -33.377  1.00  0.00     0.127 C 
BRANCH  11  12
HETATM   12  C   UNL     1      -1.197   5.573 -33.204  1.00  0.00     0.058 C 
BRANCH  12  13
HETATM   13  C   UNL     1      -0.840   5.968 -31.785  1.00  0.00    -0.054 A 
HETATM   14  C   UNL     1      -1.353   7.116 -31.165  1.00  0.00     0.046 A 
HETATM   15  C   UNL     1      -0.987   7.457 -29.855  1.00  0.00     0.102 A 
HETATM   16  C   UNL     1      -0.070   6.650 -29.154  1.00  0.00     0.101 A 
HETATM   17  C   UNL     1       0.460   5.516 -29.775  1.00  0.00     0.040 A 
HETATM   18  C   UNL     1       0.080   5.182 -31.079  1.00  0.00     0.010 A 
BRANCH  15  19
HETATM   19  O   UNL     1      -1.463   8.552 -29.176  1.00  0.00    -0.353 OA
HETATM   20  C   UNL     1      -2.191   9.524 -29.913  1.00  0.00     0.210 C 
ENDBRANCH  15  19
BRANCH  16  21
HETATM   21  O   UNL     1       0.239   7.049 -27.877  1.00  0.00    -0.353 OA
HETATM   22  C   UNL     1      -0.285   6.283 -26.802  1.00  0.00     0.210 C 
ENDBRANCH  16  21
ENDBRANCH  12  13
ENDBRANCH  11  12
ENDBRANCH   8  11
ENDBRANCH   2   7
BRANCH   1  23
HETATM   23  N   UNL     1      -5.799   1.692 -31.745  1.00  0.00    -0.321 N 
HETATM   24  C   UNL     1      -5.909   0.362 -31.381  1.00  0.00     0.265 C 
HETATM   25  O   UNL     1      -6.132  -0.022 -30.236  1.00  0.00    -0.267 OA
HETATM   26  H   UNL     1      -5.582   1.867 -32.731  1.00  0.00     0.169 HD
BRANCH  24  27
HETATM   27  C   UNL     1      -5.701  -0.632 -32.527  1.00  0.00     0.097 C 
HETATM   28  C   UNL     1      -4.498  -1.223 -32.747  1.00  0.00     0.064 C 
HETATM   29  C   UNL     1      -3.261  -0.959 -31.926  1.00  0.00     0.078 C 
HETATM   30  O   UNL     1      -4.218  -2.140 -33.751  1.00  0.00    -0.353 OA
HETATM   31  C   UNL     1      -5.327  -2.781 -34.377  1.00  0.00     0.185 C 
HETATM   32  C   UNL     1      -6.301  -1.770 -34.938  1.00  0.00     0.106 C 
HETATM   33  S   UNL     1      -7.092  -0.929 -33.551  1.00  0.00    -0.120 SA
ENDBRANCH  24  27
ENDBRANCH   1  23
TORSDOF 8
ENDMDL
MODEL 9
REMARK VINA RESULT:      -7.3      2.887      7.841
REMARK  8 active torsions:
REMARK  status: ('A' for Active; 'I' for Inactive)
REMARK    1  A    between atoms: C_7  and  C_8 
REMARK       I    between atoms: C_8  and  N_9 
REMARK    2  A    between atoms: N_9  and  C_10 
REMARK    3  A    between atoms: C_11  and  C_12 
REMARK       I    between atoms: C_12  and  N_13 
REMARK    4  A    between atoms: N_13  and  C_14 
REMARK    5  A    between atoms: C_14  and  C_15 
REMARK    6  A    between atoms: C_15  and  C_16 
REMARK    7  A    between atoms: C_18  and  O_19 
REMARK    8  A    between atoms: C_21  and  O_22 
ROOT
HETATM    1  C   UNL     1      -5.433  -1.629 -34.023  1.00  0.00     0.050 A 
HETATM    2  C   UNL     1      -6.713  -1.682 -34.621  1.00  0.00     0.058 A 
HETATM    3  C   UNL     1      -7.205  -2.889 -35.152  1.00  0.00     0.019 A 
HETATM    4  C   UNL     1      -6.448  -4.054 -35.068  1.00  0.00     0.001 A 
HETATM    5  C   UNL     1      -5.198  -4.018 -34.462  1.00  0.00     0.002 A 
HETATM    6  C   UNL     1      -4.694  -2.817 -33.948  1.00  0.00     0.030 A 
ENDROOT
BRANCH   2   7
HETATM    7  C   UNL     1      -7.566  -0.465 -34.709  1.00  0.00     0.253 C 
HETATM    8  N   UNL     1      -8.412  -0.236 -33.645  1.00  0.00    -0.356 N 
HETATM    9  H   UNL     1      -8.338  -0.808 -32.813  1.00  0.00     0.162 HD
HETATM   10  O   UNL     1      -7.474   0.292 -35.669  1.00  0.00    -0.268 OA
BRANCH   8  11
HETATM   11  C   UNL     1      -9.284   0.922 -33.618  1.00  0.00     0.127 C 
BRANCH  11  12
HETATM   12  C   UNL     1     -10.599   0.701 -34.373  1.00  0.00     0.058 C 
BRANCH  12  13
HETATM   13  C   UNL     1     -11.843   1.337 -33.788  1.00  0.00    -0.054 A 
HETATM   14  C   UNL     1     -11.834   2.597 -33.172  1.00  0.00     0.046 A 
HETATM   15  C   UNL     1     -13.004   3.145 -32.628  1.00  0.00     0.102 A 
HETATM   16  C   UNL     1     -14.206   2.414 -32.676  1.00  0.00     0.101 A 
HETATM   17  C   UNL     1     -14.216   1.150 -33.271  1.00  0.00     0.040 A 
HETATM   18  C   UNL     1     -13.045   0.617 -33.817  1.00  0.00     0.010 A 
BRANCH  15  19
HETATM   19  O   UNL     1     -13.076   4.379 -32.028  1.00  0.00    -0.353 OA
HETATM   20  C   UNL     1     -12.637   4.489 -30.682  1.00  0.00     0.210 C 
ENDBRANCH  15  19
BRANCH  16  21
HETATM   21  O   UNL     1     -15.308   3.018 -32.122  1.00  0.00    -0.353 OA
HETATM   22  C   UNL     1     -16.565   2.379 -32.291  1.00  0.00     0.210 C 
ENDBRANCH  16  21
ENDBRANCH  12  13
ENDBRANCH  11  12
ENDBRANCH   8  11
ENDBRANCH   2   7
BRANCH   1  23
HETATM   23  N   UNL     1      -4.940  -0.396 -33.524  1.00  0.00    -0.321 N 
HETATM   24  C   UNL     1      -5.283   0.265 -32.358  1.00  0.00     0.265 C 
HETATM   25  O   UNL     1      -6.137  -0.129 -31.570  1.00  0.00    -0.267 OA
HETATM   26  H   UNL     1      -4.230   0.062 -34.103  1.00  0.00     0.169 HD
BRANCH  24  27
HETATM   27  C   UNL     1      -4.525   1.575 -32.122  1.00  0.00     0.097 C 
HETATM   28  C   UNL     1      -3.332   1.601 -31.473  1.00  0.00     0.064 C 
HETATM   29  C   UNL     1      -2.649   0.381 -30.908  1.00  0.00     0.078 C 
HETATM   30  O   UNL     1      -2.572   2.734 -31.222  1.00  0.00    -0.353 OA
HETATM   31  C   UNL     1      -2.864   3.900 -31.990  1.00  0.00     0.185 C 
HETATM   32  C   UNL     1      -4.319   4.288 -31.865  1.00  0.00     0.106 C 
HETATM   33  S   UNL     1      -5.306   3.032 -32.705  1.00  0.00    -0.120 SA
ENDBRANCH  24  27
ENDBRANCH   1  23
TORSDOF 8
ENDMDL
MODEL 10
REMARK VINA RESULT:      -7.2      3.374      4.673
REMARK  8 active torsions:
REMARK  status: ('A' for Active; 'I' for Inactive)
REMARK    1  A    between atoms: C_7  and  C_8 
REMARK       I    between atoms: C_8  and  N_9 
REMARK    2  A    between atoms: N_9  and  C_10 
REMARK    3  A    between atoms: C_11  and  C_12 
REMARK       I    between atoms: C_12  and  N_13 
REMARK    4  A    between atoms: N_13  and  C_14 
REMARK    5  A    between atoms: C_14  and  C_15 
REMARK    6  A    between atoms: C_15  and  C_16 
REMARK    7  A    between atoms: C_18  and  O_19 
REMARK    8  A    between atoms: C_21  and  O_22 
ROOT
HETATM    1  C   UNL     1      -2.956   6.359 -32.563  1.00  0.00     0.050 A 
HETATM    2  C   UNL     1      -2.994   5.012 -32.993  1.00  0.00     0.058 A 
HETATM    3  C   UNL     1      -2.110   4.554 -33.988  1.00  0.00     0.019 A 
HETATM    4  C   UNL     1      -1.167   5.416 -34.541  1.00  0.00     0.001 A 
HETATM    5  C   UNL     1      -1.107   6.736 -34.110  1.00  0.00     0.002 A 
HETATM    6  C   UNL     1      -1.995   7.203 -33.134  1.00  0.00     0.030 A 
ENDROOT
BRANCH   2   7
HETATM    7  C   UNL     1      -3.970   4.051 -32.409  1.00  0.00     0.253 C 
HETATM    8  N   UNL     1      -5.002   3.656 -33.234  1.00  0.00    -0.356 N 
HETATM    9  H   UNL     1      -4.994   3.921 -34.211  1.00  0.00     0.162 HD
HETATM   10  O   UNL     1      -3.819   3.624 -31.271  1.00  0.00    -0.268 OA
BRANCH   8  11
HETATM   11  C   UNL     1      -6.008   2.717 -32.776  1.00  0.00     0.127 C 
BRANCH  11  12
HETATM   12  C   UNL     1      -6.654   1.926 -33.918  1.00  0.00     0.058 C 
BRANCH  12  13
HETATM   13  C   UNL     1      -6.290   0.460 -34.031  1.00  0.00    -0.054 A 
HETATM   14  C   UNL     1      -5.174  -0.097 -33.389  1.00  0.00     0.046 A 
HETATM   15  C   UNL     1      -4.860  -1.456 -33.530  1.00  0.00     0.102 A 
HETATM   16  C   UNL     1      -5.660  -2.276 -34.349  1.00  0.00     0.101 A 
HETATM   17  C   UNL     1      -6.761  -1.721 -35.007  1.00  0.00     0.040 A 
HETATM   18  C   UNL     1      -7.068  -0.367 -34.852  1.00  0.00     0.010 A 
BRANCH  15  19
HETATM   19  O   UNL     1      -3.798  -2.075 -32.916  1.00  0.00    -0.353 OA
HETATM   20  C   UNL     1      -3.112  -1.360 -31.899  1.00  0.00     0.210 C 
ENDBRANCH  15  19
BRANCH  16  21
HETATM   21  O   UNL     1      -5.288  -3.595 -34.437  1.00  0.00    -0.353 OA
HETATM   22  C   UNL     1      -6.143  -4.474 -35.152  1.00  0.00     0.210 C 
ENDBRANCH  16  21
ENDBRANCH  12  13
ENDBRANCH  11  12
ENDBRANCH   8  11
ENDBRANCH   2   7
BRANCH   1  23
HETATM   23  N   UNL     1      -3.877   6.810 -31.583  1.00  0.00    -0.321 N 
HETATM   24  C   UNL     1      -3.678   6.990 -30.226  1.00  0.00     0.265 C 
HETATM   25  O   UNL     1      -2.629   6.732 -29.644  1.00  0.00    -0.267 OA
HETATM   26  H   UNL     1      -4.814   7.040 -31.930  1.00  0.00     0.169 HD
BRANCH  24  27
HETATM   27  C   UNL     1      -4.899   7.520 -29.468  1.00  0.00     0.097 C 
HETATM   28  C   UNL     1      -5.807   6.682 -28.903  1.00  0.00     0.064 C 
HETATM   29  C   UNL     1      -5.730   5.178 -28.976  1.00  0.00     0.078 C 
HETATM   30  O   UNL     1      -6.933   7.069 -28.192  1.00  0.00    -0.353 OA
HETATM   31  C   UNL     1      -6.971   8.410 -27.709  1.00  0.00     0.185 C 
HETATM   32  C   UNL     1      -6.773   9.404 -28.831  1.00  0.00     0.106 C 
HETATM   33  S   UNL     1      -5.069   9.264 -29.406  1.00  0.00    -0.120 SA
ENDBRANCH  24  27
ENDBRANCH   1  23
TORSDOF 8
ENDMDL
