MODEL 1
REMARK VINA RESULT:      -9.1      0.000      0.000
REMARK  10 active torsions:
REMARK  status: ('A' for Active; 'I' for Inactive)
REMARK    1  A    between atoms: N_15  and  C_16 
REMARK    2  A    between atoms: C_16  and  C_17 
REMARK    3  A    between atoms: C_17  and  N_18 
REMARK       I    between atoms: N_18  and  C_19 
REMARK    4  A    between atoms: C_19  and  C_20 
REMARK    5  A    between atoms: C_20  and  C_21 
REMARK    6  A    between atoms: C_21  and  C_22 
REMARK    7  A    between atoms: C_24  and  C_25 
REMARK    8  A    between atoms: C_29  and  O_30 
REMARK    9  A    between atoms: C_31  and  C_32 
REMARK   10  A    between atoms: C_38  and  O_39 
ROOT
HETATM    1  C   UNL     1      -3.943   4.458 -32.942  1.00  0.00     0.142 C 
ENDROOT
BRANCH   1   2
HETATM    2  C   UNL     1      -2.413   4.535 -32.993  1.00  0.00     0.151 C 
BRANCH   2   3
HETATM    3  N   UNL     1      -1.852   5.741 -32.370  1.00  0.00    -0.291 N 
HETATM    4  C   UNL     1      -1.084   6.612 -33.115  1.00  0.00     0.366 C 
HETATM    5  O   UNL     1      -0.337   7.397 -32.281  1.00  0.00    -0.287 OA
HETATM    6  O   UNL     1      -1.035   6.690 -34.330  1.00  0.00    -0.238 OA
HETATM    7  C   UNL     1      -0.821   7.231 -30.915  1.00  0.00     0.126 C 
HETATM    8  C   UNL     1       0.397   7.485 -30.014  1.00  0.00     0.082 C 
HETATM    9  C   UNL     1      -1.397   5.789 -31.005  1.00  0.00     0.166 C 
HETATM   10  C   UNL     1      -1.863   8.364 -30.729  1.00  0.00     0.082 C 
HETATM   11  C   UNL     1       0.106   7.807 -28.544  1.00  0.00     0.122 C 
HETATM   12  N   UNL     1      -0.915   8.916 -28.476  1.00  0.00    -0.059 N 
HETATM   13  C   UNL     1       1.386   8.372 -27.890  1.00  0.00     0.046 C 
HETATM   14  C   UNL     1      -0.340   6.615 -27.698  1.00  0.00     0.046 C 
HETATM   15  C   UNL     1      -2.177   8.850 -29.304  1.00  0.00     0.122 C 
HETATM   16  H   UNL     1      -0.428   9.787 -28.739  1.00  0.00     0.279 HD
HETATM   17  H   UNL     1      -1.177   9.070 -27.490  1.00  0.00     0.279 HD
HETATM   18  C   UNL     1      -2.693  10.308 -29.392  1.00  0.00     0.046 C 
HETATM   19  C   UNL     1      -3.252   8.057 -28.555  1.00  0.00     0.046 C 
HETATM   20  C   UNL     1      -0.386   4.670 -30.723  1.00  0.00     0.074 C 
BRANCH   9  21
HETATM   21  O   UNL     1      -2.514   5.650 -30.156  1.00  0.00    -0.368 OA
HETATM   22  H   UNL     1      -3.313   5.684 -30.710  1.00  0.00     0.212 HD
ENDBRANCH   9  21
ENDBRANCH   2   3
ENDBRANCH   1   2
BRANCH   1  23
HETATM   23  N   UNL     1      -4.452   3.595 -31.896  1.00  0.00    -0.359 N 
HETATM   24  C   UNL     1      -5.241   4.089 -30.885  1.00  0.00     0.217 C 
HETATM   25  O   UNL     1      -5.499   5.288 -30.784  1.00  0.00    -0.274 OA
HETATM   26  H   UNL     1      -4.263   2.596 -31.960  1.00  0.00     0.162 HD
BRANCH  24  27
HETATM   27  C   UNL     1      -5.907   3.076 -29.974  1.00  0.00     0.107 C 
BRANCH  27  28
HETATM   28  C   UNL     1      -7.431   3.015 -29.997  1.00  0.00     0.048 C 
BRANCH  28  29
HETATM   29  C   UNL     1      -8.066   2.383 -31.214  1.00  0.00    -0.057 A 
HETATM   30  C   UNL     1      -9.318   2.789 -31.689  1.00  0.00     0.018 A 
HETATM   31  C   UNL     1      -9.886   2.274 -32.873  1.00  0.00    -0.016 A 
HETATM   32  C   UNL     1      -9.093   1.350 -33.593  1.00  0.00     0.079 A 
HETATM   33  C   UNL     1      -7.810   0.921 -33.171  1.00  0.00    -0.016 A 
HETATM   34  C   UNL     1      -7.333   1.454 -31.961  1.00  0.00     0.018 A 
BRANCH  31  35
HETATM   35  C   UNL     1     -11.247   2.841 -33.357  1.00  0.00    -0.021 C 
HETATM   36  C   UNL     1     -11.763   3.817 -32.279  1.00  0.00     0.019 C 
HETATM   37  C   UNL     1     -11.212   3.595 -34.707  1.00  0.00     0.019 C 
HETATM   38  C   UNL     1     -12.308   1.724 -33.552  1.00  0.00     0.019 C 
ENDBRANCH  31  35
BRANCH  32  39
HETATM   39  O   UNL     1      -9.550   0.861 -34.783  1.00  0.00    -0.360 OA
HETATM   40  H   UNL     1     -10.493   1.094 -34.815  1.00  0.00     0.217 HD
ENDBRANCH  32  39
BRANCH  33  41
HETATM   41  C   UNL     1      -6.933  -0.047 -34.005  1.00  0.00    -0.021 C 
HETATM   42  C   UNL     1      -6.942   0.375 -35.491  1.00  0.00     0.019 C 
HETATM   43  C   UNL     1      -5.442  -0.067 -33.572  1.00  0.00     0.019 C 
HETATM   44  C   UNL     1      -7.430  -1.503 -33.866  1.00  0.00     0.019 C 
ENDBRANCH  33  41
ENDBRANCH  28  29
ENDBRANCH  27  28
ENDBRANCH  24  27
ENDBRANCH   1  23
TORSDOF 10
ENDMDL
MODEL 2
REMARK VINA RESULT:      -9.0      2.288      4.931
REMARK  10 active torsions:
REMARK  status: ('A' for Active; 'I' for Inactive)
REMARK    1  A    between atoms: N_15  and  C_16 
REMARK    2  A    between atoms: C_16  and  C_17 
REMARK    3  A    between atoms: C_17  and  N_18 
REMARK       I    between atoms: N_18  and  C_19 
REMARK    4  A    between atoms: C_19  and  C_20 
REMARK    5  A    between atoms: C_20  and  C_21 
REMARK    6  A    between atoms: C_21  and  C_22 
REMARK    7  A    between atoms: C_24  and  C_25 
REMARK    8  A    between atoms: C_29  and  O_30 
REMARK    9  A    between atoms: C_31  and  C_32 
REMARK   10  A    between atoms: C_38  and  O_39 
ROOT
HETATM    1  C   UNL     1      -0.800   5.232 -32.125  1.00  0.00     0.142 C 
ENDROOT
BRANCH   1   2
HETATM    2  C   UNL     1      -0.824   6.487 -31.244  1.00  0.00     0.151 C 
BRANCH   2   3
HETATM    3  N   UNL     1      -2.148   7.109 -31.123  1.00  0.00    -0.291 N 
HETATM    4  C   UNL     1      -2.382   8.351 -31.677  1.00  0.00     0.366 C 
HETATM    5  O   UNL     1      -3.490   8.911 -31.103  1.00  0.00    -0.287 OA
HETATM    6  O   UNL     1      -1.717   8.909 -32.533  1.00  0.00    -0.238 OA
HETATM    7  C   UNL     1      -4.185   7.892 -30.325  1.00  0.00     0.126 C 
HETATM    8  C   UNL     1      -4.895   8.653 -29.194  1.00  0.00     0.082 C 
HETATM    9  C   UNL     1      -2.990   6.964 -29.965  1.00  0.00     0.166 C 
HETATM   10  C   UNL     1      -5.231   7.299 -31.302  1.00  0.00     0.082 C 
HETATM   11  C   UNL     1      -6.039   7.917 -28.486  1.00  0.00     0.122 C 
HETATM   12  N   UNL     1      -6.995   7.381 -29.523  1.00  0.00    -0.059 N 
HETATM   13  C   UNL     1      -6.849   8.932 -27.651  1.00  0.00     0.046 C 
HETATM   14  C   UNL     1      -5.599   6.804 -27.536  1.00  0.00     0.046 C 
HETATM   15  C   UNL     1      -6.479   6.615 -30.719  1.00  0.00     0.122 C 
HETATM   16  H   UNL     1      -7.523   8.188 -29.888  1.00  0.00     0.279 HD
HETATM   17  H   UNL     1      -7.713   6.810 -29.053  1.00  0.00     0.279 HD
HETATM   18  C   UNL     1      -7.609   6.687 -31.777  1.00  0.00     0.046 C 
HETATM   19  C   UNL     1      -6.319   5.134 -30.362  1.00  0.00     0.046 C 
HETATM   20  C   UNL     1      -2.236   7.348 -28.685  1.00  0.00     0.074 C 
BRANCH   9  21
HETATM   21  O   UNL     1      -3.414   5.622 -29.886  1.00  0.00    -0.368 OA
HETATM   22  H   UNL     1      -4.330   5.581 -30.213  1.00  0.00     0.212 HD
ENDBRANCH   9  21
ENDBRANCH   2   3
ENDBRANCH   1   2
BRANCH   1  23
HETATM   23  N   UNL     1      -2.027   5.008 -32.860  1.00  0.00    -0.359 N 
HETATM   24  C   UNL     1      -2.173   5.445 -34.155  1.00  0.00     0.217 C 
HETATM   25  O   UNL     1      -1.300   6.098 -34.726  1.00  0.00    -0.274 OA
HETATM   26  H   UNL     1      -2.762   4.462 -32.415  1.00  0.00     0.162 HD
BRANCH  24  27
HETATM   27  C   UNL     1      -3.398   4.966 -34.909  1.00  0.00     0.107 C 
BRANCH  27  28
HETATM   28  C   UNL     1      -4.758   5.254 -34.283  1.00  0.00     0.048 C 
BRANCH  28  29
HETATM   29  C   UNL     1      -5.539   4.062 -33.779  1.00  0.00    -0.057 A 
HETATM   30  C   UNL     1      -4.929   3.034 -33.051  1.00  0.00     0.018 A 
HETATM   31  C   UNL     1      -5.656   1.960 -32.497  1.00  0.00    -0.016 A 
HETATM   32  C   UNL     1      -7.059   2.000 -32.675  1.00  0.00     0.079 A 
HETATM   33  C   UNL     1      -7.731   3.028 -33.383  1.00  0.00    -0.016 A 
HETATM   34  C   UNL     1      -6.929   4.042 -33.936  1.00  0.00     0.018 A 
BRANCH  31  35
HETATM   35  C   UNL     1      -4.901   0.907 -31.643  1.00  0.00    -0.021 C 
HETATM   36  C   UNL     1      -3.429   1.356 -31.533  1.00  0.00     0.019 C 
HETATM   37  C   UNL     1      -5.445   0.698 -30.210  1.00  0.00     0.019 C 
HETATM   38  C   UNL     1      -4.933  -0.503 -32.292  1.00  0.00     0.019 C 
ENDBRANCH  31  35
BRANCH  32  39
HETATM   39  O   UNL     1      -7.833   1.029 -32.109  1.00  0.00    -0.360 OA
HETATM   40  H   UNL     1      -8.058   1.359 -31.223  1.00  0.00     0.217 HD
ENDBRANCH  32  39
BRANCH  33  41
HETATM   41  C   UNL     1      -9.274   3.085 -33.516  1.00  0.00    -0.021 C 
HETATM   42  C   UNL     1      -9.686   4.269 -34.418  1.00  0.00     0.019 C 
HETATM   43  C   UNL     1      -9.891   1.815 -34.163  1.00  0.00     0.019 C 
HETATM   44  C   UNL     1      -9.944   3.218 -32.130  1.00  0.00     0.019 C 
ENDBRANCH  33  41
ENDBRANCH  28  29
ENDBRANCH  27  28
ENDBRANCH  24  27
ENDBRANCH   1  23
TORSDOF 10
ENDMDL
MODEL 3
REMARK VINA RESULT:      -8.8      0.224      2.933
REMARK  10 active torsions:
REMARK  status: ('A' for Active; 'I' for Inactive)
REMARK    1  A    between atoms: N_15  and  C_16 
REMARK    2  A    between atoms: C_16  and  C_17 
REMARK    3  A    between atoms: C_17  and  N_18 
REMARK       I    between atoms: N_18  and  C_19 
REMARK    4  A    between atoms: C_19  and  C_20 
REMARK    5  A    between atoms: C_20  and  C_21 
REMARK    6  A    between atoms: C_21  and  C_22 
REMARK    7  A    between atoms: C_24  and  C_25 
REMARK    8  A    between atoms: C_29  and  O_30 
REMARK    9  A    between atoms: C_31  and  C_32 
REMARK   10  A    between atoms: C_38  and  O_39 
ROOT
HETATM    1  C   UNL     1      -3.972   4.486 -32.890  1.00  0.00     0.142 C 
ENDROOT
BRANCH   1   2
HETATM    2  C   UNL     1      -2.442   4.552 -32.949  1.00  0.00     0.151 C 
BRANCH   2   3
HETATM    3  N   UNL     1      -1.869   5.755 -32.332  1.00  0.00    -0.291 N 
HETATM    4  C   UNL     1      -1.104   6.622 -33.086  1.00  0.00     0.366 C 
HETATM    5  O   UNL     1      -0.344   7.404 -32.260  1.00  0.00    -0.287 OA
HETATM    6  O   UNL     1      -1.065   6.697 -34.302  1.00  0.00    -0.238 OA
HETATM    7  C   UNL     1      -0.817   7.242 -30.890  1.00  0.00     0.126 C 
HETATM    8  C   UNL     1       0.411   7.491 -30.000  1.00  0.00     0.082 C 
HETATM    9  C   UNL     1      -1.401   5.803 -30.972  1.00  0.00     0.166 C 
HETATM   10  C   UNL     1      -1.851   8.381 -30.696  1.00  0.00     0.082 C 
HETATM   11  C   UNL     1       0.136   7.817 -28.528  1.00  0.00     0.122 C 
HETATM   12  N   UNL     1      -0.879   8.931 -28.452  1.00  0.00    -0.059 N 
HETATM   13  C   UNL     1       1.424   8.376 -27.887  1.00  0.00     0.046 C 
HETATM   14  C   UNL     1      -0.309   6.628 -27.676  1.00  0.00     0.046 C 
HETATM   15  C   UNL     1      -2.149   8.870 -29.269  1.00  0.00     0.122 C 
HETATM   16  H   UNL     1      -0.390   9.800 -28.721  1.00  0.00     0.279 HD
HETATM   17  H   UNL     1      -1.131   9.088 -27.465  1.00  0.00     0.279 HD
HETATM   18  C   UNL     1      -2.658  10.331 -29.354  1.00  0.00     0.046 C 
HETATM   19  C   UNL     1      -3.221   8.084 -28.509  1.00  0.00     0.046 C 
HETATM   20  C   UNL     1      -0.393   4.680 -30.697  1.00  0.00     0.074 C 
BRANCH   9  21
HETATM   21  O   UNL     1      -2.511   5.672 -30.113  1.00  0.00    -0.368 OA
HETATM   22  H   UNL     1      -2.239   5.978 -29.230  1.00  0.00     0.212 HD
ENDBRANCH   9  21
ENDBRANCH   2   3
ENDBRANCH   1   2
BRANCH   1  23
HETATM   23  N   UNL     1      -4.486   3.829 -31.705  1.00  0.00    -0.359 N 
HETATM   24  C   UNL     1      -5.558   4.340 -31.016  1.00  0.00     0.217 C 
HETATM   25  O   UNL     1      -6.090   5.405 -31.329  1.00  0.00    -0.274 OA
HETATM   26  H   UNL     1      -4.071   2.940 -31.429  1.00  0.00     0.162 HD
BRANCH  24  27
HETATM   27  C   UNL     1      -6.160   3.466 -29.933  1.00  0.00     0.107 C 
BRANCH  27  28
HETATM   28  C   UNL     1      -7.644   3.132 -30.052  1.00  0.00     0.048 C 
BRANCH  28  29
HETATM   29  C   UNL     1      -8.114   2.597 -31.385  1.00  0.00    -0.057 A 
HETATM   30  C   UNL     1      -7.358   1.675 -32.118  1.00  0.00     0.018 A 
HETATM   31  C   UNL     1      -7.820   1.097 -33.319  1.00  0.00    -0.016 A 
HETATM   32  C   UNL     1      -9.124   1.466 -33.726  1.00  0.00     0.079 A 
HETATM   33  C   UNL     1      -9.941   2.377 -33.011  1.00  0.00    -0.016 A 
HETATM   34  C   UNL     1      -9.391   2.936 -31.844  1.00  0.00     0.018 A 
BRANCH  31  35
HETATM   35  C   UNL     1      -6.941   0.028 -34.022  1.00  0.00    -0.021 C 
HETATM   36  C   UNL     1      -6.959   0.323 -35.536  1.00  0.00     0.019 C 
HETATM   37  C   UNL     1      -5.465  -0.026 -33.563  1.00  0.00     0.019 C 
HETATM   38  C   UNL     1      -7.483  -1.410 -33.799  1.00  0.00     0.019 C 
ENDBRANCH  31  35
BRANCH  32  39
HETATM   39  O   UNL     1      -9.663   0.895 -34.843  1.00  0.00    -0.360 OA
HETATM   40  H   UNL     1      -9.433  -0.047 -34.791  1.00  0.00     0.217 HD
ENDBRANCH  32  39
BRANCH  33  41
HETATM   41  C   UNL     1     -11.389   2.722 -33.441  1.00  0.00    -0.021 C 
HETATM   42  C   UNL     1     -12.051   3.641 -32.391  1.00  0.00     0.019 C 
HETATM   43  C   UNL     1     -11.474   3.481 -34.793  1.00  0.00     0.019 C 
HETATM   44  C   UNL     1     -12.231   1.440 -33.628  1.00  0.00     0.019 C 
ENDBRANCH  33  41
ENDBRANCH  28  29
ENDBRANCH  27  28
ENDBRANCH  24  27
ENDBRANCH   1  23
TORSDOF 10
ENDMDL
MODEL 4
REMARK VINA RESULT:      -8.7      1.681      3.573
REMARK  10 active torsions:
REMARK  status: ('A' for Active; 'I' for Inactive)
REMARK    1  A    between atoms: N_15  and  C_16 
REMARK    2  A    between atoms: C_16  and  C_17 
REMARK    3  A    between atoms: C_17  and  N_18 
REMARK       I    between atoms: N_18  and  C_19 
REMARK    4  A    between atoms: C_19  and  C_20 
REMARK    5  A    between atoms: C_20  and  C_21 
REMARK    6  A    between atoms: C_21  and  C_22 
REMARK    7  A    between atoms: C_24  and  C_25 
REMARK    8  A    between atoms: C_29  and  O_30 
REMARK    9  A    between atoms: C_31  and  C_32 
REMARK   10  A    between atoms: C_38  and  O_39 
ROOT
HETATM    1  C   UNL     1      -1.982   4.270 -33.077  1.00  0.00     0.142 C 
ENDROOT
BRANCH   1   2
HETATM    2  C   UNL     1      -1.026   5.381 -32.628  1.00  0.00     0.151 C 
BRANCH   2   3
HETATM    3  N   UNL     1      -1.700   6.599 -32.159  1.00  0.00    -0.291 N 
HETATM    4  C   UNL     1      -1.788   7.702 -32.982  1.00  0.00     0.366 C 
HETATM    5  O   UNL     1      -2.052   8.816 -32.234  1.00  0.00    -0.287 OA
HETATM    6  O   UNL     1      -1.639   7.728 -34.192  1.00  0.00    -0.238 OA
HETATM    7  C   UNL     1      -2.424   8.403 -30.886  1.00  0.00     0.126 C 
HETATM    8  C   UNL     1      -1.998   9.560 -29.970  1.00  0.00     0.082 C 
HETATM    9  C   UNL     1      -1.656   7.054 -30.794  1.00  0.00     0.166 C 
HETATM   10  C   UNL     1      -3.971   8.298 -30.922  1.00  0.00     0.082 C 
HETATM   11  C   UNL     1      -2.642   9.606 -28.579  1.00  0.00     0.122 C 
HETATM   12  N   UNL     1      -4.139   9.497 -28.727  1.00  0.00    -0.059 N 
HETATM   13  C   UNL     1      -2.380  10.992 -27.949  1.00  0.00     0.046 C 
HETATM   14  C   UNL     1      -2.122   8.560 -27.593  1.00  0.00     0.046 C 
HETATM   15  C   UNL     1      -4.748   8.425 -29.601  1.00  0.00     0.122 C 
HETATM   16  H   UNL     1      -4.471  10.404 -29.089  1.00  0.00     0.279 HD
HETATM   17  H   UNL     1      -4.565   9.436 -27.789  1.00  0.00     0.279 HD
HETATM   18  C   UNL     1      -6.180   8.919 -29.927  1.00  0.00     0.046 C 
HETATM   19  C   UNL     1      -4.912   7.129 -28.801  1.00  0.00     0.046 C 
HETATM   20  C   UNL     1      -0.207   7.168 -30.299  1.00  0.00     0.074 C 
BRANCH   9  21
HETATM   21  O   UNL     1      -2.364   6.136 -29.993  1.00  0.00    -0.368 OA
HETATM   22  H   UNL     1      -2.057   6.245 -29.076  1.00  0.00     0.212 HD
ENDBRANCH   9  21
ENDBRANCH   2   3
ENDBRANCH   1   2
BRANCH   1  23
HETATM   23  N   UNL     1      -3.267   4.295 -32.408  1.00  0.00    -0.359 N 
HETATM   24  C   UNL     1      -3.598   3.353 -31.465  1.00  0.00     0.217 C 
HETATM   25  O   UNL     1      -2.853   2.413 -31.190  1.00  0.00    -0.274 OA
HETATM   26  H   UNL     1      -3.899   5.068 -32.609  1.00  0.00     0.162 HD
BRANCH  24  27
HETATM   27  C   UNL     1      -4.862   3.596 -30.664  1.00  0.00     0.107 C 
BRANCH  27  28
HETATM   28  C   UNL     1      -5.925   4.491 -31.295  1.00  0.00     0.048 C 
BRANCH  28  29
HETATM   29  C   UNL     1      -6.853   3.839 -32.293  1.00  0.00    -0.057 A 
HETATM   30  C   UNL     1      -6.641   2.537 -32.758  1.00  0.00     0.018 A 
HETATM   31  C   UNL     1      -7.544   1.880 -33.620  1.00  0.00    -0.016 A 
HETATM   32  C   UNL     1      -8.716   2.598 -33.958  1.00  0.00     0.079 A 
HETATM   33  C   UNL     1      -8.993   3.910 -33.498  1.00  0.00    -0.016 A 
HETATM   34  C   UNL     1      -8.024   4.506 -32.672  1.00  0.00     0.018 A 
BRANCH  31  35
HETATM   35  C   UNL     1      -7.259   0.409 -34.023  1.00  0.00    -0.021 C 
HETATM   36  C   UNL     1      -8.315  -0.482 -33.336  1.00  0.00     0.019 C 
HETATM   37  C   UNL     1      -7.299   0.113 -35.540  1.00  0.00     0.019 C 
HETATM   38  C   UNL     1      -5.852  -0.059 -33.562  1.00  0.00     0.019 C 
ENDBRANCH  31  35
BRANCH  32  39
HETATM   39  O   UNL     1      -9.667   2.000 -34.734  1.00  0.00    -0.360 OA
HETATM   40  H   UNL     1     -10.384   1.756 -34.126  1.00  0.00     0.217 HD
ENDBRANCH  32  39
BRANCH  33  41
HETATM   41  C   UNL     1     -10.310   4.655 -33.830  1.00  0.00    -0.021 C 
HETATM   42  C   UNL     1     -10.252   6.102 -33.291  1.00  0.00     0.019 C 
HETATM   43  C   UNL     1     -10.592   4.773 -35.353  1.00  0.00     0.019 C 
HETATM   44  C   UNL     1     -11.529   3.918 -33.234  1.00  0.00     0.019 C 
ENDBRANCH  33  41
ENDBRANCH  28  29
ENDBRANCH  27  28
ENDBRANCH  24  27
ENDBRANCH   1  23
TORSDOF 10
ENDMDL
MODEL 5
REMARK VINA RESULT:      -8.7      2.471      8.914
REMARK  10 active torsions:
REMARK  status: ('A' for Active; 'I' for Inactive)
REMARK    1  A    between atoms: N_15  and  C_16 
REMARK    2  A    between atoms: C_16  and  C_17 
REMARK    3  A    between atoms: C_17  and  N_18 
REMARK       I    between atoms: N_18  and  C_19 
REMARK    4  A    between atoms: C_19  and  C_20 
REMARK    5  A    between atoms: C_20  and  C_21 
REMARK    6  A    between atoms: C_21  and  C_22 
REMARK    7  A    between atoms: C_24  and  C_25 
REMARK    8  A    between atoms: C_29  and  O_30 
REMARK    9  A    between atoms: C_31  and  C_32 
REMARK   10  A    between atoms: C_38  and  O_39 
ROOT
HETATM    1  C   UNL     1      -7.806   5.450 -28.618  1.00  0.00     0.142 C 
ENDROOT
BRANCH   1   2
HETATM    2  C   UNL     1      -8.644   5.105 -29.855  1.00  0.00     0.151 C 
BRANCH   2   3
HETATM    3  N   UNL     1      -7.909   4.366 -30.890  1.00  0.00    -0.291 N 
HETATM    4  C   UNL     1      -7.216   5.050 -31.868  1.00  0.00     0.366 C 
HETATM    5  O   UNL     1      -6.979   4.221 -32.930  1.00  0.00    -0.287 OA
HETATM    6  O   UNL     1      -6.868   6.217 -31.838  1.00  0.00    -0.238 OA
HETATM    7  C   UNL     1      -7.289   2.851 -32.539  1.00  0.00     0.126 C 
HETATM    8  C   UNL     1      -7.715   2.141 -33.833  1.00  0.00     0.082 C 
HETATM    9  C   UNL     1      -8.361   3.117 -31.444  1.00  0.00     0.166 C 
HETATM   10  C   UNL     1      -5.941   2.273 -32.037  1.00  0.00     0.082 C 
HETATM   11  C   UNL     1      -7.680   0.609 -33.818  1.00  0.00     0.122 C 
HETATM   12  N   UNL     1      -6.332   0.153 -33.316  1.00  0.00    -0.059 N 
HETATM   13  C   UNL     1      -7.787   0.088 -35.268  1.00  0.00     0.046 C 
HETATM   14  C   UNL     1      -8.801  -0.055 -33.019  1.00  0.00     0.046 C 
HETATM   15  C   UNL     1      -5.738   0.749 -32.060  1.00  0.00     0.122 C 
HETATM   16  H   UNL     1      -5.656   0.323 -34.077  1.00  0.00     0.279 HD
HETATM   17  H   UNL     1      -6.339  -0.874 -33.220  1.00  0.00     0.279 HD
HETATM   18  C   UNL     1      -4.218   0.463 -32.143  1.00  0.00     0.046 C 
HETATM   19  C   UNL     1      -6.252  -0.007 -30.831  1.00  0.00     0.046 C 
HETATM   20  C   UNL     1      -9.800   3.235 -31.964  1.00  0.00     0.074 C 
BRANCH   9  21
HETATM   21  O   UNL     1      -8.295   2.131 -30.439  1.00  0.00    -0.368 OA
HETATM   22  H   UNL     1      -8.536   1.280 -30.842  1.00  0.00     0.212 HD
ENDBRANCH   9  21
ENDBRANCH   2   3
ENDBRANCH   1   2
BRANCH   1  23
HETATM   23  N   UNL     1      -7.090   6.705 -28.726  1.00  0.00    -0.359 N 
HETATM   24  C   UNL     1      -5.988   6.965 -27.948  1.00  0.00     0.217 C 
HETATM   25  O   UNL     1      -5.598   6.181 -27.084  1.00  0.00    -0.274 OA
HETATM   26  H   UNL     1      -7.386   7.368 -29.440  1.00  0.00     0.162 HD
BRANCH  24  27
HETATM   27  C   UNL     1      -5.179   8.200 -28.293  1.00  0.00     0.107 C 
BRANCH  27  28
HETATM   28  C   UNL     1      -4.650   8.310 -29.719  1.00  0.00     0.048 C 
BRANCH  28  29
HETATM   29  C   UNL     1      -3.551   7.349 -30.110  1.00  0.00    -0.057 A 
HETATM   30  C   UNL     1      -3.573   6.656 -31.326  1.00  0.00     0.018 A 
HETATM   31  C   UNL     1      -2.514   5.825 -31.747  1.00  0.00    -0.016 A 
HETATM   32  C   UNL     1      -1.391   5.765 -30.889  1.00  0.00     0.079 A 
HETATM   33  C   UNL     1      -1.305   6.463 -29.658  1.00  0.00    -0.016 A 
HETATM   34  C   UNL     1      -2.419   7.240 -29.295  1.00  0.00     0.018 A 
BRANCH  31  35
HETATM   35  C   UNL     1      -2.599   5.157 -33.145  1.00  0.00    -0.021 C 
HETATM   36  C   UNL     1      -2.579   3.628 -32.940  1.00  0.00     0.019 C 
HETATM   37  C   UNL     1      -3.853   5.511 -33.978  1.00  0.00     0.019 C 
HETATM   38  C   UNL     1      -1.397   5.543 -34.050  1.00  0.00     0.019 C 
ENDBRANCH  31  35
BRANCH  32  39
HETATM   39  O   UNL     1      -0.301   5.033 -31.264  1.00  0.00    -0.360 OA
HETATM   40  H   UNL     1       0.389   5.683 -31.475  1.00  0.00     0.217 HD
ENDBRANCH  32  39
BRANCH  33  41
HETATM   41  C   UNL     1      -0.042   6.430 -28.762  1.00  0.00    -0.021 C 
HETATM   42  C   UNL     1      -0.449   6.413 -27.271  1.00  0.00     0.019 C 
HETATM   43  C   UNL     1       0.846   5.175 -28.981  1.00  0.00     0.019 C 
HETATM   44  C   UNL     1       0.871   7.644 -29.046  1.00  0.00     0.019 C 
ENDBRANCH  33  41
ENDBRANCH  28  29
ENDBRANCH  27  28
ENDBRANCH  24  27
ENDBRANCH   1  23
TORSDOF 10
ENDMDL
MODEL 6
REMARK VINA RESULT:      -8.6      2.421      9.110
REMARK  10 active torsions:
REMARK  status: ('A' for Active; 'I' for Inactive)
REMARK    1  A    between atoms: N_15  and  C_16 
REMARK    2  A    between atoms: C_16  and  C_17 
REMARK    3  A    between atoms: C_17  and  N_18 
REMARK       I    between atoms: N_18  and  C_19 
REMARK    4  A    between atoms: C_19  and  C_20 
REMARK    5  A    between atoms: C_20  and  C_21 
REMARK    6  A    between atoms: C_21  and  C_22 
REMARK    7  A    between atoms: C_24  and  C_25 
REMARK    8  A    between atoms: C_29  and  O_30 
REMARK    9  A    between atoms: C_31  and  C_32 
REMARK   10  A    between atoms: C_38  and  O_39 
ROOT
HETATM    1  C   UNL     1      -7.131   5.004 -28.452  1.00  0.00     0.142 C 
ENDROOT
BRANCH   1   2
HETATM    2  C   UNL     1      -8.035   4.625 -29.630  1.00  0.00     0.151 C 
BRANCH   2   3
HETATM    3  N   UNL     1      -7.321   4.032 -30.768  1.00  0.00    -0.291 N 
HETATM    4  C   UNL     1      -6.759   4.844 -31.732  1.00  0.00     0.366 C 
HETATM    5  O   UNL     1      -6.534   4.121 -32.871  1.00  0.00    -0.287 OA
HETATM    6  O   UNL     1      -6.505   6.032 -31.632  1.00  0.00    -0.238 OA
HETATM    7  C   UNL     1      -6.702   2.704 -32.571  1.00  0.00     0.126 C 
HETATM    8  C   UNL     1      -7.162   2.058 -33.887  1.00  0.00     0.082 C 
HETATM    9  C   UNL     1      -7.709   2.793 -31.389  1.00  0.00     0.166 C 
HETATM   10  C   UNL     1      -5.277   2.209 -32.209  1.00  0.00     0.082 C 
HETATM   11  C   UNL     1      -7.001   0.537 -33.998  1.00  0.00     0.122 C 
HETATM   12  N   UNL     1      -5.587   0.165 -33.625  1.00  0.00    -0.059 N 
HETATM   13  C   UNL     1      -7.172   0.120 -35.474  1.00  0.00     0.046 C 
HETATM   14  C   UNL     1      -8.004  -0.279 -33.182  1.00  0.00     0.046 C 
HETATM   15  C   UNL     1      -4.954   0.714 -32.368  1.00  0.00     0.122 C 
HETATM   16  H   UNL     1      -4.985   0.449 -34.414  1.00  0.00     0.279 HD
HETATM   17  H   UNL     1      -5.504  -0.863 -33.612  1.00  0.00     0.279 HD
HETATM   18  C   UNL     1      -3.426   0.569 -32.574  1.00  0.00     0.046 C 
HETATM   19  C   UNL     1      -5.313  -0.173 -31.171  1.00  0.00     0.046 C 
HETATM   20  C   UNL     1      -9.187   2.824 -31.801  1.00  0.00     0.074 C 
BRANCH   9  21
HETATM   21  O   UNL     1      -7.489   1.745 -30.473  1.00  0.00    -0.368 OA
HETATM   22  H   UNL     1      -8.292   1.196 -30.453  1.00  0.00     0.212 HD
ENDBRANCH   9  21
ENDBRANCH   2   3
ENDBRANCH   1   2
BRANCH   1  23
HETATM   23  N   UNL     1      -6.693   6.385 -28.469  1.00  0.00    -0.359 N 
HETATM   24  C   UNL     1      -5.739   6.841 -27.592  1.00  0.00     0.217 C 
HETATM   25  O   UNL     1      -5.260   6.122 -26.716  1.00  0.00    -0.274 OA
HETATM   26  H   UNL     1      -7.066   7.000 -29.190  1.00  0.00     0.162 HD
BRANCH  24  27
HETATM   27  C   UNL     1      -5.187   8.232 -27.837  1.00  0.00     0.107 C 
BRANCH  27  28
HETATM   28  C   UNL     1      -4.744   8.564 -29.259  1.00  0.00     0.048 C 
BRANCH  28  29
HETATM   29  C   UNL     1      -3.432   7.971 -29.716  1.00  0.00    -0.057 A 
HETATM   30  C   UNL     1      -2.329   7.871 -28.860  1.00  0.00     0.018 A 
HETATM   31  C   UNL     1      -1.126   7.240 -29.241  1.00  0.00    -0.016 A 
HETATM   32  C   UNL     1      -1.107   6.664 -30.533  1.00  0.00     0.079 A 
HETATM   33  C   UNL     1      -2.201   6.717 -31.432  1.00  0.00    -0.016 A 
HETATM   34  C   UNL     1      -3.350   7.396 -30.988  1.00  0.00     0.018 A 
BRANCH  31  35
HETATM   35  C   UNL     1       0.015   7.113 -28.196  1.00  0.00    -0.021 C 
HETATM   36  C   UNL     1      -0.595   7.351 -26.799  1.00  0.00     0.019 C 
HETATM   37  C   UNL     1       0.747   5.750 -28.172  1.00  0.00     0.019 C 
HETATM   38  C   UNL     1       1.135   8.163 -28.425  1.00  0.00     0.019 C 
ENDBRANCH  31  35
BRANCH  32  39
HETATM   39  O   UNL     1       0.001   5.979 -30.944  1.00  0.00    -0.360 OA
HETATM   40  H   UNL     1       0.575   5.921 -30.163  1.00  0.00     0.217 HD
ENDBRANCH  32  39
BRANCH  33  41
HETATM   41  C   UNL     1      -2.181   6.028 -32.820  1.00  0.00    -0.021 C 
HETATM   42  C   UNL     1      -1.089   6.661 -33.711  1.00  0.00     0.019 C 
HETATM   43  C   UNL     1      -1.861   4.510 -32.758  1.00  0.00     0.019 C 
HETATM   44  C   UNL     1      -3.558   6.138 -33.513  1.00  0.00     0.019 C 
ENDBRANCH  33  41
ENDBRANCH  28  29
ENDBRANCH  27  28
ENDBRANCH  24  27
ENDBRANCH   1  23
TORSDOF 10
ENDMDL
MODEL 7
REMARK VINA RESULT:      -8.5      2.556      8.724
REMARK  10 active torsions:
REMARK  status: ('A' for Active; 'I' for Inactive)
REMARK    1  A    between atoms: N_15  and  C_16 
REMARK    2  A    between atoms: C_16  and  C_17 
REMARK    3  A    between atoms: C_17  and  N_18 
REMARK       I    between atoms: N_18  and  C_19 
REMARK    4  A    between atoms: C_19  and  C_20 
REMARK    5  A    between atoms: C_20  and  C_21 
REMARK    6  A    between atoms: C_21  and  C_22 
REMARK    7  A    between atoms: C_24  and  C_25 
REMARK    8  A    between atoms: C_29  and  O_30 
REMARK    9  A    between atoms: C_31  and  C_32 
REMARK   10  A    between atoms: C_38  and  O_39 
ROOT
HETATM    1  C   UNL     1      -9.960   4.816 -30.660  1.00  0.00     0.142 C 
ENDROOT
BRANCH   1   2
HETATM    2  C   UNL     1      -9.983   4.098 -32.015  1.00  0.00     0.151 C 
BRANCH   2   3
HETATM    3  N   UNL     1      -8.668   3.622 -32.464  1.00  0.00    -0.291 N 
HETATM    4  C   UNL     1      -8.116   4.112 -33.630  1.00  0.00     0.366 C 
HETATM    5  O   UNL     1      -7.141   3.261 -34.071  1.00  0.00    -0.287 OA
HETATM    6  O   UNL     1      -8.433   5.130 -34.220  1.00  0.00    -0.238 OA
HETATM    7  C   UNL     1      -6.840   2.299 -33.016  1.00  0.00     0.126 C 
HETATM    8  C   UNL     1      -6.367   1.030 -33.741  1.00  0.00     0.082 C 
HETATM    9  C   UNL     1      -8.207   2.272 -32.276  1.00  0.00     0.166 C 
HETATM   10  C   UNL     1      -5.660   2.933 -32.235  1.00  0.00     0.082 C 
HETATM   11  C   UNL     1      -5.579   0.015 -32.904  1.00  0.00     0.122 C 
HETATM   12  N   UNL     1      -4.462   0.732 -32.187  1.00  0.00    -0.059 N 
HETATM   13  C   UNL     1      -4.894  -0.994 -33.850  1.00  0.00     0.046 C 
HETATM   14  C   UNL     1      -6.418  -0.795 -31.915  1.00  0.00     0.046 C 
HETATM   15  C   UNL     1      -4.732   2.010 -31.428  1.00  0.00     0.122 C 
HETATM   16  H   UNL     1      -3.743   0.950 -32.896  1.00  0.00     0.279 HD
HETATM   17  H   UNL     1      -3.989   0.068 -31.555  1.00  0.00     0.279 HD
HETATM   18  C   UNL     1      -3.356   2.709 -31.289  1.00  0.00     0.046 C 
HETATM   19  C   UNL     1      -5.194   1.684 -30.004  1.00  0.00     0.046 C 
HETATM   20  C   UNL     1      -9.222   1.262 -32.830  1.00  0.00     0.074 C 
BRANCH   9  21
HETATM   21  O   UNL     1      -8.017   2.052 -30.897  1.00  0.00    -0.368 OA
HETATM   22  H   UNL     1      -7.682   1.145 -30.785  1.00  0.00     0.212 HD
ENDBRANCH   9  21
ENDBRANCH   2   3
ENDBRANCH   1   2
BRANCH   1  23
HETATM   23  N   UNL     1      -8.907   5.803 -30.536  1.00  0.00    -0.359 N 
HETATM   24  C   UNL     1      -7.725   5.508 -29.901  1.00  0.00     0.217 C 
HETATM   25  O   UNL     1      -7.529   4.423 -29.355  1.00  0.00    -0.274 OA
HETATM   26  H   UNL     1      -9.039   6.706 -30.987  1.00  0.00     0.162 HD
BRANCH  24  27
HETATM   27  C   UNL     1      -6.607   6.525 -30.023  1.00  0.00     0.107 C 
BRANCH  27  28
HETATM   28  C   UNL     1      -5.435   6.390 -29.055  1.00  0.00     0.048 C 
BRANCH  28  29
HETATM   29  C   UNL     1      -4.052   6.558 -29.638  1.00  0.00    -0.057 A 
HETATM   30  C   UNL     1      -2.928   6.758 -28.827  1.00  0.00     0.018 A 
HETATM   31  C   UNL     1      -1.618   6.827 -29.347  1.00  0.00    -0.016 A 
HETATM   32  C   UNL     1      -1.492   6.635 -30.743  1.00  0.00     0.079 A 
HETATM   33  C   UNL     1      -2.592   6.408 -31.607  1.00  0.00    -0.016 A 
HETATM   34  C   UNL     1      -3.866   6.389 -31.014  1.00  0.00     0.018 A 
BRANCH  31  35
HETATM   35  C   UNL     1      -0.429   6.976 -28.361  1.00  0.00    -0.021 C 
HETATM   36  C   UNL     1       0.442   5.708 -28.476  1.00  0.00     0.019 C 
HETATM   37  C   UNL     1       0.481   8.205 -28.596  1.00  0.00     0.019 C 
HETATM   38  C   UNL     1      -0.906   7.108 -26.889  1.00  0.00     0.019 C 
ENDBRANCH  31  35
BRANCH  32  39
HETATM   39  O   UNL     1      -0.248   6.623 -31.306  1.00  0.00    -0.360 OA
HETATM   40  H   UNL     1      -0.349   7.057 -32.169  1.00  0.00     0.217 HD
ENDBRANCH  32  39
BRANCH  33  41
HETATM   41  C   UNL     1      -2.426   6.140 -33.124  1.00  0.00    -0.021 C 
HETATM   42  C   UNL     1      -1.493   4.929 -33.351  1.00  0.00     0.019 C 
HETATM   43  C   UNL     1      -3.757   5.800 -33.847  1.00  0.00     0.019 C 
HETATM   44  C   UNL     1      -1.862   7.384 -33.847  1.00  0.00     0.019 C 
ENDBRANCH  33  41
ENDBRANCH  28  29
ENDBRANCH  27  28
ENDBRANCH  24  27
ENDBRANCH   1  23
TORSDOF 10
ENDMDL
MODEL 8
REMARK VINA RESULT:      -8.5      2.496      9.346
REMARK  10 active torsions:
REMARK  status: ('A' for Active; 'I' for Inactive)
REMARK    1  A    between atoms: N_15  and  C_16 
REMARK    2  A    between atoms: C_16  and  C_17 
REMARK    3  A    between atoms: C_17  and  N_18 
REMARK       I    between atoms: N_18  and  C_19 
REMARK    4  A    between atoms: C_19  and  C_20 
REMARK    5  A    between atoms: C_20  and  C_21 
REMARK    6  A    between atoms: C_21  and  C_22 
REMARK    7  A    between atoms: C_24  and  C_25 
REMARK    8  A    between atoms: C_29  and  O_30 
REMARK    9  A    between atoms: C_31  and  C_32 
REMARK   10  A    between atoms: C_38  and  O_39 
ROOT
HETATM    1  C   UNL     1      -6.197   6.847 -30.660  1.00  0.00     0.142 C 
ENDROOT
BRANCH   1   2
HETATM    2  C   UNL     1      -6.985   6.148 -31.774  1.00  0.00     0.151 C 
BRANCH   2   3
HETATM    3  N   UNL     1      -6.352   4.924 -32.280  1.00  0.00    -0.291 N 
HETATM    4  C   UNL     1      -5.409   4.997 -33.285  1.00  0.00     0.366 C 
HETATM    5  O   UNL     1      -5.274   3.773 -33.880  1.00  0.00    -0.287 OA
HETATM    6  O   UNL     1      -4.786   5.984 -33.635  1.00  0.00    -0.238 OA
HETATM    7  C   UNL     1      -5.956   2.773 -33.066  1.00  0.00     0.126 C 
HETATM    8  C   UNL     1      -6.404   1.680 -34.048  1.00  0.00     0.082 C 
HETATM    9  C   UNL     1      -7.039   3.664 -32.393  1.00  0.00     0.166 C 
HETATM   10  C   UNL     1      -4.856   2.220 -32.124  1.00  0.00     0.082 C 
HETATM   11  C   UNL     1      -6.754   0.316 -33.442  1.00  0.00     0.122 C 
HETATM   12  N   UNL     1      -5.624  -0.128 -32.546  1.00  0.00    -0.059 N 
HETATM   13  C   UNL     1      -6.832  -0.732 -34.573  1.00  0.00     0.046 C 
HETATM   14  C   UNL     1      -8.084   0.265 -32.692  1.00  0.00     0.046 C 
HETATM   15  C   UNL     1      -5.039   0.817 -31.522  1.00  0.00     0.122 C 
HETATM   16  H   UNL     1      -4.849  -0.419 -33.163  1.00  0.00     0.279 HD
HETATM   17  H   UNL     1      -5.898  -1.001 -32.069  1.00  0.00     0.279 HD
HETATM   18  C   UNL     1      -3.638   0.248 -31.185  1.00  0.00     0.046 C 
HETATM   19  C   UNL     1      -5.853   0.752 -30.226  1.00  0.00     0.046 C 
HETATM   20  C   UNL     1      -8.339   3.817 -33.194  1.00  0.00     0.074 C 
BRANCH   9  21
HETATM   21  O   UNL     1      -7.328   3.194 -31.096  1.00  0.00    -0.368 OA
HETATM   22  H   UNL     1      -8.283   3.016 -31.052  1.00  0.00     0.212 HD
ENDBRANCH   9  21
ENDBRANCH   2   3
ENDBRANCH   1   2
BRANCH   1  23
HETATM   23  N   UNL     1      -5.465   8.016 -31.102  1.00  0.00    -0.359 N 
HETATM   24  C   UNL     1      -5.270   9.091 -30.270  1.00  0.00     0.217 C 
HETATM   25  O   UNL     1      -5.755   9.140 -29.140  1.00  0.00    -0.274 OA
HETATM   26  H   UNL     1      -5.044   7.998 -32.029  1.00  0.00     0.162 HD
BRANCH  24  27
HETATM   27  C   UNL     1      -4.304  10.160 -30.743  1.00  0.00     0.107 C 
BRANCH  27  28
HETATM   28  C   UNL     1      -2.961  10.253 -30.025  1.00  0.00     0.048 C 
BRANCH  28  29
HETATM   29  C   UNL     1      -2.293   8.947 -29.666  1.00  0.00    -0.057 A 
HETATM   30  C   UNL     1      -1.897   8.027 -30.643  1.00  0.00     0.018 A 
HETATM   31  C   UNL     1      -1.193   6.844 -30.333  1.00  0.00    -0.016 A 
HETATM   32  C   UNL     1      -0.860   6.657 -28.970  1.00  0.00     0.079 A 
HETATM   33  C   UNL     1      -1.216   7.567 -27.943  1.00  0.00    -0.016 A 
HETATM   34  C   UNL     1      -1.949   8.701 -28.332  1.00  0.00     0.018 A 
BRANCH  31  35
HETATM   35  C   UNL     1      -0.731   5.923 -31.493  1.00  0.00    -0.021 C 
HETATM   36  C   UNL     1      -0.775   6.746 -32.797  1.00  0.00     0.019 C 
HETATM   37  C   UNL     1       0.691   5.331 -31.349  1.00  0.00     0.019 C 
HETATM   38  C   UNL     1      -1.661   4.690 -31.663  1.00  0.00     0.019 C 
ENDBRANCH  31  35
BRANCH  32  39
HETATM   39  O   UNL     1      -0.121   5.568 -28.606  1.00  0.00    -0.360 OA
HETATM   40  H   UNL     1       0.386   5.321 -29.397  1.00  0.00     0.217 HD
ENDBRANCH  32  39
BRANCH  33  41
HETATM   41  C   UNL     1      -0.790   7.372 -26.466  1.00  0.00    -0.021 C 
HETATM   42  C   UNL     1       0.750   7.384 -26.352  1.00  0.00     0.019 C 
HETATM   43  C   UNL     1      -1.302   8.489 -25.517  1.00  0.00     0.019 C 
HETATM   44  C   UNL     1      -1.352   6.050 -25.898  1.00  0.00     0.019 C 
ENDBRANCH  33  41
ENDBRANCH  28  29
ENDBRANCH  27  28
ENDBRANCH  24  27
ENDBRANCH   1  23
TORSDOF 10
ENDMDL
MODEL 9
REMARK VINA RESULT:      -8.4      2.484      9.160
REMARK  10 active torsions:
REMARK  status: ('A' for Active; 'I' for Inactive)
REMARK    1  A    between atoms: N_15  and  C_16 
REMARK    2  A    between atoms: C_16  and  C_17 
REMARK    3  A    between atoms: C_17  and  N_18 
REMARK       I    between atoms: N_18  and  C_19 
REMARK    4  A    between atoms: C_19  and  C_20 
REMARK    5  A    between atoms: C_20  and  C_21 
REMARK    6  A    between atoms: C_21  and  C_22 
REMARK    7  A    between atoms: C_24  and  C_25 
REMARK    8  A    between atoms: C_29  and  O_30 
REMARK    9  A    between atoms: C_31  and  C_32 
REMARK   10  A    between atoms: C_38  and  O_39 
ROOT
HETATM    1  C   UNL     1      -5.925   6.869 -30.571  1.00  0.00     0.142 C 
ENDROOT
BRANCH   1   2
HETATM    2  C   UNL     1      -6.630   6.342 -31.827  1.00  0.00     0.151 C 
BRANCH   2   3
HETATM    3  N   UNL     1      -6.129   5.044 -32.296  1.00  0.00    -0.291 N 
HETATM    4  C   UNL     1      -5.282   4.982 -33.384  1.00  0.00     0.366 C 
HETATM    5  O   UNL     1      -5.284   3.714 -33.898  1.00  0.00    -0.287 OA
HETATM    6  O   UNL     1      -4.631   5.896 -33.859  1.00  0.00    -0.238 OA
HETATM    7  C   UNL     1      -5.950   2.823 -32.955  1.00  0.00     0.126 C 
HETATM    8  C   UNL     1      -6.560   1.702 -33.810  1.00  0.00     0.082 C 
HETATM    9  C   UNL     1      -6.904   3.833 -32.255  1.00  0.00     0.166 C 
HETATM   10  C   UNL     1      -4.805   2.256 -32.077  1.00  0.00     0.082 C 
HETATM   11  C   UNL     1      -6.940   0.410 -33.078  1.00  0.00     0.122 C 
HETATM   12  N   UNL     1      -5.762  -0.054 -32.256  1.00  0.00    -0.059 N 
HETATM   13  C   UNL     1      -7.192  -0.703 -34.118  1.00  0.00     0.046 C 
HETATM   14  C   UNL     1      -8.195   0.506 -32.210  1.00  0.00     0.046 C 
HETATM   15  C   UNL     1      -5.023   0.913 -31.360  1.00  0.00     0.122 C 
HETATM   16  H   UNL     1      -5.070  -0.440 -32.917  1.00  0.00     0.279 HD
HETATM   17  H   UNL     1      -6.047  -0.870 -31.694  1.00  0.00     0.279 HD
HETATM   18  C   UNL     1      -3.637   0.268 -31.108  1.00  0.00     0.046 C 
HETATM   19  C   UNL     1      -5.714   0.993 -29.996  1.00  0.00     0.046 C 
HETATM   20  C   UNL     1      -8.261   4.025 -32.947  1.00  0.00     0.074 C 
BRANCH   9  21
HETATM   21  O   UNL     1      -7.101   3.473 -30.907  1.00  0.00    -0.368 OA
HETATM   22  H   UNL     1      -6.498   4.011 -30.366  1.00  0.00     0.212 HD
ENDBRANCH   9  21
ENDBRANCH   2   3
ENDBRANCH   1   2
BRANCH   1  23
HETATM   23  N   UNL     1      -5.409   8.215 -30.709  1.00  0.00    -0.359 N 
HETATM   24  C   UNL     1      -5.151   8.995 -29.608  1.00  0.00     0.217 C 
HETATM   25  O   UNL     1      -5.403   8.616 -28.465  1.00  0.00    -0.274 OA
HETATM   26  H   UNL     1      -5.182   8.551 -31.644  1.00  0.00     0.162 HD
BRANCH  24  27
HETATM   27  C   UNL     1      -4.404  10.294 -29.845  1.00  0.00     0.107 C 
BRANCH  27  28
HETATM   28  C   UNL     1      -2.995  10.191 -30.422  1.00  0.00     0.048 C 
BRANCH  28  29
HETATM   29  C   UNL     1      -2.158   9.022 -29.961  1.00  0.00    -0.057 A 
HETATM   30  C   UNL     1      -1.835   8.830 -28.613  1.00  0.00     0.018 A 
HETATM   31  C   UNL     1      -1.130   7.698 -28.153  1.00  0.00    -0.016 A 
HETATM   32  C   UNL     1      -0.804   6.728 -29.131  1.00  0.00     0.079 A 
HETATM   33  C   UNL     1      -1.126   6.860 -30.505  1.00  0.00    -0.016 A 
HETATM   34  C   UNL     1      -1.796   8.035 -30.886  1.00  0.00     0.018 A 
BRANCH  31  35
HETATM   35  C   UNL     1      -0.883   7.538 -26.629  1.00  0.00    -0.021 C 
HETATM   36  C   UNL     1      -1.399   8.814 -25.931  1.00  0.00     0.019 C 
HETATM   37  C   UNL     1      -1.571   6.321 -25.967  1.00  0.00     0.019 C 
HETATM   38  C   UNL     1       0.624   7.375 -26.296  1.00  0.00     0.019 C 
ENDBRANCH  31  35
BRANCH  32  39
HETATM   39  O   UNL     1      -0.181   5.575 -28.747  1.00  0.00    -0.360 OA
HETATM   40  H   UNL     1      -0.082   5.051 -29.559  1.00  0.00     0.217 HD
ENDBRANCH  32  39
BRANCH  33  41
HETATM   41  C   UNL     1      -0.812   5.759 -31.549  1.00  0.00    -0.021 C 
HETATM   42  C   UNL     1       0.613   5.206 -31.325  1.00  0.00     0.019 C 
HETATM   43  C   UNL     1      -1.766   4.537 -31.472  1.00  0.00     0.019 C 
HETATM   44  C   UNL     1      -0.947   6.306 -32.988  1.00  0.00     0.019 C 
ENDBRANCH  33  41
ENDBRANCH  28  29
ENDBRANCH  27  28
ENDBRANCH  24  27
ENDBRANCH   1  23
TORSDOF 10
ENDMDL
MODEL 10
REMARK VINA RESULT:      -8.4      1.958      4.110
REMARK  10 active torsions:
REMARK  status: ('A' for Active; 'I' for Inactive)
REMARK    1  A    between atoms: N_15  and  C_16 
REMARK    2  A    between atoms: C_16  and  C_17 
REMARK    3  A    between atoms: C_17  and  N_18 
REMARK       I    between atoms: N_18  and  C_19 
REMARK    4  A    between atoms: C_19  and  C_20 
REMARK    5  A    between atoms: C_20  and  C_21 
REMARK    6  A    between atoms: C_21  and  C_22 
REMARK    7  A    between atoms: C_24  and  C_25 
REMARK    8  A    between atoms: C_29  and  O_30 
REMARK    9  A    between atoms: C_31  and  C_32 
REMARK   10  A    between atoms: C_38  and  O_39 
ROOT
HETATM    1  C   UNL     1      -1.507   4.831 -31.978  1.00  0.00     0.142 C 
ENDROOT
BRANCH   1   2
HETATM    2  C   UNL     1      -0.651   6.061 -31.653  1.00  0.00     0.151 C 
BRANCH   2   3
HETATM    3  N   UNL     1      -1.362   7.106 -30.905  1.00  0.00    -0.291 N 
HETATM    4  C   UNL     1      -1.767   8.260 -31.544  1.00  0.00     0.366 C 
HETATM    5  O   UNL     1      -2.008   9.238 -30.619  1.00  0.00    -0.287 OA
HETATM    6  O   UNL     1      -1.884   8.430 -32.745  1.00  0.00    -0.238 OA
HETATM    7  C   UNL     1      -2.026   8.638 -29.290  1.00  0.00     0.126 C 
HETATM    8  C   UNL     1      -1.568   9.749 -28.332  1.00  0.00     0.082 C 
HETATM    9  C   UNL     1      -1.086   7.422 -29.528  1.00  0.00     0.166 C 
HETATM   10  C   UNL     1      -3.517   8.300 -29.033  1.00  0.00     0.082 C 
HETATM   11  C   UNL     1      -1.900   9.554 -26.848  1.00  0.00     0.122 C 
HETATM   12  N   UNL     1      -3.367   9.229 -26.711  1.00  0.00    -0.059 N 
HETATM   13  C   UNL     1      -1.693  10.892 -26.106  1.00  0.00     0.046 C 
HETATM   14  C   UNL     1      -1.050   8.507 -26.128  1.00  0.00     0.046 C 
HETATM   15  C   UNL     1      -4.004   8.170 -27.580  1.00  0.00     0.122 C 
HETATM   16  H   UNL     1      -3.884  10.107 -26.878  1.00  0.00     0.279 HD
HETATM   17  H   UNL     1      -3.571   9.010 -25.724  1.00  0.00     0.279 HD
HETATM   18  C   UNL     1      -5.524   8.468 -27.551  1.00  0.00     0.046 C 
HETATM   19  C   UNL     1      -3.823   6.791 -26.941  1.00  0.00     0.046 C 
HETATM   20  C   UNL     1       0.407   7.708 -29.318  1.00  0.00     0.074 C 
BRANCH   9  21
HETATM   21  O   UNL     1      -1.482   6.329 -28.730  1.00  0.00    -0.368 OA
HETATM   22  H   UNL     1      -0.705   6.037 -28.223  1.00  0.00     0.212 HD
ENDBRANCH   9  21
ENDBRANCH   2   3
ENDBRANCH   1   2
BRANCH   1  23
HETATM   23  N   UNL     1      -2.712   5.136 -32.722  1.00  0.00    -0.359 N 
HETATM   24  C   UNL     1      -2.733   5.088 -34.095  1.00  0.00     0.217 C 
HETATM   25  O   UNL     1      -1.724   4.849 -34.756  1.00  0.00    -0.274 OA
HETATM   26  H   UNL     1      -3.565   5.327 -32.199  1.00  0.00     0.162 HD
BRANCH  24  27
HETATM   27  C   UNL     1      -4.089   5.198 -34.766  1.00  0.00     0.107 C 
BRANCH  27  28
HETATM   28  C   UNL     1      -5.315   5.218 -33.859  1.00  0.00     0.048 C 
BRANCH  28  29
HETATM   29  C   UNL     1      -6.079   3.921 -33.724  1.00  0.00    -0.057 A 
HETATM   30  C   UNL     1      -5.449   2.729 -33.350  1.00  0.00     0.018 A 
HETATM   31  C   UNL     1      -6.160   1.530 -33.132  1.00  0.00    -0.016 A 
HETATM   32  C   UNL     1      -7.566   1.606 -33.266  1.00  0.00     0.079 A 
HETATM   33  C   UNL     1      -8.258   2.792 -33.620  1.00  0.00    -0.016 A 
HETATM   34  C   UNL     1      -7.472   3.934 -33.855  1.00  0.00     0.018 A 
BRANCH  31  35
HETATM   35  C   UNL     1      -5.382   0.277 -32.648  1.00  0.00    -0.021 C 
HETATM   36  C   UNL     1      -3.906   0.683 -32.455  1.00  0.00     0.019 C 
HETATM   37  C   UNL     1      -5.883  -0.347 -31.324  1.00  0.00     0.019 C 
HETATM   38  C   UNL     1      -5.438  -0.880 -33.682  1.00  0.00     0.019 C 
ENDBRANCH  31  35
BRANCH  32  39
HETATM   39  O   UNL     1      -8.324   0.501 -33.004  1.00  0.00    -0.360 OA
HETATM   40  H   UNL     1      -7.793  -0.041 -32.397  1.00  0.00     0.217 HD
ENDBRANCH  32  39
BRANCH  33  41
HETATM   41  C   UNL     1      -9.803   2.869 -33.702  1.00  0.00    -0.021 C 
HETATM   42  C   UNL     1     -10.367   1.567 -34.314  1.00  0.00     0.019 C 
HETATM   43  C   UNL     1     -10.494   3.032 -32.321  1.00  0.00     0.019 C 
HETATM   44  C   UNL     1     -10.253   4.085 -34.542  1.00  0.00     0.019 C 
ENDBRANCH  33  41
ENDBRANCH  28  29
ENDBRANCH  27  28
ENDBRANCH  24  27
ENDBRANCH   1  23
TORSDOF 10
ENDMDL
