MODEL 1
REMARK VINA RESULT:      -9.4      0.000      0.000
REMARK  5 active torsions:
REMARK  status: ('A' for Active; 'I' for Inactive)
REMARK    1  A    between atoms: C_2  and  N_3 
REMARK    2  A    between atoms: C_14  and  C_17 
REMARK       I    between atoms: C_17  and  N_19 
REMARK    3  A    between atoms: N_19  and  C_20 
REMARK    4  A    between atoms: C_20  and  C_22 
REMARK    5  A    between atoms: C_26  and  O_27 
ROOT
HETATM    1  N   UNL     1      -5.671  -1.461 -34.314  1.00  0.00    -0.008 N 
HETATM    2  H   UNL     1      -5.468  -1.100 -35.239  1.00  0.00     0.293 HD
HETATM    3  C   UNL     1      -5.137  -2.753 -34.204  1.00  0.00     0.169 A 
HETATM    4  C   UNL     1      -5.422  -3.939 -34.927  1.00  0.00     0.154 A 
HETATM    5  N   UNL     1      -4.803  -5.126 -34.687  1.00  0.00    -0.271 NA
HETATM    6  C   UNL     1      -3.862  -5.185 -33.725  1.00  0.00     0.117 A 
HETATM    7  C   UNL     1      -3.484  -4.104 -32.966  1.00  0.00     0.034 A 
HETATM    8  C   UNL     1      -4.121  -2.875 -33.206  1.00  0.00     0.014 A 
HETATM    9  C   UNL     1      -3.996  -1.543 -32.643  1.00  0.00     0.012 A 
HETATM   10  C   UNL     1      -3.189  -0.976 -31.638  1.00  0.00     0.016 A 
HETATM   11  C   UNL     1      -3.310   0.372 -31.338  1.00  0.00     0.018 A 
HETATM   12  C   UNL     1      -4.223   1.164 -32.045  1.00  0.00     0.034 A 
HETATM   13  C   UNL     1      -5.009   0.621 -33.069  1.00  0.00     0.055 A 
HETATM   14  C   UNL     1      -4.942  -0.754 -33.367  1.00  0.00     0.152 A 
ENDROOT
BRANCH  12  15
HETATM   15  C   UNL     1      -4.311   2.609 -31.675  1.00  0.00     0.252 C 
HETATM   16  O   UNL     1      -4.641   2.932 -30.538  1.00  0.00    -0.268 OA
HETATM   17  N   UNL     1      -4.038   3.527 -32.664  1.00  0.00    -0.349 N 
HETATM   18  H   UNL     1      -3.916   3.225 -33.618  1.00  0.00     0.163 HD
BRANCH  17  19
HETATM   19  C   UNL     1      -4.145   4.960 -32.437  1.00  0.00     0.114 C 
HETATM   20  C   UNL     1      -4.980   5.627 -33.534  1.00  0.00     0.037 C 
BRANCH  19  21
HETATM   21  C   UNL     1      -2.755   5.559 -32.320  1.00  0.00    -0.033 A 
HETATM   22  C   UNL     1      -2.532   6.875 -32.756  1.00  0.00     0.009 A 
HETATM   23  C   UNL     1      -1.273   7.459 -32.636  1.00  0.00     0.003 A 
HETATM   24  C   UNL     1      -0.225   6.737 -32.066  1.00  0.00     0.037 A 
HETATM   25  C   UNL     1      -0.423   5.433 -31.613  1.00  0.00     0.068 A 
HETATM   26  C   UNL     1      -1.684   4.845 -31.746  1.00  0.00     0.046 A 
BRANCH  25  27
HETATM   27  O   UNL     1       0.684   4.847 -31.062  1.00  0.00    -0.356 OA
HETATM   28  C   UNL     1       0.787   4.862 -29.645  1.00  0.00     0.210 C 
ENDBRANCH  25  27
ENDBRANCH  19  21
ENDBRANCH  17  19
ENDBRANCH  12  15
BRANCH   1  29
HETATM   29  C   UNL     1      -7.147  -1.395 -34.169  1.00  0.00     0.244 C 
HETATM   30  C   UNL     1      -7.830  -0.316 -35.007  1.00  0.00     0.035 C 
ENDBRANCH   1  29
TORSDOF 5
ENDMDL
MODEL 2
REMARK VINA RESULT:      -9.4      1.599      1.782
REMARK  5 active torsions:
REMARK  status: ('A' for Active; 'I' for Inactive)
REMARK    1  A    between atoms: C_2  and  N_3 
REMARK    2  A    between atoms: C_14  and  C_17 
REMARK       I    between atoms: C_17  and  N_19 
REMARK    3  A    between atoms: N_19  and  C_20 
REMARK    4  A    between atoms: C_20  and  C_22 
REMARK    5  A    between atoms: C_26  and  O_27 
ROOT
HETATM    1  N   UNL     1      -5.706  -1.615 -34.422  1.00  0.00    -0.008 N 
HETATM    2  H   UNL     1      -5.527  -1.293 -35.365  1.00  0.00     0.293 HD
HETATM    3  C   UNL     1      -5.172  -2.902 -34.272  1.00  0.00     0.169 A 
HETATM    4  C   UNL     1      -5.478  -4.117 -34.938  1.00  0.00     0.154 A 
HETATM    5  N   UNL     1      -4.856  -5.294 -34.665  1.00  0.00    -0.271 NA
HETATM    6  C   UNL     1      -3.890  -5.316 -33.727  1.00  0.00     0.117 A 
HETATM    7  C   UNL     1      -3.490  -4.207 -33.023  1.00  0.00     0.034 A 
HETATM    8  C   UNL     1      -4.131  -2.987 -33.296  1.00  0.00     0.014 A 
HETATM    9  C   UNL     1      -3.989  -1.634 -32.793  1.00  0.00     0.012 A 
HETATM   10  C   UNL     1      -3.154  -1.028 -31.833  1.00  0.00     0.016 A 
HETATM   11  C   UNL     1      -3.265   0.332 -31.586  1.00  0.00     0.018 A 
HETATM   12  C   UNL     1      -4.194   1.097 -32.300  1.00  0.00     0.034 A 
HETATM   13  C   UNL     1      -5.007   0.515 -33.281  1.00  0.00     0.055 A 
HETATM   14  C   UNL     1      -4.952  -0.872 -33.523  1.00  0.00     0.152 A 
ENDROOT
BRANCH  12  15
HETATM   15  C   UNL     1      -4.270   2.556 -31.988  1.00  0.00     0.252 C 
HETATM   16  O   UNL     1      -3.980   2.959 -30.866  1.00  0.00    -0.268 OA
HETATM   17  N   UNL     1      -4.700   3.391 -32.996  1.00  0.00    -0.349 N 
HETATM   18  H   UNL     1      -5.068   3.007 -33.852  1.00  0.00     0.163 HD
BRANCH  17  19
HETATM   19  C   UNL     1      -4.867   4.822 -32.792  1.00  0.00     0.114 C 
HETATM   20  C   UNL     1      -6.067   5.351 -33.582  1.00  0.00     0.037 C 
BRANCH  19  21
HETATM   21  C   UNL     1      -3.575   5.537 -33.148  1.00  0.00    -0.033 A 
HETATM   22  C   UNL     1      -2.718   4.976 -34.108  1.00  0.00     0.009 A 
HETATM   23  C   UNL     1      -1.541   5.624 -34.473  1.00  0.00     0.003 A 
HETATM   24  C   UNL     1      -1.212   6.848 -33.891  1.00  0.00     0.037 A 
HETATM   25  C   UNL     1      -2.053   7.433 -32.944  1.00  0.00     0.068 A 
HETATM   26  C   UNL     1      -3.228   6.774 -32.570  1.00  0.00     0.046 A 
BRANCH  25  27
HETATM   27  O   UNL     1      -1.620   8.639 -32.465  1.00  0.00    -0.356 OA
HETATM   28  C   UNL     1      -2.264   9.144 -31.304  1.00  0.00     0.210 C 
ENDBRANCH  25  27
ENDBRANCH  19  21
ENDBRANCH  17  19
ENDBRANCH  12  15
BRANCH   1  29
HETATM   29  C   UNL     1      -7.178  -1.538 -34.241  1.00  0.00     0.244 C 
HETATM   30  C   UNL     1      -7.864  -0.411 -35.010  1.00  0.00     0.035 C 
ENDBRANCH   1  29
TORSDOF 5
ENDMDL
MODEL 3
REMARK VINA RESULT:      -8.7      1.694      1.873
REMARK  5 active torsions:
REMARK  status: ('A' for Active; 'I' for Inactive)
REMARK    1  A    between atoms: C_2  and  N_3 
REMARK    2  A    between atoms: C_14  and  C_17 
REMARK       I    between atoms: C_17  and  N_19 
REMARK    3  A    between atoms: N_19  and  C_20 
REMARK    4  A    between atoms: C_20  and  C_22 
REMARK    5  A    between atoms: C_26  and  O_27 
ROOT
HETATM    1  N   UNL     1      -5.626  -0.948 -34.196  1.00  0.00    -0.008 N 
HETATM    2  H   UNL     1      -5.346  -0.540 -35.079  1.00  0.00     0.293 HD
HETATM    3  C   UNL     1      -4.975  -2.179 -34.036  1.00  0.00     0.169 A 
HETATM    4  C   UNL     1      -5.034  -3.367 -34.808  1.00  0.00     0.154 A 
HETATM    5  N   UNL     1      -4.328  -4.489 -34.507  1.00  0.00    -0.271 NA
HETATM    6  C   UNL     1      -3.517  -4.477 -33.432  1.00  0.00     0.117 A 
HETATM    7  C   UNL     1      -3.359  -3.385 -32.612  1.00  0.00     0.034 A 
HETATM    8  C   UNL     1      -4.088  -2.223 -32.915  1.00  0.00     0.014 A 
HETATM    9  C   UNL     1      -4.181  -0.903 -32.321  1.00  0.00     0.012 A 
HETATM   10  C   UNL     1      -3.576  -0.284 -31.210  1.00  0.00     0.016 A 
HETATM   11  C   UNL     1      -3.880   1.035 -30.907  1.00  0.00     0.018 A 
HETATM   12  C   UNL     1      -4.774   1.747 -31.715  1.00  0.00     0.034 A 
HETATM   13  C   UNL     1      -5.358   1.155 -32.842  1.00  0.00     0.055 A 
HETATM   14  C   UNL     1      -5.106  -0.197 -33.149  1.00  0.00     0.152 A 
ENDROOT
BRANCH  12  15
HETATM   15  C   UNL     1      -5.064   3.163 -31.338  1.00  0.00     0.252 C 
HETATM   16  O   UNL     1      -5.200   3.468 -30.157  1.00  0.00    -0.268 OA
HETATM   17  N   UNL     1      -5.197   4.071 -32.365  1.00  0.00    -0.349 N 
HETATM   18  H   UNL     1      -5.225   3.755 -33.322  1.00  0.00     0.163 HD
BRANCH  17  19
HETATM   19  C   UNL     1      -5.534   5.465 -32.123  1.00  0.00     0.114 C 
HETATM   20  C   UNL     1      -6.705   5.906 -33.005  1.00  0.00     0.037 C 
BRANCH  19  21
HETATM   21  C   UNL     1      -4.299   6.326 -32.323  1.00  0.00    -0.033 A 
HETATM   22  C   UNL     1      -4.090   7.436 -31.488  1.00  0.00     0.009 A 
HETATM   23  C   UNL     1      -2.952   8.227 -31.632  1.00  0.00     0.003 A 
HETATM   24  C   UNL     1      -2.005   7.911 -32.605  1.00  0.00     0.037 A 
HETATM   25  C   UNL     1      -2.183   6.807 -33.439  1.00  0.00     0.068 A 
HETATM   26  C   UNL     1      -3.332   6.022 -33.300  1.00  0.00     0.046 A 
BRANCH  25  27
HETATM   27  O   UNL     1      -1.172   6.602 -34.338  1.00  0.00    -0.356 OA
HETATM   28  C   UNL     1      -1.144   5.348 -35.006  1.00  0.00     0.210 C 
ENDBRANCH  25  27
ENDBRANCH  19  21
ENDBRANCH  17  19
ENDBRANCH  12  15
BRANCH   1  29
HETATM   29  C   UNL     1      -7.107  -1.041 -34.244  1.00  0.00     0.244 C 
HETATM   30  C   UNL     1      -7.780  -0.101 -35.243  1.00  0.00     0.035 C 
ENDBRANCH   1  29
TORSDOF 5
ENDMDL
MODEL 4
REMARK VINA RESULT:      -8.5      4.443      7.802
REMARK  5 active torsions:
REMARK  status: ('A' for Active; 'I' for Inactive)
REMARK    1  A    between atoms: C_2  and  N_3 
REMARK    2  A    between atoms: C_14  and  C_17 
REMARK       I    between atoms: C_17  and  N_19 
REMARK    3  A    between atoms: N_19  and  C_20 
REMARK    4  A    between atoms: C_20  and  C_22 
REMARK    5  A    between atoms: C_26  and  O_27 
ROOT
HETATM    1  N   UNL     1      -4.576  -1.261 -32.477  1.00  0.00    -0.008 N 
HETATM    2  H   UNL     1      -4.810  -1.424 -31.505  1.00  0.00     0.293 HD
HETATM    3  C   UNL     1      -4.407  -2.495 -33.118  1.00  0.00     0.169 A 
HETATM    4  C   UNL     1      -3.479  -3.542 -32.885  1.00  0.00     0.154 A 
HETATM    5  N   UNL     1      -3.452  -4.691 -33.612  1.00  0.00    -0.271 NA
HETATM    6  C   UNL     1      -4.355  -4.858 -34.596  1.00  0.00     0.117 A 
HETATM    7  C   UNL     1      -5.315  -3.927 -34.912  1.00  0.00     0.034 A 
HETATM    8  C   UNL     1      -5.348  -2.737 -34.167  1.00  0.00     0.014 A 
HETATM    9  C   UNL     1      -6.190  -1.555 -34.184  1.00  0.00     0.012 A 
HETATM   10  C   UNL     1      -7.296  -1.151 -34.957  1.00  0.00     0.016 A 
HETATM   11  C   UNL     1      -7.901   0.072 -34.706  1.00  0.00     0.018 A 
HETATM   12  C   UNL     1      -7.419   0.889 -33.677  1.00  0.00     0.034 A 
HETATM   13  C   UNL     1      -6.342   0.486 -32.878  1.00  0.00     0.055 A 
HETATM   14  C   UNL     1      -5.676  -0.729 -33.138  1.00  0.00     0.152 A 
ENDROOT
BRANCH  12  15
HETATM   15  C   UNL     1      -8.109   2.195 -33.456  1.00  0.00     0.252 C 
HETATM   16  O   UNL     1      -7.636   3.226 -33.925  1.00  0.00    -0.268 OA
HETATM   17  N   UNL     1      -9.257   2.177 -32.693  1.00  0.00    -0.349 N 
HETATM   18  H   UNL     1      -9.529   1.338 -32.206  1.00  0.00     0.163 HD
BRANCH  17  19
HETATM   19  C   UNL     1      -9.982   3.394 -32.365  1.00  0.00     0.114 C 
HETATM   20  C   UNL     1      -9.651   3.862 -30.945  1.00  0.00     0.037 C 
BRANCH  19  21
HETATM   21  C   UNL     1     -11.470   3.166 -32.569  1.00  0.00    -0.033 A 
HETATM   22  C   UNL     1     -12.389   3.834 -31.744  1.00  0.00     0.009 A 
HETATM   23  C   UNL     1     -13.760   3.664 -31.927  1.00  0.00     0.003 A 
HETATM   24  C   UNL     1     -14.227   2.833 -32.945  1.00  0.00     0.037 A 
HETATM   25  C   UNL     1     -13.335   2.168 -33.786  1.00  0.00     0.068 A 
HETATM   26  C   UNL     1     -11.960   2.331 -33.592  1.00  0.00     0.046 A 
BRANCH  25  27
HETATM   27  O   UNL     1     -13.926   1.399 -34.750  1.00  0.00    -0.356 OA
HETATM   28  C   UNL     1     -15.107   0.697 -34.385  1.00  0.00     0.210 C 
ENDBRANCH  25  27
ENDBRANCH  19  21
ENDBRANCH  17  19
ENDBRANCH  12  15
BRANCH   1  29
HETATM   29  C   UNL     1      -3.362  -0.407 -32.463  1.00  0.00     0.244 C 
HETATM   30  C   UNL     1      -3.026   0.215 -31.109  1.00  0.00     0.035 C 
ENDBRANCH   1  29
TORSDOF 5
ENDMDL
MODEL 5
REMARK VINA RESULT:      -8.4      2.814      8.786
REMARK  5 active torsions:
REMARK  status: ('A' for Active; 'I' for Inactive)
REMARK    1  A    between atoms: C_2  and  N_3 
REMARK    2  A    between atoms: C_14  and  C_17 
REMARK       I    between atoms: C_17  and  N_19 
REMARK    3  A    between atoms: N_19  and  C_20 
REMARK    4  A    between atoms: C_20  and  C_22 
REMARK    5  A    between atoms: C_26  and  O_27 
ROOT
HETATM    1  N   UNL     1      -3.312   6.470 -29.735  1.00  0.00    -0.008 N 
HETATM    2  H   UNL     1      -3.627   5.848 -28.999  1.00  0.00     0.293 HD
HETATM    3  C   UNL     1      -1.980   6.829 -29.488  1.00  0.00     0.169 A 
HETATM    4  C   UNL     1      -1.394   7.526 -28.401  1.00  0.00     0.154 A 
HETATM    5  N   UNL     1      -0.064   7.796 -28.318  1.00  0.00    -0.271 NA
HETATM    6  C   UNL     1       0.748   7.373 -29.306  1.00  0.00     0.117 A 
HETATM    7  C   UNL     1       0.306   6.675 -30.404  1.00  0.00     0.034 A 
HETATM    8  C   UNL     1      -1.067   6.395 -30.499  1.00  0.00     0.014 A 
HETATM    9  C   UNL     1      -1.893   5.693 -31.463  1.00  0.00     0.012 A 
HETATM   10  C   UNL     1      -1.632   5.026 -32.676  1.00  0.00     0.016 A 
HETATM   11  C   UNL     1      -2.674   4.431 -33.372  1.00  0.00     0.018 A 
HETATM   12  C   UNL     1      -3.974   4.484 -32.859  1.00  0.00     0.034 A 
HETATM   13  C   UNL     1      -4.244   5.114 -31.637  1.00  0.00     0.055 A 
HETATM   14  C   UNL     1      -3.216   5.768 -30.929  1.00  0.00     0.152 A 
ENDROOT
BRANCH  12  15
HETATM   15  C   UNL     1      -5.055   3.828 -33.655  1.00  0.00     0.252 C 
HETATM   16  O   UNL     1      -5.515   4.389 -34.644  1.00  0.00    -0.268 OA
HETATM   17  N   UNL     1      -5.511   2.607 -33.207  1.00  0.00    -0.349 N 
HETATM   18  H   UNL     1      -5.212   2.251 -32.313  1.00  0.00     0.163 HD
BRANCH  17  19
HETATM   19  C   UNL     1      -6.597   1.901 -33.868  1.00  0.00     0.114 C 
HETATM   20  C   UNL     1      -7.922   2.128 -33.136  1.00  0.00     0.037 C 
BRANCH  19  21
HETATM   21  C   UNL     1      -6.244   0.428 -33.986  1.00  0.00    -0.033 A 
HETATM   22  C   UNL     1      -7.002  -0.396 -34.833  1.00  0.00     0.009 A 
HETATM   23  C   UNL     1      -6.684  -1.745 -34.981  1.00  0.00     0.003 A 
HETATM   24  C   UNL     1      -5.596  -2.281 -34.293  1.00  0.00     0.037 A 
HETATM   25  C   UNL     1      -4.819  -1.481 -33.455  1.00  0.00     0.068 A 
HETATM   26  C   UNL     1      -5.148  -0.131 -33.299  1.00  0.00     0.046 A 
BRANCH  25  27
HETATM   27  O   UNL     1      -3.775  -2.129 -32.855  1.00  0.00    -0.356 OA
HETATM   28  C   UNL     1      -3.014  -1.392 -31.908  1.00  0.00     0.210 C 
ENDBRANCH  25  27
ENDBRANCH  19  21
ENDBRANCH  17  19
ENDBRANCH  12  15
BRANCH   1  29
HETATM   29  C   UNL     1      -4.263   7.610 -29.735  1.00  0.00     0.244 C 
HETATM   30  C   UNL     1      -3.944   8.716 -30.738  1.00  0.00     0.035 C 
ENDBRANCH   1  29
TORSDOF 5
ENDMDL
MODEL 6
REMARK VINA RESULT:      -8.3      2.458      9.027
REMARK  5 active torsions:
REMARK  status: ('A' for Active; 'I' for Inactive)
REMARK    1  A    between atoms: C_2  and  N_3 
REMARK    2  A    between atoms: C_14  and  C_17 
REMARK       I    between atoms: C_17  and  N_19 
REMARK    3  A    between atoms: N_19  and  C_20 
REMARK    4  A    between atoms: C_20  and  C_22 
REMARK    5  A    between atoms: C_26  and  O_27 
ROOT
HETATM    1  N   UNL     1      -2.156   5.560 -32.238  1.00  0.00    -0.008 N 
HETATM    2  H   UNL     1      -2.259   5.463 -33.241  1.00  0.00     0.293 HD
HETATM    3  C   UNL     1      -2.446   6.884 -31.878  1.00  0.00     0.169 A 
HETATM    4  C   UNL     1      -1.819   8.103 -32.242  1.00  0.00     0.154 A 
HETATM    5  N   UNL     1      -2.233   9.318 -31.795  1.00  0.00    -0.271 NA
HETATM    6  C   UNL     1      -3.300   9.379 -30.975  1.00  0.00     0.117 A 
HETATM    7  C   UNL     1      -4.003   8.273 -30.561  1.00  0.00     0.034 A 
HETATM    8  C   UNL     1      -3.579   7.014 -31.017  1.00  0.00     0.014 A 
HETATM    9  C   UNL     1      -4.052   5.656 -30.823  1.00  0.00     0.012 A 
HETATM   10  C   UNL     1      -5.116   5.082 -30.100  1.00  0.00     0.016 A 
HETATM   11  C   UNL     1      -5.307   3.709 -30.131  1.00  0.00     0.018 A 
HETATM   12  C   UNL     1      -4.452   2.904 -30.891  1.00  0.00     0.034 A 
HETATM   13  C   UNL     1      -3.410   3.463 -31.642  1.00  0.00     0.055 A 
HETATM   14  C   UNL     1      -3.161   4.849 -31.594  1.00  0.00     0.152 A 
ENDROOT
BRANCH  12  15
HETATM   15  C   UNL     1      -4.706   1.432 -30.883  1.00  0.00     0.252 C 
HETATM   16  O   UNL     1      -5.489   0.949 -30.071  1.00  0.00    -0.268 OA
HETATM   17  N   UNL     1      -4.008   0.670 -31.795  1.00  0.00    -0.349 N 
HETATM   18  H   UNL     1      -3.269   1.083 -32.341  1.00  0.00     0.163 HD
BRANCH  17  19
HETATM   19  C   UNL     1      -4.131  -0.778 -31.843  1.00  0.00     0.114 C 
HETATM   20  C   UNL     1      -2.753  -1.445 -31.864  1.00  0.00     0.037 C 
BRANCH  19  21
HETATM   21  C   UNL     1      -4.985  -1.174 -33.035  1.00  0.00    -0.033 A 
HETATM   22  C   UNL     1      -4.700  -2.363 -33.724  1.00  0.00     0.009 A 
HETATM   23  C   UNL     1      -5.484  -2.763 -34.804  1.00  0.00     0.003 A 
HETATM   24  C   UNL     1      -6.570  -1.984 -35.200  1.00  0.00     0.037 A 
HETATM   25  C   UNL     1      -6.883  -0.804 -34.524  1.00  0.00     0.068 A 
HETATM   26  C   UNL     1      -6.087  -0.399 -33.449  1.00  0.00     0.046 A 
BRANCH  25  27
HETATM   27  O   UNL     1      -7.981  -0.146 -35.006  1.00  0.00    -0.356 OA
HETATM   28  C   UNL     1      -8.215   1.167 -34.515  1.00  0.00     0.210 C 
ENDBRANCH  25  27
ENDBRANCH  19  21
ENDBRANCH  17  19
ENDBRANCH  12  15
BRANCH   1  29
HETATM   29  C   UNL     1      -0.769   5.132 -31.930  1.00  0.00     0.244 C 
HETATM   30  C   UNL     1      -0.379   5.221 -30.456  1.00  0.00     0.035 C 
ENDBRANCH   1  29
TORSDOF 5
ENDMDL
MODEL 7
REMARK VINA RESULT:      -8.2      1.602      3.554
REMARK  5 active torsions:
REMARK  status: ('A' for Active; 'I' for Inactive)
REMARK    1  A    between atoms: C_2  and  N_3 
REMARK    2  A    between atoms: C_14  and  C_17 
REMARK       I    between atoms: C_17  and  N_19 
REMARK    3  A    between atoms: N_19  and  C_20 
REMARK    4  A    between atoms: C_20  and  C_22 
REMARK    5  A    between atoms: C_26  and  O_27 
ROOT
HETATM    1  N   UNL     1      -5.597  -1.560 -34.408  1.00  0.00    -0.008 N 
HETATM    2  H   UNL     1      -5.406  -1.223 -35.344  1.00  0.00     0.293 HD
HETATM    3  C   UNL     1      -5.202  -2.902 -34.319  1.00  0.00     0.169 A 
HETATM    4  C   UNL     1      -5.653  -4.050 -35.019  1.00  0.00     0.154 A 
HETATM    5  N   UNL     1      -5.156  -5.298 -34.805  1.00  0.00    -0.271 NA
HETATM    6  C   UNL     1      -4.176  -5.459 -33.895  1.00  0.00     0.117 A 
HETATM    7  C   UNL     1      -3.643  -4.426 -33.163  1.00  0.00     0.034 A 
HETATM    8  C   UNL     1      -4.154  -3.135 -33.375  1.00  0.00     0.014 A 
HETATM    9  C   UNL     1      -3.854  -1.825 -32.828  1.00  0.00     0.012 A 
HETATM   10  C   UNL     1      -2.937  -1.349 -31.871  1.00  0.00     0.016 A 
HETATM   11  C   UNL     1      -2.894   0.004 -31.573  1.00  0.00     0.018 A 
HETATM   12  C   UNL     1      -3.752   0.891 -32.234  1.00  0.00     0.034 A 
HETATM   13  C   UNL     1      -4.646   0.437 -33.212  1.00  0.00     0.055 A 
HETATM   14  C   UNL     1      -4.746  -0.937 -33.505  1.00  0.00     0.152 A 
ENDROOT
BRANCH  12  15
HETATM   15  C   UNL     1      -3.662   2.337 -31.868  1.00  0.00     0.252 C 
HETATM   16  O   UNL     1      -4.085   2.722 -30.783  1.00  0.00    -0.268 OA
HETATM   17  N   UNL     1      -3.120   3.188 -32.806  1.00  0.00    -0.349 N 
HETATM   18  H   UNL     1      -2.921   2.858 -33.737  1.00  0.00     0.163 HD
BRANCH  17  19
HETATM   19  C   UNL     1      -3.032   4.623 -32.584  1.00  0.00     0.114 C 
HETATM   20  C   UNL     1      -2.237   4.932 -31.313  1.00  0.00     0.037 C 
BRANCH  19  21
HETATM   21  C   UNL     1      -4.430   5.216 -32.554  1.00  0.00    -0.033 A 
HETATM   22  C   UNL     1      -4.728   6.232 -31.632  1.00  0.00     0.009 A 
HETATM   23  C   UNL     1      -5.994   6.812 -31.601  1.00  0.00     0.003 A 
HETATM   24  C   UNL     1      -6.973   6.392 -32.500  1.00  0.00     0.037 A 
HETATM   25  C   UNL     1      -6.698   5.394 -33.435  1.00  0.00     0.068 A 
HETATM   26  C   UNL     1      -5.431   4.804 -33.456  1.00  0.00     0.046 A 
BRANCH  25  27
HETATM   27  O   UNL     1      -7.741   5.089 -34.266  1.00  0.00    -0.356 OA
HETATM   28  C   UNL     1      -8.999   5.682 -33.971  1.00  0.00     0.210 C 
ENDBRANCH  25  27
ENDBRANCH  19  21
ENDBRANCH  17  19
ENDBRANCH  12  15
BRANCH   1  29
HETATM   29  C   UNL     1      -7.047  -1.333 -34.185  1.00  0.00     0.244 C 
HETATM   30  C   UNL     1      -7.687  -0.298 -35.108  1.00  0.00     0.035 C 
ENDBRANCH   1  29
TORSDOF 5
ENDMDL
MODEL 8
REMARK VINA RESULT:      -8.1      3.225      9.142
REMARK  5 active torsions:
REMARK  status: ('A' for Active; 'I' for Inactive)
REMARK    1  A    between atoms: C_2  and  N_3 
REMARK    2  A    between atoms: C_14  and  C_17 
REMARK       I    between atoms: C_17  and  N_19 
REMARK    3  A    between atoms: N_19  and  C_20 
REMARK    4  A    between atoms: C_20  and  C_22 
REMARK    5  A    between atoms: C_26  and  O_27 
ROOT
HETATM    1  N   UNL     1      -3.316   5.998 -33.644  1.00  0.00    -0.008 N 
HETATM    2  H   UNL     1      -3.440   6.352 -34.585  1.00  0.00     0.293 HD
HETATM    3  C   UNL     1      -3.047   7.073 -32.786  1.00  0.00     0.169 A 
HETATM    4  C   UNL     1      -1.976   8.003 -32.771  1.00  0.00     0.154 A 
HETATM    5  N   UNL     1      -1.866   8.999 -31.852  1.00  0.00    -0.271 NA
HETATM    6  C   UNL     1      -2.824   9.127 -30.915  1.00  0.00     0.117 A 
HETATM    7  C   UNL     1      -3.919   8.301 -30.831  1.00  0.00     0.034 A 
HETATM    8  C   UNL     1      -4.038   7.267 -31.774  1.00  0.00     0.014 A 
HETATM    9  C   UNL     1      -5.023   6.230 -32.020  1.00  0.00     0.012 A 
HETATM   10  C   UNL     1      -6.235   5.863 -31.404  1.00  0.00     0.016 A 
HETATM   11  C   UNL     1      -6.966   4.797 -31.905  1.00  0.00     0.018 A 
HETATM   12  C   UNL     1      -6.504   4.102 -33.028  1.00  0.00     0.034 A 
HETATM   13  C   UNL     1      -5.318   4.476 -33.672  1.00  0.00     0.055 A 
HETATM   14  C   UNL     1      -4.528   5.525 -33.160  1.00  0.00     0.152 A 
ENDROOT
BRANCH  12  15
HETATM   15  C   UNL     1      -7.334   2.961 -33.521  1.00  0.00     0.252 C 
HETATM   16  O   UNL     1      -8.428   3.174 -34.032  1.00  0.00    -0.268 OA
HETATM   17  N   UNL     1      -6.824   1.693 -33.343  1.00  0.00    -0.349 N 
HETATM   18  H   UNL     1      -5.994   1.553 -32.789  1.00  0.00     0.163 HD
BRANCH  17  19
HETATM   19  C   UNL     1      -7.566   0.504 -33.732  1.00  0.00     0.114 C 
HETATM   20  C   UNL     1      -8.631   0.158 -32.688  1.00  0.00     0.037 C 
BRANCH  19  21
HETATM   21  C   UNL     1      -6.596  -0.640 -33.973  1.00  0.00    -0.033 A 
HETATM   22  C   UNL     1      -5.248  -0.488 -33.613  1.00  0.00     0.009 A 
HETATM   23  C   UNL     1      -4.343  -1.531 -33.798  1.00  0.00     0.003 A 
HETATM   24  C   UNL     1      -4.779  -2.743 -34.334  1.00  0.00     0.037 A 
HETATM   25  C   UNL     1      -6.116  -2.923 -34.688  1.00  0.00     0.068 A 
HETATM   26  C   UNL     1      -7.019  -1.871 -34.512  1.00  0.00     0.046 A 
BRANCH  25  27
HETATM   27  O   UNL     1      -6.411  -4.163 -35.186  1.00  0.00    -0.356 OA
HETATM   28  C   UNL     1      -5.485  -5.206 -34.916  1.00  0.00     0.210 C 
ENDBRANCH  25  27
ENDBRANCH  19  21
ENDBRANCH  17  19
ENDBRANCH  12  15
BRANCH   1  29
HETATM   29  C   UNL     1      -2.224   4.996 -33.730  1.00  0.00     0.244 C 
HETATM   30  C   UNL     1      -1.286   5.164 -34.923  1.00  0.00     0.035 C 
ENDBRANCH   1  29
TORSDOF 5
ENDMDL
MODEL 9
REMARK VINA RESULT:      -8.0      3.510      9.822
REMARK  5 active torsions:
REMARK  status: ('A' for Active; 'I' for Inactive)
REMARK    1  A    between atoms: C_2  and  N_3 
REMARK    2  A    between atoms: C_14  and  C_17 
REMARK       I    between atoms: C_17  and  N_19 
REMARK    3  A    between atoms: N_19  and  C_20 
REMARK    4  A    between atoms: C_20  and  C_22 
REMARK    5  A    between atoms: C_26  and  O_27 
ROOT
HETATM    1  N   UNL     1      -2.191   7.998 -28.765  1.00  0.00    -0.008 N 
HETATM    2  H   UNL     1      -2.747   7.492 -28.086  1.00  0.00     0.293 HD
HETATM    3  C   UNL     1      -1.029   8.470 -28.139  1.00  0.00     0.169 A 
HETATM    4  C   UNL     1      -0.860   9.374 -27.059  1.00  0.00     0.154 A 
HETATM    5  N   UNL     1       0.357   9.731 -26.569  1.00  0.00    -0.271 NA
HETATM    6  C   UNL     1       1.462   9.194 -27.120  1.00  0.00     0.117 A 
HETATM    7  C   UNL     1       1.433   8.296 -28.160  1.00  0.00     0.034 A 
HETATM    8  C   UNL     1       0.179   7.925 -28.674  1.00  0.00     0.014 A 
HETATM    9  C   UNL     1      -0.258   7.024 -29.724  1.00  0.00     0.012 A 
HETATM   10  C   UNL     1       0.411   6.178 -30.630  1.00  0.00     0.016 A 
HETATM   11  C   UNL     1      -0.321   5.415 -31.527  1.00  0.00     0.018 A 
HETATM   12  C   UNL     1      -1.719   5.478 -31.516  1.00  0.00     0.034 A 
HETATM   13  C   UNL     1      -2.399   6.288 -30.599  1.00  0.00     0.055 A 
HETATM   14  C   UNL     1      -1.683   7.111 -29.706  1.00  0.00     0.152 A 
ENDROOT
BRANCH  12  15
HETATM   15  C   UNL     1      -2.453   4.635 -32.508  1.00  0.00     0.252 C 
HETATM   16  O   UNL     1      -1.945   4.386 -33.596  1.00  0.00    -0.268 OA
HETATM   17  N   UNL     1      -3.708   4.194 -32.148  1.00  0.00    -0.349 N 
HETATM   18  H   UNL     1      -4.148   4.541 -31.310  1.00  0.00     0.163 HD
BRANCH  17  19
HETATM   19  C   UNL     1      -4.539   3.414 -33.052  1.00  0.00     0.114 C 
HETATM   20  C   UNL     1      -5.649   4.277 -33.658  1.00  0.00     0.037 C 
BRANCH  19  21
HETATM   21  C   UNL     1      -5.082   2.200 -32.319  1.00  0.00    -0.033 A 
HETATM   22  C   UNL     1      -5.257   2.256 -30.927  1.00  0.00     0.009 A 
HETATM   23  C   UNL     1      -5.779   1.166 -30.234  1.00  0.00     0.003 A 
HETATM   24  C   UNL     1      -6.143   0.012 -30.926  1.00  0.00     0.037 A 
HETATM   25  C   UNL     1      -5.991  -0.065 -32.310  1.00  0.00     0.068 A 
HETATM   26  C   UNL     1      -5.456   1.026 -33.002  1.00  0.00     0.046 A 
BRANCH  25  27
HETATM   27  O   UNL     1      -6.401  -1.247 -32.864  1.00  0.00    -0.356 OA
HETATM   28  C   UNL     1      -6.651  -1.254 -34.263  1.00  0.00     0.210 C 
ENDBRANCH  25  27
ENDBRANCH  19  21
ENDBRANCH  17  19
ENDBRANCH  12  15
BRANCH   1  29
HETATM   29  C   UNL     1      -3.075   9.064 -29.299  1.00  0.00     0.244 C 
HETATM   30  C   UNL     1      -2.474   9.892 -30.433  1.00  0.00     0.035 C 
ENDBRANCH   1  29
TORSDOF 5
ENDMDL
MODEL 10
REMARK VINA RESULT:      -8.0      3.017      5.289
REMARK  5 active torsions:
REMARK  status: ('A' for Active; 'I' for Inactive)
REMARK    1  A    between atoms: C_2  and  N_3 
REMARK    2  A    between atoms: C_14  and  C_17 
REMARK       I    between atoms: C_17  and  N_19 
REMARK    3  A    between atoms: N_19  and  C_20 
REMARK    4  A    between atoms: C_20  and  C_22 
REMARK    5  A    between atoms: C_26  and  O_27 
ROOT
HETATM    1  N   UNL     1      -4.938   1.327 -31.167  1.00  0.00    -0.008 N 
HETATM    2  H   UNL     1      -5.141   1.509 -30.192  1.00  0.00     0.293 HD
HETATM    3  C   UNL     1      -6.146   1.179 -31.863  1.00  0.00     0.169 A 
HETATM    4  C   UNL     1      -7.191   0.231 -31.717  1.00  0.00     0.154 A 
HETATM    5  N   UNL     1      -8.311   0.230 -32.488  1.00  0.00    -0.271 NA
HETATM    6  C   UNL     1      -8.451   1.181 -33.431  1.00  0.00     0.117 A 
HETATM    7  C   UNL     1      -7.519   2.164 -33.661  1.00  0.00     0.034 A 
HETATM    8  C   UNL     1      -6.358   2.170 -32.871  1.00  0.00     0.014 A 
HETATM    9  C   UNL     1      -5.186   3.023 -32.800  1.00  0.00     0.012 A 
HETATM   10  C   UNL     1      -4.765   4.170 -33.500  1.00  0.00     0.016 A 
HETATM   11  C   UNL     1      -3.560   4.772 -33.173  1.00  0.00     0.018 A 
HETATM   12  C   UNL     1      -2.777   4.247 -32.139  1.00  0.00     0.034 A 
HETATM   13  C   UNL     1      -3.198   3.126 -31.411  1.00  0.00     0.055 A 
HETATM   14  C   UNL     1      -4.394   2.464 -31.751  1.00  0.00     0.152 A 
ENDROOT
BRANCH  12  15
HETATM   15  C   UNL     1      -1.487   4.937 -31.834  1.00  0.00     0.252 C 
HETATM   16  O   UNL     1      -0.739   5.270 -32.747  1.00  0.00    -0.268 OA
HETATM   17  N   UNL     1      -1.185   5.142 -30.505  1.00  0.00    -0.349 N 
HETATM   18  H   UNL     1      -1.753   4.723 -29.785  1.00  0.00     0.163 HD
BRANCH  17  19
HETATM   19  C   UNL     1       0.066   5.753 -30.085  1.00  0.00     0.114 C 
HETATM   20  C   UNL     1       1.033   4.699 -29.538  1.00  0.00     0.037 C 
BRANCH  19  21
HETATM   21  C   UNL     1      -0.222   6.855 -29.080  1.00  0.00    -0.033 A 
HETATM   22  C   UNL     1       0.821   7.699 -28.666  1.00  0.00     0.009 A 
HETATM   23  C   UNL     1       0.579   8.734 -27.766  1.00  0.00     0.003 A 
HETATM   24  C   UNL     1      -0.710   8.945 -27.279  1.00  0.00     0.037 A 
HETATM   25  C   UNL     1      -1.766   8.128 -27.684  1.00  0.00     0.068 A 
HETATM   26  C   UNL     1      -1.518   7.082 -28.578  1.00  0.00     0.046 A 
BRANCH  25  27
HETATM   27  O   UNL     1      -2.979   8.454 -27.143  1.00  0.00    -0.356 OA
HETATM   28  C   UNL     1      -3.137   8.261 -25.744  1.00  0.00     0.210 C 
ENDBRANCH  25  27
ENDBRANCH  19  21
ENDBRANCH  17  19
ENDBRANCH  12  15
BRANCH   1  29
HETATM   29  C   UNL     1      -4.072   0.121 -31.182  1.00  0.00     0.244 C 
HETATM   30  C   UNL     1      -3.598  -0.315 -32.567  1.00  0.00     0.035 C 
ENDBRANCH   1  29
TORSDOF 5
ENDMDL
