MODEL 1
REMARK VINA RESULT:      -8.5      0.000      0.000
REMARK  6 active torsions:
REMARK  status: ('A' for Active; 'I' for Inactive)
REMARK    1  A    between atoms: C_2  and  C_3 
REMARK    2  A    between atoms: C_7  and  C_8 
REMARK       I    between atoms: C_8  and  N_9 
REMARK    3  A    between atoms: N_9  and  C_10 
REMARK    4  A    between atoms: C_10  and  C_11 
REMARK    5  A    between atoms: C_11  and  N_12 
REMARK    6  A    between atoms: C_15  and  C_16 
ROOT
HETATM    1  C   UNL     1      -3.079   3.603 -32.842  1.00  0.00     0.150 C 
ENDROOT
BRANCH   1   2
HETATM    2  N   UNL     1      -2.251   4.057 -31.749  1.00  0.00    -0.354 N 
HETATM    3  C   UNL     1      -1.239   4.983 -31.909  1.00  0.00     0.272 C 
HETATM    4  O   UNL     1      -1.019   5.526 -32.989  1.00  0.00    -0.266 OA
HETATM    5  H   UNL     1      -2.268   3.614 -30.829  1.00  0.00     0.162 HD
BRANCH   3   6
HETATM    6  C   UNL     1      -0.508   5.269 -30.666  1.00  0.00     0.152 A 
HETATM    7  N   UNL     1       0.360   4.368 -30.159  1.00  0.00    -0.169 NA
HETATM    8  N   UNL     1       0.824   4.955 -29.044  1.00  0.00    -0.281 N 
HETATM    9  C   UNL     1       0.274   6.181 -28.795  1.00  0.00     0.036 A 
HETATM   10  H   UNL     1       1.514   4.459 -28.487  1.00  0.00     0.189 HD
HETATM   11  C   UNL     1      -0.601   6.427 -29.836  1.00  0.00    -0.002 A 
HETATM   12  C   UNL     1      -1.459   7.620 -30.048  1.00  0.00     0.053 C 
BRANCH   9  13
HETATM   13  C   UNL     1       0.642   6.978 -27.589  1.00  0.00     0.055 C 
HETATM   14  C   UNL     1       1.360   8.263 -27.969  1.00  0.00     0.011 C 
ENDBRANCH   9  13
ENDBRANCH   3   6
ENDBRANCH   1   2
BRANCH   1  15
HETATM   15  C   UNL     1      -4.399   2.967 -32.368  1.00  0.00     0.254 C 
BRANCH  15  16
HETATM   16  N   UNL     1      -4.222   2.163 -31.092  1.00  0.00    -0.069 N 
HETATM   17  H   UNL     1      -3.440   2.580 -30.570  1.00  0.00     0.280 HD
HETATM   18  C   UNL     1      -3.843   0.714 -31.389  1.00  0.00     0.244 C 
HETATM   19  C   UNL     1      -5.130  -0.095 -31.175  1.00  0.00     0.046 C 
HETATM   20  C   UNL     1      -5.683   0.626 -29.941  1.00  0.00     0.039 C 
HETATM   21  C   UNL     1      -5.452   2.107 -30.211  1.00  0.00     0.235 C 
BRANCH  19  22
HETATM   22  C   UNL     1      -6.005  -0.153 -32.426  1.00  0.00    -0.046 A 
HETATM   23  C   UNL     1      -5.635  -0.944 -33.543  1.00  0.00    -0.055 A 
HETATM   24  C   UNL     1      -4.416  -1.833 -33.581  1.00  0.00     0.049 C 
HETATM   25  C   UNL     1      -6.416  -0.909 -34.715  1.00  0.00     0.007 A 
HETATM   26  C   UNL     1      -7.584  -0.156 -34.780  1.00  0.00     0.001 A 
HETATM   27  C   UNL     1      -7.993   0.565 -33.670  1.00  0.00     0.001 A 
HETATM   28  C   UNL     1      -7.219   0.561 -32.507  1.00  0.00     0.008 A 
ENDBRANCH  19  22
ENDBRANCH  15  16
ENDBRANCH   1  15
TORSDOF 6
ENDMDL
MODEL 2
REMARK VINA RESULT:      -8.5      2.327      3.144
REMARK  6 active torsions:
REMARK  status: ('A' for Active; 'I' for Inactive)
REMARK    1  A    between atoms: C_2  and  C_3 
REMARK    2  A    between atoms: C_7  and  C_8 
REMARK       I    between atoms: C_8  and  N_9 
REMARK    3  A    between atoms: N_9  and  C_10 
REMARK    4  A    between atoms: C_10  and  C_11 
REMARK    5  A    between atoms: C_11  and  N_12 
REMARK    6  A    between atoms: C_15  and  C_16 
ROOT
HETATM    1  C   UNL     1      -5.985   3.994 -34.118  1.00  0.00     0.150 C 
ENDROOT
BRANCH   1   2
HETATM    2  N   UNL     1      -4.814   4.704 -33.663  1.00  0.00    -0.354 N 
HETATM    3  C   UNL     1      -3.884   5.250 -34.527  1.00  0.00     0.272 C 
HETATM    4  O   UNL     1      -4.031   5.215 -35.747  1.00  0.00    -0.266 OA
HETATM    5  H   UNL     1      -4.528   4.717 -32.682  1.00  0.00     0.162 HD
BRANCH   3   6
HETATM    6  C   UNL     1      -2.756   5.896 -33.840  1.00  0.00     0.152 A 
HETATM    7  N   UNL     1      -2.276   7.079 -34.277  1.00  0.00    -0.169 NA
HETATM    8  N   UNL     1      -1.270   7.354 -33.429  1.00  0.00    -0.281 N 
HETATM    9  C   UNL     1      -1.064   6.389 -32.485  1.00  0.00     0.036 A 
HETATM   10  H   UNL     1      -0.754   8.220 -33.556  1.00  0.00     0.189 HD
HETATM   11  C   UNL     1      -2.020   5.418 -32.715  1.00  0.00    -0.002 A 
HETATM   12  C   UNL     1      -2.234   4.150 -31.972  1.00  0.00     0.053 C 
BRANCH   9  13
HETATM   13  C   UNL     1       0.024   6.500 -31.471  1.00  0.00     0.055 C 
HETATM   14  C   UNL     1      -0.440   7.254 -30.235  1.00  0.00     0.011 C 
ENDBRANCH   9  13
ENDBRANCH   3   6
ENDBRANCH   1   2
BRANCH   1  15
HETATM   15  C   UNL     1      -5.994   2.516 -33.684  1.00  0.00     0.254 C 
BRANCH  15  16
HETATM   16  N   UNL     1      -6.124   2.362 -32.179  1.00  0.00    -0.069 N 
HETATM   17  H   UNL     1      -5.994   3.293 -31.761  1.00  0.00     0.280 HD
HETATM   18  C   UNL     1      -5.035   1.456 -31.610  1.00  0.00     0.244 C 
HETATM   19  C   UNL     1      -5.724   0.109 -31.345  1.00  0.00     0.046 C 
HETATM   20  C   UNL     1      -7.071   0.611 -30.815  1.00  0.00     0.039 C 
HETATM   21  C   UNL     1      -7.444   1.777 -31.722  1.00  0.00     0.235 C 
BRANCH  19  22
HETATM   22  C   UNL     1      -5.727  -0.802 -32.571  1.00  0.00    -0.046 A 
HETATM   23  C   UNL     1      -4.573  -1.540 -32.939  1.00  0.00    -0.055 A 
HETATM   24  C   UNL     1      -3.290  -1.552 -32.145  1.00  0.00     0.049 C 
HETATM   25  C   UNL     1      -4.580  -2.303 -34.123  1.00  0.00     0.007 A 
HETATM   26  C   UNL     1      -5.720  -2.398 -34.914  1.00  0.00     0.001 A 
HETATM   27  C   UNL     1      -6.876  -1.738 -34.526  1.00  0.00     0.001 A 
HETATM   28  C   UNL     1      -6.881  -0.957 -33.367  1.00  0.00     0.008 A 
ENDBRANCH  19  22
ENDBRANCH  15  16
ENDBRANCH   1  15
TORSDOF 6
ENDMDL
MODEL 3
REMARK VINA RESULT:      -8.2      1.956      3.989
REMARK  6 active torsions:
REMARK  status: ('A' for Active; 'I' for Inactive)
REMARK    1  A    between atoms: C_2  and  C_3 
REMARK    2  A    between atoms: C_7  and  C_8 
REMARK       I    between atoms: C_8  and  N_9 
REMARK    3  A    between atoms: N_9  and  C_10 
REMARK    4  A    between atoms: C_10  and  C_11 
REMARK    5  A    between atoms: C_11  and  N_12 
REMARK    6  A    between atoms: C_15  and  C_16 
ROOT
HETATM    1  C   UNL     1      -6.106   2.959 -34.183  1.00  0.00     0.150 C 
ENDROOT
BRANCH   1   2
HETATM    2  N   UNL     1      -4.977   3.395 -33.394  1.00  0.00    -0.354 N 
HETATM    3  C   UNL     1      -4.441   4.665 -33.488  1.00  0.00     0.272 C 
HETATM    4  O   UNL     1      -4.935   5.527 -34.211  1.00  0.00    -0.266 OA
HETATM    5  H   UNL     1      -4.420   2.749 -32.831  1.00  0.00     0.162 HD
BRANCH   3   6
HETATM    6  C   UNL     1      -3.276   4.873 -32.615  1.00  0.00     0.152 A 
HETATM    7  N   UNL     1      -3.411   4.842 -31.274  1.00  0.00    -0.169 NA
HETATM    8  N   UNL     1      -2.169   5.072 -30.816  1.00  0.00    -0.281 N 
HETATM    9  C   UNL     1      -1.247   5.277 -31.802  1.00  0.00     0.036 A 
HETATM   10  H   UNL     1      -2.018   5.084 -29.811  1.00  0.00     0.189 HD
HETATM   11  C   UNL     1      -1.929   5.151 -32.997  1.00  0.00    -0.002 A 
HETATM   12  C   UNL     1      -1.393   5.284 -34.376  1.00  0.00     0.053 C 
BRANCH   9  13
HETATM   13  C   UNL     1       0.182   5.574 -31.494  1.00  0.00     0.055 C 
HETATM   14  C   UNL     1       0.317   6.808 -30.615  1.00  0.00     0.011 C 
ENDBRANCH   9  13
ENDBRANCH   3   6
ENDBRANCH   1   2
BRANCH   1  15
HETATM   15  C   UNL     1      -7.285   2.471 -33.320  1.00  0.00     0.254 C 
BRANCH  15  16
HETATM   16  N   UNL     1      -7.978   1.264 -33.927  1.00  0.00    -0.069 N 
HETATM   17  H   UNL     1      -8.939   1.545 -34.161  1.00  0.00     0.280 HD
HETATM   18  C   UNL     1      -8.076   0.112 -32.930  1.00  0.00     0.244 C 
HETATM   19  C   UNL     1      -6.983  -0.882 -33.349  1.00  0.00     0.046 C 
HETATM   20  C   UNL     1      -7.116  -0.781 -34.872  1.00  0.00     0.039 C 
HETATM   21  C   UNL     1      -7.296   0.704 -35.157  1.00  0.00     0.235 C 
BRANCH  19  22
HETATM   22  C   UNL     1      -5.626  -0.563 -32.723  1.00  0.00    -0.046 A 
HETATM   23  C   UNL     1      -5.517  -0.192 -31.359  1.00  0.00    -0.055 A 
HETATM   24  C   UNL     1      -6.683  -0.143 -30.402  1.00  0.00     0.049 C 
HETATM   25  C   UNL     1      -4.265   0.180 -30.833  1.00  0.00     0.007 A 
HETATM   26  C   UNL     1      -3.113   0.134 -31.612  1.00  0.00     0.001 A 
HETATM   27  C   UNL     1      -3.196  -0.296 -32.927  1.00  0.00     0.001 A 
HETATM   28  C   UNL     1      -4.434  -0.647 -33.473  1.00  0.00     0.008 A 
ENDBRANCH  19  22
ENDBRANCH  15  16
ENDBRANCH   1  15
TORSDOF 6
ENDMDL
MODEL 4
REMARK VINA RESULT:      -8.1      2.865      8.816
REMARK  6 active torsions:
REMARK  status: ('A' for Active; 'I' for Inactive)
REMARK    1  A    between atoms: C_2  and  C_3 
REMARK    2  A    between atoms: C_7  and  C_8 
REMARK       I    between atoms: C_8  and  N_9 
REMARK    3  A    between atoms: N_9  and  C_10 
REMARK    4  A    between atoms: C_10  and  C_11 
REMARK    5  A    between atoms: C_11  and  N_12 
REMARK    6  A    between atoms: C_15  and  C_16 
ROOT
HETATM    1  C   UNL     1      -5.817   4.156 -32.500  1.00  0.00     0.150 C 
ENDROOT
BRANCH   1   2
HETATM    2  N   UNL     1      -5.578   2.774 -32.841  1.00  0.00    -0.354 N 
HETATM    3  C   UNL     1      -6.537   1.789 -32.702  1.00  0.00     0.272 C 
HETATM    4  O   UNL     1      -7.681   2.044 -32.333  1.00  0.00    -0.266 OA
HETATM    5  H   UNL     1      -4.646   2.418 -33.064  1.00  0.00     0.162 HD
BRANCH   3   6
HETATM    6  C   UNL     1      -6.059   0.450 -33.078  1.00  0.00     0.152 A 
HETATM    7  N   UNL     1      -5.162  -0.197 -32.307  1.00  0.00    -0.169 NA
HETATM    8  N   UNL     1      -4.961  -1.360 -32.949  1.00  0.00    -0.281 N 
HETATM    9  C   UNL     1      -5.667  -1.478 -34.112  1.00  0.00     0.036 A 
HETATM   10  H   UNL     1      -4.317  -2.033 -32.541  1.00  0.00     0.189 HD
HETATM   11  C   UNL     1      -6.404  -0.315 -34.232  1.00  0.00    -0.002 A 
HETATM   12  C   UNL     1      -7.339   0.068 -35.321  1.00  0.00     0.053 C 
BRANCH   9  13
HETATM   13  C   UNL     1      -5.556  -2.685 -34.980  1.00  0.00     0.055 C 
HETATM   14  C   UNL     1      -6.739  -3.621 -34.788  1.00  0.00     0.011 C 
ENDBRANCH   9  13
ENDBRANCH   3   6
ENDBRANCH   1   2
BRANCH   1  15
HETATM   15  C   UNL     1      -4.543   5.018 -32.570  1.00  0.00     0.254 C 
BRANCH  15  16
HETATM   16  N   UNL     1      -3.545   4.484 -33.583  1.00  0.00    -0.069 N 
HETATM   17  H   UNL     1      -3.935   3.616 -33.973  1.00  0.00     0.280 HD
HETATM   18  C   UNL     1      -2.214   4.126 -32.926  1.00  0.00     0.244 C 
HETATM   19  C   UNL     1      -1.262   5.277 -33.283  1.00  0.00     0.046 C 
HETATM   20  C   UNL     1      -1.698   5.530 -34.730  1.00  0.00     0.039 C 
HETATM   21  C   UNL     1      -3.218   5.446 -34.706  1.00  0.00     0.235 C 
BRANCH  19  22
HETATM   22  C   UNL     1      -1.345   6.438 -32.293  1.00  0.00    -0.046 A 
HETATM   23  C   UNL     1      -0.698   6.373 -31.032  1.00  0.00    -0.055 A 
HETATM   24  C   UNL     1       0.165   5.219 -30.584  1.00  0.00     0.049 C 
HETATM   25  C   UNL     1      -0.865   7.422 -30.107  1.00  0.00     0.007 A 
HETATM   26  C   UNL     1      -1.606   8.554 -30.426  1.00  0.00     0.001 A 
HETATM   27  C   UNL     1      -2.183   8.660 -31.682  1.00  0.00     0.001 A 
HETATM   28  C   UNL     1      -2.048   7.620 -32.605  1.00  0.00     0.008 A 
ENDBRANCH  19  22
ENDBRANCH  15  16
ENDBRANCH   1  15
TORSDOF 6
ENDMDL
MODEL 5
REMARK VINA RESULT:      -7.8      2.481      9.111
REMARK  6 active torsions:
REMARK  status: ('A' for Active; 'I' for Inactive)
REMARK    1  A    between atoms: C_2  and  C_3 
REMARK    2  A    between atoms: C_7  and  C_8 
REMARK       I    between atoms: C_8  and  N_9 
REMARK    3  A    between atoms: N_9  and  C_10 
REMARK    4  A    between atoms: C_10  and  C_11 
REMARK    5  A    between atoms: C_11  and  N_12 
REMARK    6  A    between atoms: C_15  and  C_16 
ROOT
HETATM    1  C   UNL     1      -4.378   2.859 -31.835  1.00  0.00     0.150 C 
ENDROOT
BRANCH   1   2
HETATM    2  N   UNL     1      -4.385   1.553 -32.452  1.00  0.00    -0.354 N 
HETATM    3  C   UNL     1      -5.272   0.557 -32.091  1.00  0.00     0.272 C 
HETATM    4  O   UNL     1      -6.155   0.744 -31.257  1.00  0.00    -0.266 OA
HETATM    5  H   UNL     1      -3.646   1.242 -33.085  1.00  0.00     0.162 HD
BRANCH   3   6
HETATM    6  C   UNL     1      -5.073  -0.699 -32.829  1.00  0.00     0.152 A 
HETATM    7  N   UNL     1      -4.055  -1.525 -32.511  1.00  0.00    -0.169 NA
HETATM    8  N   UNL     1      -4.180  -2.544 -33.378  1.00  0.00    -0.281 N 
HETATM    9  C   UNL     1      -5.215  -2.396 -34.257  1.00  0.00     0.036 A 
HETATM   10  H   UNL     1      -3.517  -3.311 -33.323  1.00  0.00     0.189 HD
HETATM   11  C   UNL     1      -5.829  -1.202 -33.930  1.00  0.00    -0.002 A 
HETATM   12  C   UNL     1      -7.007  -0.570 -34.578  1.00  0.00     0.053 C 
BRANCH   9  13
HETATM   13  C   UNL     1      -5.500  -3.409 -35.314  1.00  0.00     0.055 C 
HETATM   14  C   UNL     1      -6.672  -4.300 -34.932  1.00  0.00     0.011 C 
ENDBRANCH   9  13
ENDBRANCH   3   6
ENDBRANCH   1   2
BRANCH   1  15
HETATM   15  C   UNL     1      -3.037   3.596 -32.013  1.00  0.00     0.254 C 
BRANCH  15  16
HETATM   16  N   UNL     1      -3.025   4.472 -33.254  1.00  0.00    -0.069 N 
HETATM   17  H   UNL     1      -3.492   3.948 -34.006  1.00  0.00     0.280 HD
HETATM   18  C   UNL     1      -1.601   4.761 -33.724  1.00  0.00     0.244 C 
HETATM   19  C   UNL     1      -1.308   6.198 -33.268  1.00  0.00     0.046 C 
HETATM   20  C   UNL     1      -2.670   6.839 -33.550  1.00  0.00     0.039 C 
HETATM   21  C   UNL     1      -3.695   5.818 -33.076  1.00  0.00     0.235 C 
BRANCH  19  22
HETATM   22  C   UNL     1      -0.764   6.264 -31.842  1.00  0.00    -0.046 A 
HETATM   23  C   UNL     1      -1.020   7.384 -31.011  1.00  0.00    -0.055 A 
HETATM   24  C   UNL     1      -1.884   8.554 -31.414  1.00  0.00     0.049 C 
HETATM   25  C   UNL     1      -0.432   7.455 -29.733  1.00  0.00     0.007 A 
HETATM   26  C   UNL     1       0.350   6.417 -29.240  1.00  0.00     0.001 A 
HETATM   27  C   UNL     1       0.549   5.285 -30.015  1.00  0.00     0.001 A 
HETATM   28  C   UNL     1      -0.007   5.207 -31.295  1.00  0.00     0.008 A 
ENDBRANCH  19  22
ENDBRANCH  15  16
ENDBRANCH   1  15
TORSDOF 6
ENDMDL
MODEL 6
REMARK VINA RESULT:      -7.8      1.472      2.274
REMARK  6 active torsions:
REMARK  status: ('A' for Active; 'I' for Inactive)
REMARK    1  A    between atoms: C_2  and  C_3 
REMARK    2  A    between atoms: C_7  and  C_8 
REMARK       I    between atoms: C_8  and  N_9 
REMARK    3  A    between atoms: N_9  and  C_10 
REMARK    4  A    between atoms: C_10  and  C_11 
REMARK    5  A    between atoms: C_11  and  N_12 
REMARK    6  A    between atoms: C_15  and  C_16 
ROOT
HETATM    1  C   UNL     1      -3.344   2.464 -31.964  1.00  0.00     0.150 C 
ENDROOT
BRANCH   1   2
HETATM    2  N   UNL     1      -2.799   3.579 -31.225  1.00  0.00    -0.354 N 
HETATM    3  C   UNL     1      -2.023   4.560 -31.811  1.00  0.00     0.272 C 
HETATM    4  O   UNL     1      -1.798   4.577 -33.018  1.00  0.00    -0.266 OA
HETATM    5  H   UNL     1      -2.832   3.628 -30.205  1.00  0.00     0.162 HD
BRANCH   3   6
HETATM    6  C   UNL     1      -1.551   5.577 -30.859  1.00  0.00     0.152 A 
HETATM    7  N   UNL     1      -2.413   6.466 -30.323  1.00  0.00    -0.169 NA
HETATM    8  N   UNL     1      -1.644   7.224 -29.523  1.00  0.00    -0.281 N 
HETATM    9  C   UNL     1      -0.322   6.880 -29.542  1.00  0.00     0.036 A 
HETATM   10  H   UNL     1      -2.084   7.971 -28.994  1.00  0.00     0.189 HD
HETATM   11  C   UNL     1      -0.218   5.802 -30.401  1.00  0.00    -0.002 A 
HETATM   12  C   UNL     1       1.004   5.047 -30.779  1.00  0.00     0.053 C 
BRANCH   9  13
HETATM   13  C   UNL     1       0.695   7.621 -28.741  1.00  0.00     0.055 C 
HETATM   14  C   UNL     1       0.057   8.730 -27.920  1.00  0.00     0.011 C 
ENDBRANCH   9  13
ENDBRANCH   3   6
ENDBRANCH   1   2
BRANCH   1  15
HETATM   15  C   UNL     1      -4.759   2.741 -32.505  1.00  0.00     0.254 C 
BRANCH  15  16
HETATM   16  N   UNL     1      -5.810   2.694 -31.409  1.00  0.00    -0.069 N 
HETATM   17  H   UNL     1      -5.610   3.464 -30.757  1.00  0.00     0.280 HD
HETATM   18  C   UNL     1      -5.732   1.395 -30.610  1.00  0.00     0.244 C 
HETATM   19  C   UNL     1      -6.892   0.531 -31.125  1.00  0.00     0.046 C 
HETATM   20  C   UNL     1      -7.964   1.614 -31.288  1.00  0.00     0.039 C 
HETATM   21  C   UNL     1      -7.237   2.801 -31.905  1.00  0.00     0.235 C 
BRANCH  19  22
HETATM   22  C   UNL     1      -6.512  -0.296 -32.352  1.00  0.00    -0.046 A 
HETATM   23  C   UNL     1      -7.478  -0.635 -33.334  1.00  0.00    -0.055 A 
HETATM   24  C   UNL     1      -8.913  -0.171 -33.303  1.00  0.00     0.049 C 
HETATM   25  C   UNL     1      -7.117  -1.472 -34.409  1.00  0.00     0.007 A 
HETATM   26  C   UNL     1      -5.812  -1.927 -34.561  1.00  0.00     0.001 A 
HETATM   27  C   UNL     1      -4.844  -1.543 -33.646  1.00  0.00     0.001 A 
HETATM   28  C   UNL     1      -5.188  -0.732 -32.562  1.00  0.00     0.008 A 
ENDBRANCH  19  22
ENDBRANCH  15  16
ENDBRANCH   1  15
TORSDOF 6
ENDMDL
MODEL 7
REMARK VINA RESULT:      -7.7      5.669     10.122
REMARK  6 active torsions:
REMARK  status: ('A' for Active; 'I' for Inactive)
REMARK    1  A    between atoms: C_2  and  C_3 
REMARK    2  A    between atoms: C_7  and  C_8 
REMARK       I    between atoms: C_8  and  N_9 
REMARK    3  A    between atoms: N_9  and  C_10 
REMARK    4  A    between atoms: C_10  and  C_11 
REMARK    5  A    between atoms: C_11  and  N_12 
REMARK    6  A    between atoms: C_15  and  C_16 
ROOT
HETATM    1  C   UNL     1      -9.716   0.465 -33.347  1.00  0.00     0.150 C 
ENDROOT
BRANCH   1   2
HETATM    2  N   UNL     1     -10.996   0.999 -32.944  1.00  0.00    -0.354 N 
HETATM    3  C   UNL     1     -11.818   1.704 -33.802  1.00  0.00     0.272 C 
HETATM    4  O   UNL     1     -11.534   1.869 -34.986  1.00  0.00    -0.266 OA
HETATM    5  H   UNL     1     -11.301   1.014 -31.969  1.00  0.00     0.162 HD
BRANCH   3   6
HETATM    6  C   UNL     1     -13.055   2.180 -33.165  1.00  0.00     0.152 A 
HETATM    7  N   UNL     1     -13.022   3.204 -32.286  1.00  0.00    -0.169 NA
HETATM    8  N   UNL     1     -14.305   3.355 -31.915  1.00  0.00    -0.281 N 
HETATM    9  C   UNL     1     -15.156   2.458 -32.494  1.00  0.00     0.036 A 
HETATM   10  H   UNL     1     -14.533   4.090 -31.252  1.00  0.00     0.189 HD
HETATM   11  C   UNL     1     -14.379   1.672 -33.324  1.00  0.00    -0.002 A 
HETATM   12  C   UNL     1     -14.812   0.542 -34.185  1.00  0.00     0.053 C 
BRANCH   9  13
HETATM   13  C   UNL     1     -16.616   2.448 -32.188  1.00  0.00     0.055 C 
HETATM   14  C   UNL     1     -17.155   3.857 -31.996  1.00  0.00     0.011 C 
ENDBRANCH   9  13
ENDBRANCH   3   6
ENDBRANCH   1   2
BRANCH   1  15
HETATM   15  C   UNL     1      -8.721   0.351 -32.176  1.00  0.00     0.254 C 
BRANCH  15  16
HETATM   16  N   UNL     1      -7.795   1.552 -32.092  1.00  0.00    -0.069 N 
HETATM   17  H   UNL     1      -8.369   2.367 -31.838  1.00  0.00     0.280 HD
HETATM   18  C   UNL     1      -7.150   1.859 -33.442  1.00  0.00     0.244 C 
HETATM   19  C   UNL     1      -5.714   1.324 -33.336  1.00  0.00     0.046 C 
HETATM   20  C   UNL     1      -5.398   1.725 -31.892  1.00  0.00     0.039 C 
HETATM   21  C   UNL     1      -6.659   1.398 -31.104  1.00  0.00     0.235 C 
BRANCH  19  22
HETATM   22  C   UNL     1      -5.607  -0.153 -33.713  1.00  0.00    -0.046 A 
HETATM   23  C   UNL     1      -4.466  -0.918 -33.359  1.00  0.00    -0.055 A 
HETATM   24  C   UNL     1      -3.314  -0.387 -32.543  1.00  0.00     0.049 C 
HETATM   25  C   UNL     1      -4.357  -2.253 -33.796  1.00  0.00     0.007 A 
HETATM   26  C   UNL     1      -5.377  -2.860 -34.520  1.00  0.00     0.001 A 
HETATM   27  C   UNL     1      -6.528  -2.143 -34.811  1.00  0.00     0.001 A 
HETATM   28  C   UNL     1      -6.644  -0.811 -34.406  1.00  0.00     0.008 A 
ENDBRANCH  19  22
ENDBRANCH  15  16
ENDBRANCH   1  15
TORSDOF 6
ENDMDL
MODEL 8
REMARK VINA RESULT:      -7.6      5.753     10.240
REMARK  6 active torsions:
REMARK  status: ('A' for Active; 'I' for Inactive)
REMARK    1  A    between atoms: C_2  and  C_3 
REMARK    2  A    between atoms: C_7  and  C_8 
REMARK       I    between atoms: C_8  and  N_9 
REMARK    3  A    between atoms: N_9  and  C_10 
REMARK    4  A    between atoms: C_10  and  C_11 
REMARK    5  A    between atoms: C_11  and  N_12 
REMARK    6  A    between atoms: C_15  and  C_16 
ROOT
HETATM    1  C   UNL     1      -9.861   0.298 -33.118  1.00  0.00     0.150 C 
ENDROOT
BRANCH   1   2
HETATM    2  N   UNL     1     -11.263   0.622 -32.995  1.00  0.00    -0.354 N 
HETATM    3  C   UNL     1     -11.865   1.634 -33.717  1.00  0.00     0.272 C 
HETATM    4  O   UNL     1     -11.252   2.286 -34.558  1.00  0.00    -0.266 OA
HETATM    5  H   UNL     1     -11.855   0.222 -32.265  1.00  0.00     0.162 HD
BRANCH   3   6
HETATM    6  C   UNL     1     -13.292   1.806 -33.403  1.00  0.00     0.152 A 
HETATM    7  N   UNL     1     -14.226   1.074 -34.045  1.00  0.00    -0.169 NA
HETATM    8  N   UNL     1     -15.388   1.494 -33.516  1.00  0.00    -0.281 N 
HETATM    9  C   UNL     1     -15.245   2.481 -32.583  1.00  0.00     0.036 A 
HETATM   10  H   UNL     1     -16.250   1.068 -33.843  1.00  0.00     0.189 HD
HETATM   11  C   UNL     1     -13.886   2.713 -32.475  1.00  0.00    -0.002 A 
HETATM   12  C   UNL     1     -13.191   3.692 -31.602  1.00  0.00     0.053 C 
BRANCH   9  13
HETATM   13  C   UNL     1     -16.420   3.097 -31.902  1.00  0.00     0.055 C 
HETATM   14  C   UNL     1     -17.725   2.702 -32.577  1.00  0.00     0.011 C 
ENDBRANCH   9  13
ENDBRANCH   3   6
ENDBRANCH   1   2
BRANCH   1  15
HETATM   15  C   UNL     1      -9.042   0.711 -31.880  1.00  0.00     0.254 C 
BRANCH  15  16
HETATM   16  N   UNL     1      -8.412   2.083 -32.041  1.00  0.00    -0.069 N 
HETATM   17  H   UNL     1      -9.156   2.782 -31.907  1.00  0.00     0.280 HD
HETATM   18  C   UNL     1      -7.854   2.284 -33.448  1.00  0.00     0.244 C 
HETATM   19  C   UNL     1      -6.334   2.110 -33.310  1.00  0.00     0.046 C 
HETATM   20  C   UNL     1      -6.116   2.820 -31.970  1.00  0.00     0.039 C 
HETATM   21  C   UNL     1      -7.270   2.364 -31.088  1.00  0.00     0.235 C 
BRANCH  19  22
HETATM   22  C   UNL     1      -5.894   0.652 -33.432  1.00  0.00    -0.046 A 
HETATM   23  C   UNL     1      -6.375  -0.173 -34.481  1.00  0.00    -0.055 A 
HETATM   24  C   UNL     1      -7.284   0.309 -35.585  1.00  0.00     0.049 C 
HETATM   25  C   UNL     1      -6.020  -1.536 -34.516  1.00  0.00     0.007 A 
HETATM   26  C   UNL     1      -5.155  -2.080 -33.573  1.00  0.00     0.001 A 
HETATM   27  C   UNL     1      -4.623  -1.267 -32.585  1.00  0.00     0.001 A 
HETATM   28  C   UNL     1      -4.982   0.082 -32.521  1.00  0.00     0.008 A 
ENDBRANCH  19  22
ENDBRANCH  15  16
ENDBRANCH   1  15
TORSDOF 6
ENDMDL
MODEL 9
REMARK VINA RESULT:      -7.5      2.254      8.864
REMARK  6 active torsions:
REMARK  status: ('A' for Active; 'I' for Inactive)
REMARK    1  A    between atoms: C_2  and  C_3 
REMARK    2  A    between atoms: C_7  and  C_8 
REMARK       I    between atoms: C_8  and  N_9 
REMARK    3  A    between atoms: N_9  and  C_10 
REMARK    4  A    between atoms: C_10  and  C_11 
REMARK    5  A    between atoms: C_11  and  N_12 
REMARK    6  A    between atoms: C_15  and  C_16 
ROOT
HETATM    1  C   UNL     1      -2.982   3.448 -31.484  1.00  0.00     0.150 C 
ENDROOT
BRANCH   1   2
HETATM    2  N   UNL     1      -3.794   2.600 -32.324  1.00  0.00    -0.354 N 
HETATM    3  C   UNL     1      -5.037   2.133 -31.941  1.00  0.00     0.272 C 
HETATM    4  O   UNL     1      -5.556   2.464 -30.878  1.00  0.00    -0.266 OA
HETATM    5  H   UNL     1      -3.438   2.177 -33.184  1.00  0.00     0.162 HD
BRANCH   3   6
HETATM    6  C   UNL     1      -5.667   1.258 -32.941  1.00  0.00     0.152 A 
HETATM    7  N   UNL     1      -6.333   1.785 -33.989  1.00  0.00    -0.169 NA
HETATM    8  N   UNL     1      -6.766   0.713 -34.672  1.00  0.00    -0.281 N 
HETATM    9  C   UNL     1      -6.433  -0.480 -34.096  1.00  0.00     0.036 A 
HETATM   10  H   UNL     1      -7.296   0.864 -35.526  1.00  0.00     0.189 HD
HETATM   11  C   UNL     1      -5.708  -0.168 -32.962  1.00  0.00    -0.002 A 
HETATM   12  C   UNL     1      -5.110  -1.101 -31.972  1.00  0.00     0.053 C 
BRANCH   9  13
HETATM   13  C   UNL     1      -6.848  -1.783 -34.690  1.00  0.00     0.055 C 
HETATM   14  C   UNL     1      -5.644  -2.644 -35.041  1.00  0.00     0.011 C 
ENDBRANCH   9  13
ENDBRANCH   3   6
ENDBRANCH   1   2
BRANCH   1  15
HETATM   15  C   UNL     1      -3.355   4.938 -31.601  1.00  0.00     0.254 C 
BRANCH  15  16
HETATM   16  N   UNL     1      -2.687   5.604 -32.791  1.00  0.00    -0.069 N 
HETATM   17  H   UNL     1      -3.074   5.176 -33.643  1.00  0.00     0.280 HD
HETATM   18  C   UNL     1      -1.181   5.351 -32.804  1.00  0.00     0.244 C 
HETATM   19  C   UNL     1      -0.546   6.655 -32.302  1.00  0.00     0.046 C 
HETATM   20  C   UNL     1      -1.458   7.669 -32.999  1.00  0.00     0.039 C 
HETATM   21  C   UNL     1      -2.865   7.107 -32.848  1.00  0.00     0.235 C 
BRANCH  19  22
HETATM   22  C   UNL     1      -0.441   6.710 -30.779  1.00  0.00    -0.046 A 
HETATM   23  C   UNL     1       0.392   5.808 -30.068  1.00  0.00    -0.055 A 
HETATM   24  C   UNL     1       1.280   4.782 -30.728  1.00  0.00     0.049 C 
HETATM   25  C   UNL     1       0.401   5.826 -28.660  1.00  0.00     0.007 A 
HETATM   26  C   UNL     1      -0.348   6.756 -27.946  1.00  0.00     0.001 A 
HETATM   27  C   UNL     1      -1.110   7.689 -28.632  1.00  0.00     0.001 A 
HETATM   28  C   UNL     1      -1.149   7.671 -30.028  1.00  0.00     0.008 A 
ENDBRANCH  19  22
ENDBRANCH  15  16
ENDBRANCH   1  15
TORSDOF 6
ENDMDL
MODEL 10
REMARK VINA RESULT:      -7.5      2.702      8.866
REMARK  6 active torsions:
REMARK  status: ('A' for Active; 'I' for Inactive)
REMARK    1  A    between atoms: C_2  and  C_3 
REMARK    2  A    between atoms: C_7  and  C_8 
REMARK       I    between atoms: C_8  and  N_9 
REMARK    3  A    between atoms: N_9  and  C_10 
REMARK    4  A    between atoms: C_10  and  C_11 
REMARK    5  A    between atoms: C_11  and  N_12 
REMARK    6  A    between atoms: C_15  and  C_16 
ROOT
HETATM    1  C   UNL     1      -3.294   2.366 -31.711  1.00  0.00     0.150 C 
ENDROOT
BRANCH   1   2
HETATM    2  N   UNL     1      -3.816   1.293 -32.524  1.00  0.00    -0.354 N 
HETATM    3  C   UNL     1      -5.137   0.893 -32.481  1.00  0.00     0.272 C 
HETATM    4  O   UNL     1      -5.969   1.471 -31.786  1.00  0.00    -0.266 OA
HETATM    5  H   UNL     1      -3.211   0.673 -33.066  1.00  0.00     0.162 HD
BRANCH   3   6
HETATM    6  C   UNL     1      -5.434  -0.241 -33.370  1.00  0.00     0.152 A 
HETATM    7  N   UNL     1      -6.387  -0.136 -34.318  1.00  0.00    -0.169 NA
HETATM    8  N   UNL     1      -6.383  -1.339 -34.918  1.00  0.00    -0.281 N 
HETATM    9  C   UNL     1      -5.490  -2.221 -34.380  1.00  0.00     0.036 A 
HETATM   10  H   UNL     1      -7.026  -1.497 -35.688  1.00  0.00     0.189 HD
HETATM   11  C   UNL     1      -4.843  -1.540 -33.365  1.00  0.00    -0.002 A 
HETATM   12  C   UNL     1      -3.778  -2.043 -32.459  1.00  0.00     0.053 C 
BRANCH   9  13
HETATM   13  C   UNL     1      -5.356  -3.615 -34.891  1.00  0.00     0.055 C 
HETATM   14  C   UNL     1      -6.714  -4.272 -35.080  1.00  0.00     0.011 C 
ENDBRANCH   9  13
ENDBRANCH   3   6
ENDBRANCH   1   2
BRANCH   1  15
HETATM   15  C   UNL     1      -3.010   3.645 -32.521  1.00  0.00     0.254 C 
BRANCH  15  16
HETATM   16  N   UNL     1      -4.202   4.586 -32.543  1.00  0.00    -0.069 N 
HETATM   17  H   UNL     1      -4.912   4.171 -33.161  1.00  0.00     0.280 HD
HETATM   18  C   UNL     1      -3.833   5.947 -33.129  1.00  0.00     0.244 C 
HETATM   19  C   UNL     1      -3.697   6.886 -31.922  1.00  0.00     0.046 C 
HETATM   20  C   UNL     1      -4.865   6.378 -31.071  1.00  0.00     0.039 C 
HETATM   21  C   UNL     1      -4.807   4.861 -31.183  1.00  0.00     0.235 C 
BRANCH  19  22
HETATM   22  C   UNL     1      -2.297   6.861 -31.311  1.00  0.00    -0.046 A 
HETATM   23  C   UNL     1      -1.140   6.948 -32.126  1.00  0.00    -0.055 A 
HETATM   24  C   UNL     1      -1.174   7.136 -33.623  1.00  0.00     0.049 C 
HETATM   25  C   UNL     1       0.137   6.834 -31.542  1.00  0.00     0.007 A 
HETATM   26  C   UNL     1       0.291   6.698 -30.167  1.00  0.00     0.001 A 
HETATM   27  C   UNL     1      -0.831   6.684 -29.353  1.00  0.00     0.001 A 
HETATM   28  C   UNL     1      -2.106   6.772 -29.916  1.00  0.00     0.008 A 
ENDBRANCH  19  22
ENDBRANCH  15  16
ENDBRANCH   1  15
TORSDOF 6
ENDMDL
