MODEL 1
REMARK VINA RESULT:      -7.2      0.000      0.000
REMARK  5 active torsions:
REMARK  status: ('A' for Active; 'I' for Inactive)
REMARK    1  A    between atoms: C_3  and  N_4 
REMARK       I    between atoms: N_4  and  C_5 
REMARK       I    between atoms: C_5  and  N_6 
REMARK    2  A    between atoms: N_6  and  C_7 
REMARK    3  A    between atoms: C_7  and  C_8 
REMARK    4  A    between atoms: C_8  and  O_9 
REMARK    5  A    between atoms: O_9  and  C_10 
ROOT
HETATM    1  N   UNL     1      -3.999  -1.549 -33.752  1.00  0.00    -0.307 N 
HETATM    2  C   UNL     1      -4.110  -0.834 -32.582  1.00  0.00     0.320 C 
HETATM    3  N   UNL     1      -3.277   0.267 -32.602  1.00  0.00    -0.340 N 
HETATM    4  O   UNL     1      -4.822  -1.109 -31.630  1.00  0.00    -0.247 OA
HETATM    5  H   UNL     1      -3.060  -1.551 -34.126  1.00  0.00     0.170 HD
HETATM    6  H   UNL     1      -3.089   0.605 -33.535  1.00  0.00     0.164 HD
ENDROOT
BRANCH   3   7
HETATM    7  C   UNL     1      -3.423   1.314 -31.594  1.00  0.00     0.156 C 
BRANCH   7   8
HETATM    8  C   UNL     1      -4.045   2.636 -32.093  1.00  0.00     0.142 C 
HETATM    9  C   UNL     1      -3.187   3.846 -31.716  1.00  0.00     0.042 C 
BRANCH   8  10
HETATM   10  O   UNL     1      -5.291   2.845 -31.401  1.00  0.00    -0.345 OA
BRANCH  10  11
HETATM   11  C   UNL     1      -6.446   2.370 -31.948  1.00  0.00     0.069 A 
HETATM   12  C   UNL     1      -6.952   2.687 -33.208  1.00  0.00     0.038 A 
HETATM   13  C   UNL     1      -8.152   2.113 -33.643  1.00  0.00     0.026 A 
HETATM   14  C   UNL     1      -8.837   1.216 -32.824  1.00  0.00     0.034 A 
HETATM   15 CL   UNL     1     -10.312   0.516 -33.363  1.00  0.00    -0.084 Cl
HETATM   16  C   UNL     1      -8.328   0.881 -31.573  1.00  0.00     0.026 A 
HETATM   17  C   UNL     1      -7.132   1.456 -31.142  1.00  0.00     0.038 A 
ENDBRANCH  10  11
ENDBRANCH   8  10
ENDBRANCH   7   8
ENDBRANCH   3   7
BRANCH   1  18
HETATM   18  C   UNL     1      -4.843  -2.604 -34.177  1.00  0.00     0.059 A 
HETATM   19  C   UNL     1      -6.157  -2.473 -34.655  1.00  0.00    -0.032 A 
HETATM   20  C   UNL     1      -6.878  -1.170 -34.851  1.00  0.00     0.050 C 
HETATM   21  C   UNL     1      -6.857  -3.642 -35.006  1.00  0.00     0.028 A 
HETATM   22  C   UNL     1      -6.221  -4.871 -34.935  1.00  0.00     0.117 A 
HETATM   23  N   UNL     1      -4.944  -5.023 -34.545  1.00  0.00    -0.271 NA
HETATM   24  C   UNL     1      -4.295  -3.892 -34.180  1.00  0.00     0.146 A 
ENDBRANCH   1  18
TORSDOF 5
ENDMDL
MODEL 2
REMARK VINA RESULT:      -7.2      3.192      5.835
REMARK  5 active torsions:
REMARK  status: ('A' for Active; 'I' for Inactive)
REMARK    1  A    between atoms: C_3  and  N_4 
REMARK       I    between atoms: N_4  and  C_5 
REMARK       I    between atoms: C_5  and  N_6 
REMARK    2  A    between atoms: N_6  and  C_7 
REMARK    3  A    between atoms: C_7  and  C_8 
REMARK    4  A    between atoms: C_8  and  O_9 
REMARK    5  A    between atoms: O_9  and  C_10 
ROOT
HETATM    1  N   UNL     1      -8.565   2.175 -31.730  1.00  0.00    -0.307 N 
HETATM    2  C   UNL     1      -7.233   2.338 -32.034  1.00  0.00     0.320 C 
HETATM    3  N   UNL     1      -6.440   1.991 -30.959  1.00  0.00    -0.340 N 
HETATM    4  O   UNL     1      -6.777   2.745 -33.091  1.00  0.00    -0.247 OA
HETATM    5  H   UNL     1      -8.780   2.398 -30.767  1.00  0.00     0.170 HD
HETATM    6  H   UNL     1      -6.871   1.309 -30.353  1.00  0.00     0.164 HD
ENDROOT
BRANCH   3   7
HETATM    7  C   UNL     1      -5.000   1.824 -31.136  1.00  0.00     0.156 C 
BRANCH   7   8
HETATM    8  C   UNL     1      -4.537   0.400 -31.510  1.00  0.00     0.142 C 
HETATM    9  C   UNL     1      -3.088   0.144 -31.087  1.00  0.00     0.042 C 
BRANCH   8  10
HETATM   10  O   UNL     1      -4.521   0.285 -32.946  1.00  0.00    -0.345 OA
BRANCH  10  11
HETATM   11  C   UNL     1      -5.110  -0.793 -33.535  1.00  0.00     0.069 A 
HETATM   12  C   UNL     1      -6.457  -0.914 -33.873  1.00  0.00     0.038 A 
HETATM   13  C   UNL     1      -6.921  -2.085 -34.484  1.00  0.00     0.026 A 
HETATM   14  C   UNL     1      -6.037  -3.126 -34.766  1.00  0.00     0.034 A 
HETATM   15 CL   UNL     1      -6.613  -4.562 -35.515  1.00  0.00    -0.084 Cl
HETATM   16  C   UNL     1      -4.688  -3.005 -34.448  1.00  0.00     0.026 A 
HETATM   17  C   UNL     1      -4.229  -1.837 -33.837  1.00  0.00     0.038 A 
ENDBRANCH  10  11
ENDBRANCH   8  10
ENDBRANCH   7   8
ENDBRANCH   3   7
BRANCH   1  18
HETATM   18  C   UNL     1      -9.649   2.225 -32.640  1.00  0.00     0.059 A 
HETATM   19  C   UNL     1     -10.337   1.123 -33.171  1.00  0.00    -0.032 A 
HETATM   20  C   UNL     1     -10.073  -0.313 -32.815  1.00  0.00     0.050 C 
HETATM   21  C   UNL     1     -11.375   1.366 -34.089  1.00  0.00     0.028 A 
HETATM   22  C   UNL     1     -11.732   2.669 -34.393  1.00  0.00     0.117 A 
HETATM   23  N   UNL     1     -11.137   3.746 -33.852  1.00  0.00    -0.271 NA
HETATM   24  C   UNL     1     -10.120   3.495 -32.995  1.00  0.00     0.146 A 
ENDBRANCH   1  18
TORSDOF 5
ENDMDL
MODEL 3
REMARK VINA RESULT:      -7.1      3.118      7.447
REMARK  5 active torsions:
REMARK  status: ('A' for Active; 'I' for Inactive)
REMARK    1  A    between atoms: C_3  and  N_4 
REMARK       I    between atoms: N_4  and  C_5 
REMARK       I    between atoms: C_5  and  N_6 
REMARK    2  A    between atoms: N_6  and  C_7 
REMARK    3  A    between atoms: C_7  and  C_8 
REMARK    4  A    between atoms: C_8  and  O_9 
REMARK    5  A    between atoms: O_9  and  C_10 
ROOT
HETATM    1  N   UNL     1      -2.440   4.197 -32.627  1.00  0.00    -0.307 N 
HETATM    2  C   UNL     1      -3.761   4.069 -32.267  1.00  0.00     0.320 C 
HETATM    3  N   UNL     1      -4.312   2.934 -32.828  1.00  0.00    -0.340 N 
HETATM    4  O   UNL     1      -4.398   4.838 -31.565  1.00  0.00    -0.247 OA
HETATM    5  H   UNL     1      -2.254   3.878 -33.568  1.00  0.00     0.170 HD
HETATM    6  H   UNL     1      -3.632   2.210 -33.005  1.00  0.00     0.164 HD
ENDROOT
BRANCH   3   7
HETATM    7  C   UNL     1      -5.612   2.450 -32.371  1.00  0.00     0.156 C 
BRANCH   7   8
HETATM    8  C   UNL     1      -5.663   0.959 -31.973  1.00  0.00     0.142 C 
HETATM    9  C   UNL     1      -5.255   0.745 -30.514  1.00  0.00     0.042 C 
BRANCH   8  10
HETATM   10  O   UNL     1      -4.669   0.247 -32.735  1.00  0.00    -0.345 OA
BRANCH  10  11
HETATM   11  C   UNL     1      -5.022  -0.894 -33.392  1.00  0.00     0.069 A 
HETATM   12  C   UNL     1      -4.165  -1.927 -33.767  1.00  0.00     0.038 A 
HETATM   13  C   UNL     1      -4.673  -3.049 -34.433  1.00  0.00     0.026 A 
HETATM   14  C   UNL     1      -6.036  -3.139 -34.712  1.00  0.00     0.034 A 
HETATM   15 CL   UNL     1      -6.654  -4.519 -35.532  1.00  0.00    -0.084 Cl
HETATM   16  C   UNL     1      -6.900  -2.120 -34.324  1.00  0.00     0.026 A 
HETATM   17  C   UNL     1      -6.390  -1.003 -33.661  1.00  0.00     0.038 A 
ENDBRANCH  10  11
ENDBRANCH   8  10
ENDBRANCH   7   8
ENDBRANCH   3   7
BRANCH   1  18
HETATM   18  C   UNL     1      -1.502   5.107 -32.079  1.00  0.00     0.059 A 
HETATM   19  C   UNL     1      -1.165   6.366 -32.602  1.00  0.00    -0.032 A 
HETATM   20  C   UNL     1      -1.791   6.991 -33.817  1.00  0.00     0.050 C 
HETATM   21  C   UNL     1      -0.185   7.123 -31.935  1.00  0.00     0.028 A 
HETATM   22  C   UNL     1       0.369   6.646 -30.759  1.00  0.00     0.117 A 
HETATM   23  N   UNL     1       0.020   5.476 -30.196  1.00  0.00    -0.271 NA
HETATM   24  C   UNL     1      -0.901   4.745 -30.868  1.00  0.00     0.146 A 
ENDBRANCH   1  18
TORSDOF 5
ENDMDL
MODEL 4
REMARK VINA RESULT:      -7.0      3.082      4.726
REMARK  5 active torsions:
REMARK  status: ('A' for Active; 'I' for Inactive)
REMARK    1  A    between atoms: C_3  and  N_4 
REMARK       I    between atoms: N_4  and  C_5 
REMARK       I    between atoms: C_5  and  N_6 
REMARK    2  A    between atoms: N_6  and  C_7 
REMARK    3  A    between atoms: C_7  and  C_8 
REMARK    4  A    between atoms: C_8  and  O_9 
REMARK    5  A    between atoms: O_9  and  C_10 
ROOT
HETATM    1  N   UNL     1      -4.387  -0.805 -33.495  1.00  0.00    -0.307 N 
HETATM    2  C   UNL     1      -4.655  -0.175 -32.303  1.00  0.00     0.320 C 
HETATM    3  N   UNL     1      -4.090   1.085 -32.278  1.00  0.00    -0.340 N 
HETATM    4  O   UNL     1      -5.287  -0.636 -31.366  1.00  0.00    -0.247 OA
HETATM    5  H   UNL     1      -3.471  -0.584 -33.862  1.00  0.00     0.170 HD
HETATM    6  H   UNL     1      -3.982   1.488 -33.198  1.00  0.00     0.164 HD
ENDROOT
BRANCH   3   7
HETATM    7  C   UNL     1      -4.467   2.036 -31.236  1.00  0.00     0.156 C 
BRANCH   7   8
HETATM    8  C   UNL     1      -5.192   3.308 -31.728  1.00  0.00     0.142 C 
HETATM    9  C   UNL     1      -6.466   2.971 -32.506  1.00  0.00     0.042 C 
BRANCH   8  10
HETATM   10  O   UNL     1      -4.347   3.974 -32.686  1.00  0.00    -0.345 OA
BRANCH  10  11
HETATM   11  C   UNL     1      -3.277   4.693 -32.244  1.00  0.00     0.069 A 
HETATM   12  C   UNL     1      -3.249   5.529 -31.129  1.00  0.00     0.038 A 
HETATM   13  C   UNL     1      -2.070   6.201 -30.789  1.00  0.00     0.026 A 
HETATM   14  C   UNL     1      -0.919   6.029 -31.557  1.00  0.00     0.034 A 
HETATM   15 CL   UNL     1       0.527   6.859 -31.136  1.00  0.00    -0.084 Cl
HETATM   16  C   UNL     1      -0.934   5.183 -32.661  1.00  0.00     0.026 A 
HETATM   17  C   UNL     1      -2.112   4.514 -32.998  1.00  0.00     0.038 A 
ENDBRANCH  10  11
ENDBRANCH   8  10
ENDBRANCH   7   8
ENDBRANCH   3   7
BRANCH   1  18
HETATM   18  C   UNL     1      -4.973  -2.007 -33.963  1.00  0.00     0.059 A 
HETATM   19  C   UNL     1      -6.252  -2.141 -34.528  1.00  0.00    -0.032 A 
HETATM   20  C   UNL     1      -7.204  -1.007 -34.786  1.00  0.00     0.050 C 
HETATM   21  C   UNL     1      -6.679  -3.425 -34.911  1.00  0.00     0.028 A 
HETATM   22  C   UNL     1      -5.817  -4.502 -34.784  1.00  0.00     0.117 A 
HETATM   23  N   UNL     1      -4.565  -4.397 -34.309  1.00  0.00    -0.271 NA
HETATM   24  C   UNL     1      -4.180  -3.160 -33.915  1.00  0.00     0.146 A 
ENDBRANCH   1  18
TORSDOF 5
ENDMDL
MODEL 5
REMARK VINA RESULT:      -6.9      3.280      7.335
REMARK  5 active torsions:
REMARK  status: ('A' for Active; 'I' for Inactive)
REMARK    1  A    between atoms: C_3  and  N_4 
REMARK       I    between atoms: N_4  and  C_5 
REMARK       I    between atoms: C_5  and  N_6 
REMARK    2  A    between atoms: N_6  and  C_7 
REMARK    3  A    between atoms: C_7  and  C_8 
REMARK    4  A    between atoms: C_8  and  O_9 
REMARK    5  A    between atoms: O_9  and  C_10 
ROOT
HETATM    1  N   UNL     1      -3.777   4.759 -34.071  1.00  0.00    -0.307 N 
HETATM    2  C   UNL     1      -5.096   4.710 -33.684  1.00  0.00     0.320 C 
HETATM    3  N   UNL     1      -5.739   3.640 -34.274  1.00  0.00    -0.340 N 
HETATM    4  O   UNL     1      -5.661   5.493 -32.938  1.00  0.00    -0.247 OA
HETATM    5  H   UNL     1      -3.635   4.466 -35.028  1.00  0.00     0.170 HD
HETATM    6  H   UNL     1      -5.116   2.877 -34.496  1.00  0.00     0.164 HD
ENDROOT
BRANCH   3   7
HETATM    7  C   UNL     1      -7.059   3.230 -33.804  1.00  0.00     0.156 C 
BRANCH   7   8
HETATM    8  C   UNL     1      -7.090   1.948 -32.943  1.00  0.00     0.142 C 
HETATM    9  C   UNL     1      -7.038   2.267 -31.447  1.00  0.00     0.042 C 
BRANCH   8  10
HETATM   10  O   UNL     1      -5.886   1.198 -33.196  1.00  0.00    -0.345 OA
BRANCH  10  11
HETATM   11  C   UNL     1      -5.982  -0.080 -33.659  1.00  0.00     0.069 A 
HETATM   12  C   UNL     1      -7.120  -0.676 -34.200  1.00  0.00     0.038 A 
HETATM   13  C   UNL     1      -7.069  -2.002 -34.645  1.00  0.00     0.026 A 
HETATM   14  C   UNL     1      -5.879  -2.724 -34.558  1.00  0.00     0.034 A 
HETATM   15 CL   UNL     1      -5.822  -4.354 -35.105  1.00  0.00    -0.084 Cl
HETATM   16  C   UNL     1      -4.735  -2.130 -34.037  1.00  0.00     0.026 A 
HETATM   17  C   UNL     1      -4.790  -0.807 -33.593  1.00  0.00     0.038 A 
ENDBRANCH  10  11
ENDBRANCH   8  10
ENDBRANCH   7   8
ENDBRANCH   3   7
BRANCH   1  18
HETATM   18  C   UNL     1      -2.765   5.578 -33.512  1.00  0.00     0.059 A 
HETATM   19  C   UNL     1      -2.066   5.334 -32.320  1.00  0.00    -0.032 A 
HETATM   20  C   UNL     1      -2.236   4.119 -31.453  1.00  0.00     0.050 C 
HETATM   21  C   UNL     1      -1.110   6.279 -31.904  1.00  0.00     0.028 A 
HETATM   22  C   UNL     1      -0.838   7.378 -32.701  1.00  0.00     0.117 A 
HETATM   23  N   UNL     1      -1.442   7.606 -33.880  1.00  0.00    -0.271 NA
HETATM   24  C   UNL     1      -2.382   6.704 -34.250  1.00  0.00     0.146 A 
ENDBRANCH   1  18
TORSDOF 5
ENDMDL
MODEL 6
REMARK VINA RESULT:      -6.8      1.912      2.552
REMARK  5 active torsions:
REMARK  status: ('A' for Active; 'I' for Inactive)
REMARK    1  A    between atoms: C_3  and  N_4 
REMARK       I    between atoms: N_4  and  C_5 
REMARK       I    between atoms: C_5  and  N_6 
REMARK    2  A    between atoms: N_6  and  C_7 
REMARK    3  A    between atoms: C_7  and  C_8 
REMARK    4  A    between atoms: C_8  and  O_9 
REMARK    5  A    between atoms: O_9  and  C_10 
ROOT
HETATM    1  N   UNL     1      -4.903  -0.185 -32.888  1.00  0.00    -0.307 N 
HETATM    2  C   UNL     1      -5.516   0.227 -31.727  1.00  0.00     0.320 C 
HETATM    3  N   UNL     1      -5.268   1.565 -31.492  1.00  0.00    -0.340 N 
HETATM    4  O   UNL     1      -6.181  -0.466 -30.974  1.00  0.00    -0.247 OA
HETATM    5  H   UNL     1      -4.012   0.266 -33.046  1.00  0.00     0.170 HD
HETATM    6  H   UNL     1      -5.095   2.090 -32.337  1.00  0.00     0.164 HD
ENDROOT
BRANCH   3   7
HETATM    7  C   UNL     1      -6.032   2.283 -30.475  1.00  0.00     0.156 C 
BRANCH   7   8
HETATM    8  C   UNL     1      -7.197   3.146 -31.005  1.00  0.00     0.142 C 
HETATM    9  C   UNL     1      -7.252   4.511 -30.317  1.00  0.00     0.042 C 
BRANCH   8  10
HETATM   10  O   UNL     1      -8.438   2.509 -30.646  1.00  0.00    -0.345 OA
BRANCH  10  11
HETATM   11  C   UNL     1      -9.292   2.109 -31.630  1.00  0.00     0.069 A 
HETATM   12  C   UNL     1      -9.346   0.842 -32.209  1.00  0.00     0.038 A 
HETATM   13  C   UNL     1     -10.286   0.571 -33.211  1.00  0.00     0.026 A 
HETATM   14  C   UNL     1     -11.175   1.563 -33.623  1.00  0.00     0.034 A 
HETATM   15 CL   UNL     1     -12.326   1.225 -34.855  1.00  0.00    -0.084 Cl
HETATM   16  C   UNL     1     -11.139   2.824 -33.038  1.00  0.00     0.026 A 
HETATM   17  C   UNL     1     -10.200   3.091 -32.040  1.00  0.00     0.038 A 
ENDBRANCH  10  11
ENDBRANCH   8  10
ENDBRANCH   7   8
ENDBRANCH   3   7
BRANCH   1  18
HETATM   18  C   UNL     1      -5.106  -1.418 -33.555  1.00  0.00     0.059 A 
HETATM   19  C   UNL     1      -6.157  -1.721 -34.436  1.00  0.00    -0.032 A 
HETATM   20  C   UNL     1      -7.225  -0.757 -34.869  1.00  0.00     0.050 C 
HETATM   21  C   UNL     1      -6.212  -3.015 -34.986  1.00  0.00     0.028 A 
HETATM   22  C   UNL     1      -5.209  -3.926 -34.700  1.00  0.00     0.117 A 
HETATM   23  N   UNL     1      -4.156  -3.646 -33.914  1.00  0.00    -0.271 NA
HETATM   24  C   UNL     1      -4.133  -2.407 -33.368  1.00  0.00     0.146 A 
ENDBRANCH   1  18
TORSDOF 5
ENDMDL
MODEL 7
REMARK VINA RESULT:      -6.8      3.164      7.474
REMARK  5 active torsions:
REMARK  status: ('A' for Active; 'I' for Inactive)
REMARK    1  A    between atoms: C_3  and  N_4 
REMARK       I    between atoms: N_4  and  C_5 
REMARK       I    between atoms: C_5  and  N_6 
REMARK    2  A    between atoms: N_6  and  C_7 
REMARK    3  A    between atoms: C_7  and  C_8 
REMARK    4  A    between atoms: C_8  and  O_9 
REMARK    5  A    between atoms: O_9  and  C_10 
ROOT
HETATM    1  N   UNL     1      -3.325   4.298 -31.330  1.00  0.00    -0.307 N 
HETATM    2  C   UNL     1      -4.530   3.873 -31.839  1.00  0.00     0.320 C 
HETATM    3  N   UNL     1      -4.988   2.767 -31.150  1.00  0.00    -0.340 N 
HETATM    4  O   UNL     1      -5.134   4.367 -32.777  1.00  0.00    -0.247 OA
HETATM    5  H   UNL     1      -2.737   3.537 -31.018  1.00  0.00     0.170 HD
HETATM    6  H   UNL     1      -4.654   2.727 -30.198  1.00  0.00     0.164 HD
ENDROOT
BRANCH   3   7
HETATM    7  C   UNL     1      -6.363   2.311 -31.332  1.00  0.00     0.156 C 
BRANCH   7   8
HETATM    8  C   UNL     1      -6.524   0.827 -31.729  1.00  0.00     0.142 C 
HETATM    9  C   UNL     1      -6.339  -0.105 -30.529  1.00  0.00     0.042 C 
BRANCH   8  10
HETATM   10  O   UNL     1      -5.456   0.476 -32.629  1.00  0.00    -0.345 OA
BRANCH  10  11
HETATM   11  C   UNL     1      -5.515  -0.707 -33.303  1.00  0.00     0.069 A 
HETATM   12  C   UNL     1      -4.466  -1.610 -33.475  1.00  0.00     0.038 A 
HETATM   13  C   UNL     1      -4.676  -2.796 -34.189  1.00  0.00     0.026 A 
HETATM   14  C   UNL     1      -5.934  -3.081 -34.718  1.00  0.00     0.034 A 
HETATM   15 CL   UNL     1      -6.185  -4.539 -35.596  1.00  0.00    -0.084 Cl
HETATM   16  C   UNL     1      -6.989  -2.194 -34.535  1.00  0.00     0.026 A 
HETATM   17  C   UNL     1      -6.777  -1.012 -33.824  1.00  0.00     0.038 A 
ENDBRANCH  10  11
ENDBRANCH   8  10
ENDBRANCH   7   8
ENDBRANCH   3   7
BRANCH   1  18
HETATM   18  C   UNL     1      -2.663   5.513 -31.635  1.00  0.00     0.059 A 
HETATM   19  C   UNL     1      -1.938   5.791 -32.805  1.00  0.00    -0.032 A 
HETATM   20  C   UNL     1      -1.787   4.854 -33.970  1.00  0.00     0.050 C 
HETATM   21  C   UNL     1      -1.321   7.050 -32.922  1.00  0.00     0.028 A 
HETATM   22  C   UNL     1      -1.495   7.995 -31.925  1.00  0.00     0.117 A 
HETATM   23  N   UNL     1      -2.237   7.784 -30.825  1.00  0.00    -0.271 NA
HETATM   24  C   UNL     1      -2.798   6.557 -30.712  1.00  0.00     0.146 A 
ENDBRANCH   1  18
TORSDOF 5
ENDMDL
MODEL 8
REMARK VINA RESULT:      -6.6      6.216      8.956
REMARK  5 active torsions:
REMARK  status: ('A' for Active; 'I' for Inactive)
REMARK    1  A    between atoms: C_3  and  N_4 
REMARK       I    between atoms: N_4  and  C_5 
REMARK       I    between atoms: C_5  and  N_6 
REMARK    2  A    between atoms: N_6  and  C_7 
REMARK    3  A    between atoms: C_7  and  C_8 
REMARK    4  A    between atoms: C_8  and  O_9 
REMARK    5  A    between atoms: O_9  and  C_10 
ROOT
HETATM    1  N   UNL     1     -13.230   2.776 -32.036  1.00  0.00    -0.307 N 
HETATM    2  C   UNL     1     -12.407   2.669 -33.133  1.00  0.00     0.320 C 
HETATM    3  N   UNL     1     -11.191   2.119 -32.779  1.00  0.00    -0.340 N 
HETATM    4  O   UNL     1     -12.671   3.015 -34.273  1.00  0.00    -0.247 OA
HETATM    5  H   UNL     1     -12.729   2.999 -31.187  1.00  0.00     0.170 HD
HETATM    6  H   UNL     1     -11.249   1.518 -31.971  1.00  0.00     0.164 HD
ENDROOT
BRANCH   3   7
HETATM    7  C   UNL     1     -10.266   1.662 -33.813  1.00  0.00     0.156 C 
BRANCH   7   8
HETATM    8  C   UNL     1      -9.267   0.569 -33.376  1.00  0.00     0.142 C 
HETATM    9  C   UNL     1      -9.131   0.500 -31.853  1.00  0.00     0.042 C 
BRANCH   8  10
HETATM   10  O   UNL     1      -7.954   0.936 -33.841  1.00  0.00    -0.345 OA
BRANCH  10  11
HETATM   11  C   UNL     1      -6.979  -0.014 -33.904  1.00  0.00     0.069 A 
HETATM   12  C   UNL     1      -5.703   0.078 -33.352  1.00  0.00     0.038 A 
HETATM   13  C   UNL     1      -4.804  -0.987 -33.490  1.00  0.00     0.026 A 
HETATM   14  C   UNL     1      -5.187  -2.143 -34.169  1.00  0.00     0.034 A 
HETATM   15 CL   UNL     1      -4.078  -3.447 -34.337  1.00  0.00    -0.084 Cl
HETATM   16  C   UNL     1      -6.465  -2.249 -34.706  1.00  0.00     0.026 A 
HETATM   17  C   UNL     1      -7.359  -1.186 -34.568  1.00  0.00     0.038 A 
ENDBRANCH  10  11
ENDBRANCH   8  10
ENDBRANCH   7   8
ENDBRANCH   3   7
BRANCH   1  18
HETATM   18  C   UNL     1     -14.611   3.091 -32.047  1.00  0.00     0.059 A 
HETATM   19  C   UNL     1     -15.177   4.351 -31.796  1.00  0.00    -0.032 A 
HETATM   20  C   UNL     1     -14.398   5.607 -31.523  1.00  0.00     0.050 C 
HETATM   21  C   UNL     1     -16.578   4.469 -31.822  1.00  0.00     0.028 A 
HETATM   22  C   UNL     1     -17.353   3.371 -32.155  1.00  0.00     0.117 A 
HETATM   23  N   UNL     1     -16.840   2.168 -32.466  1.00  0.00    -0.271 NA
HETATM   24  C   UNL     1     -15.492   2.063 -32.405  1.00  0.00     0.146 A 
ENDBRANCH   1  18
TORSDOF 5
ENDMDL
MODEL 9
REMARK VINA RESULT:      -6.4      3.885      5.833
REMARK  5 active torsions:
REMARK  status: ('A' for Active; 'I' for Inactive)
REMARK    1  A    between atoms: C_3  and  N_4 
REMARK       I    between atoms: N_4  and  C_5 
REMARK       I    between atoms: C_5  and  N_6 
REMARK    2  A    between atoms: N_6  and  C_7 
REMARK    3  A    between atoms: C_7  and  C_8 
REMARK    4  A    between atoms: C_8  and  O_9 
REMARK    5  A    between atoms: O_9  and  C_10 
ROOT
HETATM    1  N   UNL     1      -5.732   1.400 -32.695  1.00  0.00    -0.307 N 
HETATM    2  C   UNL     1      -5.945   2.571 -33.384  1.00  0.00     0.320 C 
HETATM    3  N   UNL     1      -5.598   3.662 -32.613  1.00  0.00    -0.340 N 
HETATM    4  O   UNL     1      -6.392   2.674 -34.515  1.00  0.00    -0.247 OA
HETATM    5  H   UNL     1      -5.924   1.484 -31.706  1.00  0.00     0.170 HD
HETATM    6  H   UNL     1      -4.888   3.452 -31.926  1.00  0.00     0.164 HD
ENDROOT
BRANCH   3   7
HETATM    7  C   UNL     1      -5.482   4.983 -33.224  1.00  0.00     0.156 C 
BRANCH   7   8
HETATM    8  C   UNL     1      -4.040   5.484 -33.457  1.00  0.00     0.142 C 
HETATM    9  C   UNL     1      -3.588   5.263 -34.902  1.00  0.00     0.042 C 
BRANCH   8  10
HETATM   10  O   UNL     1      -3.143   4.677 -32.669  1.00  0.00    -0.345 OA
BRANCH  10  11
HETATM   11  C   UNL     1      -2.184   5.287 -31.917  1.00  0.00     0.069 A 
HETATM   12  C   UNL     1      -0.808   5.226 -32.129  1.00  0.00     0.038 A 
HETATM   13  C   UNL     1       0.062   5.915 -31.275  1.00  0.00     0.026 A 
HETATM   14  C   UNL     1      -0.447   6.670 -30.219  1.00  0.00     0.034 A 
HETATM   15 CL   UNL     1       0.627   7.512 -29.171  1.00  0.00    -0.084 Cl
HETATM   16  C   UNL     1      -1.819   6.751 -30.012  1.00  0.00     0.026 A 
HETATM   17  C   UNL     1      -2.684   6.062 -30.864  1.00  0.00     0.038 A 
ENDBRANCH  10  11
ENDBRANCH   8  10
ENDBRANCH   7   8
ENDBRANCH   3   7
BRANCH   1  18
HETATM   18  C   UNL     1      -5.769   0.089 -33.230  1.00  0.00     0.059 A 
HETATM   19  C   UNL     1      -6.922  -0.631 -33.582  1.00  0.00    -0.032 A 
HETATM   20  C   UNL     1      -8.327  -0.103 -33.501  1.00  0.00     0.050 C 
HETATM   21  C   UNL     1      -6.766  -1.939 -34.074  1.00  0.00     0.028 A 
HETATM   22  C   UNL     1      -5.494  -2.456 -34.259  1.00  0.00     0.117 A 
HETATM   23  N   UNL     1      -4.370  -1.769 -33.995  1.00  0.00    -0.271 NA
HETATM   24  C   UNL     1      -4.538  -0.523 -33.492  1.00  0.00     0.146 A 
ENDBRANCH   1  18
TORSDOF 5
ENDMDL
MODEL 10
REMARK VINA RESULT:      -6.4      3.973      6.593
REMARK  5 active torsions:
REMARK  status: ('A' for Active; 'I' for Inactive)
REMARK    1  A    between atoms: C_3  and  N_4 
REMARK       I    between atoms: N_4  and  C_5 
REMARK       I    between atoms: C_5  and  N_6 
REMARK    2  A    between atoms: N_6  and  C_7 
REMARK    3  A    between atoms: C_7  and  C_8 
REMARK    4  A    between atoms: C_8  and  O_9 
REMARK    5  A    between atoms: O_9  and  C_10 
ROOT
HETATM    1  N   UNL     1      -9.574   1.404 -33.633  1.00  0.00    -0.307 N 
HETATM    2  C   UNL     1      -9.064   1.626 -32.375  1.00  0.00     0.320 C 
HETATM    3  N   UNL     1      -7.907   0.898 -32.181  1.00  0.00    -0.340 N 
HETATM    4  O   UNL     1      -9.546   2.347 -31.515  1.00  0.00    -0.247 OA
HETATM    5  H   UNL     1      -9.437   0.455 -33.952  1.00  0.00     0.170 HD
HETATM    6  H   UNL     1      -7.412   0.706 -33.039  1.00  0.00     0.164 HD
ENDROOT
BRANCH   3   7
HETATM    7  C   UNL     1      -7.049   1.181 -31.033  1.00  0.00     0.156 C 
BRANCH   7   8
HETATM    8  C   UNL     1      -5.531   1.162 -31.317  1.00  0.00     0.142 C 
HETATM    9  C   UNL     1      -4.942   2.574 -31.352  1.00  0.00     0.042 C 
BRANCH   8  10
HETATM   10  O   UNL     1      -5.321   0.648 -32.647  1.00  0.00    -0.345 OA
BRANCH  10  11
HETATM   11  C   UNL     1      -4.797  -0.600 -32.804  1.00  0.00     0.069 A 
HETATM   12  C   UNL     1      -3.867  -1.214 -31.967  1.00  0.00     0.038 A 
HETATM   13  C   UNL     1      -3.422  -2.511 -32.250  1.00  0.00     0.026 A 
HETATM   14  C   UNL     1      -3.916  -3.194 -33.361  1.00  0.00     0.034 A 
HETATM   15 CL   UNL     1      -3.365  -4.786 -33.705  1.00  0.00    -0.084 Cl
HETATM   16  C   UNL     1      -4.858  -2.594 -34.190  1.00  0.00     0.026 A 
HETATM   17  C   UNL     1      -5.299  -1.300 -33.906  1.00  0.00     0.038 A 
ENDBRANCH  10  11
ENDBRANCH   8  10
ENDBRANCH   7   8
ENDBRANCH   3   7
BRANCH   1  18
HETATM   18  C   UNL     1     -10.617   2.130 -34.259  1.00  0.00     0.059 A 
HETATM   19  C   UNL     1     -11.965   1.746 -34.334  1.00  0.00    -0.032 A 
HETATM   20  C   UNL     1     -12.547   0.511 -33.706  1.00  0.00     0.050 C 
HETATM   21  C   UNL     1     -12.859   2.584 -35.025  1.00  0.00     0.028 A 
HETATM   22  C   UNL     1     -12.407   3.783 -35.552  1.00  0.00     0.117 A 
HETATM   23  N   UNL     1     -11.138   4.211 -35.440  1.00  0.00    -0.271 NA
HETATM   24  C   UNL     1     -10.284   3.378 -34.799  1.00  0.00     0.146 A 
ENDBRANCH   1  18
TORSDOF 5
ENDMDL
