MODEL 1
REMARK VINA RESULT:      -9.2      0.000      0.000
REMARK  3 active torsions:
REMARK  status: ('A' for Active; 'I' for Inactive)
REMARK    1  A    between atoms: O_2  and  C_3 
REMARK    2  A    between atoms: C_9  and  C_10 
REMARK       I    between atoms: C_10  and  N_11 
REMARK    3  A    between atoms: N_11  and  C_12 
ROOT
HETATM    1  C   UNL     1      -5.646  -2.981 -34.566  1.00  0.00     0.068 A 
HETATM    2  C   UNL     1      -4.653  -2.473 -33.725  1.00  0.00     0.044 A 
HETATM    3  C   UNL     1      -4.690  -1.139 -33.296  1.00  0.00    -0.043 A 
HETATM    4  C   UNL     1      -5.761  -0.309 -33.703  1.00  0.00    -0.001 A 
HETATM    5  C   UNL     1      -5.728   1.064 -33.230  1.00  0.00     0.069 A 
HETATM    6  C   UNL     1      -4.643   1.645 -32.614  1.00  0.00     0.007 A 
HETATM    7  C   UNL     1      -5.022   2.982 -32.347  1.00  0.00     0.153 A 
HETATM    8  N   UNL     1      -6.295   3.209 -32.748  1.00  0.00    -0.168 NA
HETATM    9  N   UNL     1      -6.689   2.027 -33.276  1.00  0.00    -0.276 N 
HETATM   10  H   UNL     1      -7.630   1.954 -33.647  1.00  0.00     0.189 HD
HETATM   11  C   UNL     1      -3.377   0.898 -32.389  1.00  0.00     0.048 C 
HETATM   12  C   UNL     1      -3.639  -0.625 -32.319  1.00  0.00     0.044 C 
HETATM   13  C   UNL     1      -6.749  -0.817 -34.547  1.00  0.00     0.017 A 
HETATM   14  C   UNL     1      -6.690  -2.149 -34.978  1.00  0.00     0.037 A 
ENDROOT
BRANCH   7  15
HETATM   15  C   UNL     1      -4.191   4.048 -31.755  1.00  0.00     0.277 C 
HETATM   16  N   UNL     1      -3.001   4.218 -32.440  1.00  0.00    -0.320 N 
HETATM   17  H   UNL     1      -2.805   3.438 -33.063  1.00  0.00     0.169 HD
HETATM   18  O   UNL     1      -4.521   4.621 -30.724  1.00  0.00    -0.266 OA
BRANCH  16  19
HETATM   19  C   UNL     1      -1.947   5.081 -32.074  1.00  0.00     0.057 A 
HETATM   20  C   UNL     1      -1.633   6.308 -32.692  1.00  0.00     0.063 A 
HETATM   21 CL   UNL     1      -2.303   6.815 -34.205  1.00  0.00    -0.082 Cl
HETATM   22  C   UNL     1      -0.610   7.113 -32.178  1.00  0.00     0.068 A 
HETATM   23  C   UNL     1       0.123   6.680 -31.083  1.00  0.00     0.118 A 
HETATM   24  F   UNL     1       1.104   7.453 -30.598  1.00  0.00    -0.206 F 
HETATM   25  C   UNL     1      -0.123   5.445 -30.502  1.00  0.00     0.044 A 
HETATM   26  C   UNL     1      -1.148   4.641 -31.004  1.00  0.00     0.034 A 
ENDBRANCH  16  19
ENDBRANCH   7  15
BRANCH   1  27
HETATM   27  O   UNL     1      -5.480  -4.294 -34.909  1.00  0.00    -0.356 OA
HETATM   28  C   UNL     1      -4.516  -5.037 -34.175  1.00  0.00     0.210 C 
ENDBRANCH   1  27
TORSDOF 3
ENDMDL
MODEL 2
REMARK VINA RESULT:      -8.5      5.644      7.248
REMARK  3 active torsions:
REMARK  status: ('A' for Active; 'I' for Inactive)
REMARK    1  A    between atoms: O_2  and  C_3 
REMARK    2  A    between atoms: C_9  and  C_10 
REMARK       I    between atoms: C_10  and  N_11 
REMARK    3  A    between atoms: N_11  and  C_12 
ROOT
HETATM    1  C   UNL     1      -4.137  -2.967 -33.771  1.00  0.00     0.068 A 
HETATM    2  C   UNL     1      -5.238  -2.548 -34.522  1.00  0.00     0.044 A 
HETATM    3  C   UNL     1      -5.950  -1.395 -34.166  1.00  0.00    -0.043 A 
HETATM    4  C   UNL     1      -5.531  -0.637 -33.048  1.00  0.00    -0.001 A 
HETATM    5  C   UNL     1      -6.323   0.539 -32.731  1.00  0.00     0.069 A 
HETATM    6  C   UNL     1      -7.543   0.827 -33.300  1.00  0.00     0.007 A 
HETATM    7  C   UNL     1      -7.976   2.031 -32.696  1.00  0.00     0.153 A 
HETATM    8  N   UNL     1      -7.051   2.486 -31.818  1.00  0.00    -0.168 NA
HETATM    9  N   UNL     1      -6.067   1.559 -31.867  1.00  0.00    -0.276 N 
HETATM   10  H   UNL     1      -5.249   1.691 -31.282  1.00  0.00     0.189 HD
HETATM   11  C   UNL     1      -8.172  -0.075 -34.302  1.00  0.00     0.048 C 
HETATM   12  C   UNL     1      -7.103  -0.912 -35.040  1.00  0.00     0.044 C 
HETATM   13  C   UNL     1      -4.434  -1.060 -32.296  1.00  0.00     0.017 A 
HETATM   14  C   UNL     1      -3.741  -2.223 -32.657  1.00  0.00     0.037 A 
ENDROOT
BRANCH   7  15
HETATM   15  C   UNL     1      -9.257   2.731 -32.910  1.00  0.00     0.277 C 
HETATM   16  N   UNL     1      -9.406   3.150 -34.220  1.00  0.00    -0.320 N 
HETATM   17  H   UNL     1      -8.527   3.118 -34.732  1.00  0.00     0.169 HD
HETATM   18  O   UNL     1     -10.022   2.967 -31.983  1.00  0.00    -0.266 OA
BRANCH  16  19
HETATM   19  C   UNL     1     -10.465   3.931 -34.728  1.00  0.00     0.057 A 
HETATM   20  C   UNL     1     -11.750   3.459 -35.062  1.00  0.00     0.063 A 
HETATM   21 CL   UNL     1     -12.148   1.780 -35.195  1.00  0.00    -0.082 Cl
HETATM   22  C   UNL     1     -12.741   4.355 -35.479  1.00  0.00     0.068 A 
HETATM   23  C   UNL     1     -12.443   5.704 -35.603  1.00  0.00     0.118 A 
HETATM   24  F   UNL     1     -13.395   6.556 -36.006  1.00  0.00    -0.206 F 
HETATM   25  C   UNL     1     -11.166   6.179 -35.345  1.00  0.00     0.044 A 
HETATM   26  C   UNL     1     -10.175   5.292 -34.921  1.00  0.00     0.034 A 
ENDBRANCH  16  19
ENDBRANCH   7  15
BRANCH   1  27
HETATM   27  O   UNL     1      -3.542  -4.110 -34.229  1.00  0.00    -0.356 OA
HETATM   28  C   UNL     1      -3.749  -5.295 -33.471  1.00  0.00     0.210 C 
ENDBRANCH   1  27
TORSDOF 3
ENDMDL
MODEL 3
REMARK VINA RESULT:      -8.4      5.879      7.859
REMARK  3 active torsions:
REMARK  status: ('A' for Active; 'I' for Inactive)
REMARK    1  A    between atoms: O_2  and  C_3 
REMARK    2  A    between atoms: C_9  and  C_10 
REMARK       I    between atoms: C_10  and  N_11 
REMARK    3  A    between atoms: N_11  and  C_12 
ROOT
HETATM    1  C   UNL     1      -4.547  -2.644 -34.008  1.00  0.00     0.068 A 
HETATM    2  C   UNL     1      -5.656  -2.181 -34.721  1.00  0.00     0.044 A 
HETATM    3  C   UNL     1      -6.313  -1.004 -34.340  1.00  0.00    -0.043 A 
HETATM    4  C   UNL     1      -5.829  -0.265 -33.236  1.00  0.00    -0.001 A 
HETATM    5  C   UNL     1      -6.566   0.938 -32.891  1.00  0.00     0.069 A 
HETATM    6  C   UNL     1      -7.793   1.272 -33.419  1.00  0.00     0.007 A 
HETATM    7  C   UNL     1      -8.161   2.490 -32.799  1.00  0.00     0.153 A 
HETATM    8  N   UNL     1      -7.190   2.908 -31.952  1.00  0.00    -0.168 NA
HETATM    9  N   UNL     1      -6.244   1.946 -32.035  1.00  0.00    -0.276 N 
HETATM   10  H   UNL     1      -5.403   2.047 -31.477  1.00  0.00     0.189 HD
HETATM   11  C   UNL     1      -8.488   0.397 -34.401  1.00  0.00     0.048 C 
HETATM   12  C   UNL     1      -7.475  -0.477 -35.176  1.00  0.00     0.044 C 
HETATM   13  C   UNL     1      -4.724  -0.731 -32.521  1.00  0.00     0.017 A 
HETATM   14  C   UNL     1      -4.087  -1.918 -32.907  1.00  0.00     0.037 A 
ENDROOT
BRANCH   7  15
HETATM   15  C   UNL     1      -9.421   3.238 -32.970  1.00  0.00     0.277 C 
HETATM   16  N   UNL     1     -10.434   2.734 -32.174  1.00  0.00    -0.320 N 
HETATM   17  H   UNL     1     -10.207   1.813 -31.806  1.00  0.00     0.169 HD
HETATM   18  O   UNL     1      -9.529   4.134 -33.798  1.00  0.00    -0.266 OA
BRANCH  16  19
HETATM   19  C   UNL     1     -11.780   3.157 -32.174  1.00  0.00     0.057 A 
HETATM   20  C   UNL     1     -12.790   2.689 -33.038  1.00  0.00     0.063 A 
HETATM   21 CL   UNL     1     -12.478   1.738 -34.450  1.00  0.00    -0.082 Cl
HETATM   22  C   UNL     1     -14.109   3.130 -32.881  1.00  0.00     0.068 A 
HETATM   23  C   UNL     1     -14.412   4.061 -31.898  1.00  0.00     0.118 A 
HETATM   24  F   UNL     1     -15.676   4.482 -31.754  1.00  0.00    -0.206 F 
HETATM   25  C   UNL     1     -13.421   4.586 -31.082  1.00  0.00     0.044 A 
HETATM   26  C   UNL     1     -12.104   4.144 -31.229  1.00  0.00     0.034 A 
ENDBRANCH  16  19
ENDBRANCH   7  15
BRANCH   1  27
HETATM   27  O   UNL     1      -4.010  -3.806 -34.487  1.00  0.00    -0.356 OA
HETATM   28  C   UNL     1      -3.633  -4.786 -33.529  1.00  0.00     0.210 C 
ENDBRANCH   1  27
TORSDOF 3
ENDMDL
MODEL 4
REMARK VINA RESULT:      -8.3      4.244     10.122
REMARK  3 active torsions:
REMARK  status: ('A' for Active; 'I' for Inactive)
REMARK    1  A    between atoms: O_2  and  C_3 
REMARK    2  A    between atoms: C_9  and  C_10 
REMARK       I    between atoms: C_10  and  N_11 
REMARK    3  A    between atoms: N_11  and  C_12 
ROOT
HETATM    1  C   UNL     1       0.434  10.020 -27.027  1.00  0.00     0.068 A 
HETATM    2  C   UNL     1      -0.803   9.715 -27.600  1.00  0.00     0.044 A 
HETATM    3  C   UNL     1      -0.969   8.558 -28.373  1.00  0.00    -0.043 A 
HETATM    4  C   UNL     1       0.125   7.680 -28.552  1.00  0.00    -0.001 A 
HETATM    5  C   UNL     1      -0.116   6.507 -29.373  1.00  0.00     0.069 A 
HETATM    6  C   UNL     1      -1.242   6.319 -30.143  1.00  0.00     0.007 A 
HETATM    7  C   UNL     1      -1.060   5.077 -30.796  1.00  0.00     0.153 A 
HETATM    8  N   UNL     1       0.109   4.505 -30.421  1.00  0.00    -0.168 NA
HETATM    9  N   UNL     1       0.651   5.398 -29.561  1.00  0.00    -0.276 N 
HETATM   10  H   UNL     1       1.547   5.180 -29.140  1.00  0.00     0.189 HD
HETATM   11  C   UNL     1      -2.325   7.337 -30.208  1.00  0.00     0.048 C 
HETATM   12  C   UNL     1      -2.344   8.205 -28.929  1.00  0.00     0.044 C 
HETATM   13  C   UNL     1       1.361   7.988 -27.982  1.00  0.00     0.017 A 
HETATM   14  C   UNL     1       1.514   9.156 -27.223  1.00  0.00     0.037 A 
ENDROOT
BRANCH   7  15
HETATM   15  C   UNL     1      -1.953   4.446 -31.787  1.00  0.00     0.277 C 
HETATM   16  N   UNL     1      -2.880   3.609 -31.191  1.00  0.00    -0.320 N 
HETATM   17  H   UNL     1      -2.634   3.393 -30.228  1.00  0.00     0.169 HD
HETATM   18  O   UNL     1      -1.791   4.607 -32.990  1.00  0.00    -0.266 OA
BRANCH  16  19
HETATM   19  C   UNL     1      -3.806   2.784 -31.862  1.00  0.00     0.057 A 
HETATM   20  C   UNL     1      -4.989   3.217 -32.494  1.00  0.00     0.063 A 
HETATM   21 CL   UNL     1      -5.660   4.799 -32.288  1.00  0.00    -0.082 Cl
HETATM   22  C   UNL     1      -5.784   2.306 -33.199  1.00  0.00     0.068 A 
HETATM   23  C   UNL     1      -5.426   0.966 -33.238  1.00  0.00     0.118 A 
HETATM   24  F   UNL     1      -6.193   0.098 -33.911  1.00  0.00    -0.206 F 
HETATM   25  C   UNL     1      -4.304   0.507 -32.565  1.00  0.00     0.044 A 
HETATM   26  C   UNL     1      -3.502   1.412 -31.867  1.00  0.00     0.034 A 
ENDBRANCH  16  19
ENDBRANCH   7  15
BRANCH   1  27
HETATM   27  O   UNL     1       0.453  11.181 -26.305  1.00  0.00    -0.356 OA
HETATM   28  C   UNL     1       1.387  11.264 -25.237  1.00  0.00     0.210 C 
ENDBRANCH   1  27
TORSDOF 3
ENDMDL
MODEL 5
REMARK VINA RESULT:      -8.3      5.929      8.910
REMARK  3 active torsions:
REMARK  status: ('A' for Active; 'I' for Inactive)
REMARK    1  A    between atoms: O_2  and  C_3 
REMARK    2  A    between atoms: C_9  and  C_10 
REMARK       I    between atoms: C_10  and  N_11 
REMARK    3  A    between atoms: N_11  and  C_12 
ROOT
HETATM    1  C   UNL     1     -12.467   5.460 -35.475  1.00  0.00     0.068 A 
HETATM    2  C   UNL     1     -12.516   4.127 -35.062  1.00  0.00     0.044 A 
HETATM    3  C   UNL     1     -11.370   3.486 -34.572  1.00  0.00    -0.043 A 
HETATM    4  C   UNL     1     -10.158   4.208 -34.474  1.00  0.00    -0.001 A 
HETATM    5  C   UNL     1      -9.010   3.477 -33.968  1.00  0.00     0.069 A 
HETATM    6  C   UNL     1      -8.977   2.112 -33.793  1.00  0.00     0.007 A 
HETATM    7  C   UNL     1      -7.678   1.815 -33.317  1.00  0.00     0.153 A 
HETATM    8  N   UNL     1      -6.950   2.949 -33.172  1.00  0.00    -0.168 NA
HETATM    9  N   UNL     1      -7.789   3.931 -33.574  1.00  0.00    -0.276 N 
HETATM   10  H   UNL     1      -7.456   4.889 -33.550  1.00  0.00     0.189 HD
HETATM   11  C   UNL     1     -10.142   1.251 -34.130  1.00  0.00     0.048 C 
HETATM   12  C   UNL     1     -11.462   2.053 -34.057  1.00  0.00     0.044 C 
HETATM   13  C   UNL     1     -10.110   5.539 -34.892  1.00  0.00     0.017 A 
HETATM   14  C   UNL     1     -11.261   6.161 -35.392  1.00  0.00     0.037 A 
ENDROOT
BRANCH   7  15
HETATM   15  C   UNL     1      -7.109   0.484 -33.035  1.00  0.00     0.277 C 
HETATM   16  N   UNL     1      -6.503  -0.068 -34.150  1.00  0.00    -0.320 N 
HETATM   17  H   UNL     1      -6.762   0.419 -35.004  1.00  0.00     0.169 HD
HETATM   18  O   UNL     1      -7.262  -0.063 -31.949  1.00  0.00    -0.266 OA
BRANCH  16  19
HETATM   19  C   UNL     1      -5.955  -1.364 -34.241  1.00  0.00     0.057 A 
HETATM   20  C   UNL     1      -4.673  -1.750 -33.799  1.00  0.00     0.063 A 
HETATM   21 CL   UNL     1      -3.438  -0.625 -33.347  1.00  0.00    -0.082 Cl
HETATM   22  C   UNL     1      -4.278  -3.091 -33.873  1.00  0.00     0.068 A 
HETATM   23  C   UNL     1      -5.136  -4.033 -34.421  1.00  0.00     0.118 A 
HETATM   24  F   UNL     1      -4.752  -5.314 -34.492  1.00  0.00    -0.206 F 
HETATM   25  C   UNL     1      -6.375  -3.663 -34.925  1.00  0.00     0.044 A 
HETATM   26  C   UNL     1      -6.778  -2.329 -34.847  1.00  0.00     0.034 A 
ENDBRANCH  16  19
ENDBRANCH   7  15
BRANCH   1  27
HETATM   27  O   UNL     1     -13.655   5.955 -35.936  1.00  0.00    -0.356 OA
HETATM   28  C   UNL     1     -13.603   7.142 -36.715  1.00  0.00     0.210 C 
ENDBRANCH   1  27
TORSDOF 3
ENDMDL
MODEL 6
REMARK VINA RESULT:      -8.3      3.651      4.697
REMARK  3 active torsions:
REMARK  status: ('A' for Active; 'I' for Inactive)
REMARK    1  A    between atoms: O_2  and  C_3 
REMARK    2  A    between atoms: C_9  and  C_10 
REMARK       I    between atoms: C_10  and  N_11 
REMARK    3  A    between atoms: N_11  and  C_12 
ROOT
HETATM    1  C   UNL     1      -4.801  -4.003 -34.234  1.00  0.00     0.068 A 
HETATM    2  C   UNL     1      -5.520  -2.833 -34.493  1.00  0.00     0.044 A 
HETATM    3  C   UNL     1      -5.216  -1.642 -33.821  1.00  0.00    -0.043 A 
HETATM    4  C   UNL     1      -4.152  -1.622 -32.890  1.00  0.00    -0.001 A 
HETATM    5  C   UNL     1      -3.900  -0.356 -32.223  1.00  0.00     0.069 A 
HETATM    6  C   UNL     1      -4.745   0.729 -32.278  1.00  0.00     0.007 A 
HETATM    7  C   UNL     1      -4.143   1.728 -31.477  1.00  0.00     0.153 A 
HETATM    8  N   UNL     1      -2.962   1.293 -30.976  1.00  0.00    -0.168 NA
HETATM    9  N   UNL     1      -2.849   0.031 -31.449  1.00  0.00    -0.276 N 
HETATM   10  H   UNL     1      -2.025  -0.505 -31.202  1.00  0.00     0.189 HD
HETATM   11  C   UNL     1      -6.026   0.687 -33.033  1.00  0.00     0.048 C 
HETATM   12  C   UNL     1      -5.963  -0.359 -34.171  1.00  0.00     0.044 C 
HETATM   13  C   UNL     1      -3.437  -2.793 -32.629  1.00  0.00     0.017 A 
HETATM   14  C   UNL     1      -3.764  -3.979 -33.298  1.00  0.00     0.037 A 
ENDROOT
BRANCH   7  15
HETATM   15  C   UNL     1      -4.682   3.062 -31.153  1.00  0.00     0.277 C 
HETATM   16  N   UNL     1      -5.615   3.011 -30.133  1.00  0.00    -0.320 N 
HETATM   17  H   UNL     1      -5.936   2.061 -29.958  1.00  0.00     0.169 HD
HETATM   18  O   UNL     1      -4.373   4.054 -31.802  1.00  0.00    -0.266 OA
BRANCH  16  19
HETATM   19  C   UNL     1      -6.386   4.091 -29.656  1.00  0.00     0.057 A 
HETATM   20  C   UNL     1      -7.718   4.376 -30.017  1.00  0.00     0.063 A 
HETATM   21 CL   UNL     1      -8.532   3.620 -31.344  1.00  0.00    -0.082 Cl
HETATM   22  C   UNL     1      -8.401   5.435 -29.407  1.00  0.00     0.068 A 
HETATM   23  C   UNL     1      -7.749   6.230 -28.476  1.00  0.00     0.118 A 
HETATM   24  F   UNL     1      -8.407   7.244 -27.899  1.00  0.00    -0.206 F 
HETATM   25  C   UNL     1      -6.417   6.010 -28.157  1.00  0.00     0.044 A 
HETATM   26  C   UNL     1      -5.733   4.950 -28.756  1.00  0.00     0.034 A 
ENDBRANCH  16  19
ENDBRANCH   7  15
BRANCH   1  27
HETATM   27  O   UNL     1      -5.210  -5.090 -34.955  1.00  0.00    -0.356 OA
HETATM   28  C   UNL     1      -6.430  -4.966 -35.676  1.00  0.00     0.210 C 
ENDBRANCH   1  27
TORSDOF 3
ENDMDL
MODEL 7
REMARK VINA RESULT:      -8.1      4.297      8.919
REMARK  3 active torsions:
REMARK  status: ('A' for Active; 'I' for Inactive)
REMARK    1  A    between atoms: O_2  and  C_3 
REMARK    2  A    between atoms: C_9  and  C_10 
REMARK       I    between atoms: C_10  and  N_11 
REMARK    3  A    between atoms: N_11  and  C_12 
ROOT
HETATM    1  C   UNL     1      -5.087   7.906 -31.178  1.00  0.00     0.068 A 
HETATM    2  C   UNL     1      -6.087   6.932 -31.144  1.00  0.00     0.044 A 
HETATM    3  C   UNL     1      -5.763   5.569 -31.187  1.00  0.00    -0.043 A 
HETATM    4  C   UNL     1      -4.405   5.180 -31.241  1.00  0.00    -0.001 A 
HETATM    5  C   UNL     1      -4.143   3.752 -31.295  1.00  0.00     0.069 A 
HETATM    6  C   UNL     1      -5.110   2.796 -31.512  1.00  0.00     0.007 A 
HETATM    7  C   UNL     1      -4.431   1.555 -31.517  1.00  0.00     0.153 A 
HETATM    8  N   UNL     1      -3.109   1.732 -31.281  1.00  0.00    -0.168 NA
HETATM    9  N   UNL     1      -2.974   3.071 -31.151  1.00  0.00    -0.276 N 
HETATM   10  H   UNL     1      -2.051   3.448 -30.964  1.00  0.00     0.189 HD
HETATM   11  C   UNL     1      -6.536   3.159 -31.728  1.00  0.00     0.048 C 
HETATM   12  C   UNL     1      -6.865   4.521 -31.073  1.00  0.00     0.044 C 
HETATM   13  C   UNL     1      -3.406   6.154 -31.280  1.00  0.00     0.017 A 
HETATM   14  C   UNL     1      -3.748   7.513 -31.251  1.00  0.00     0.037 A 
ENDROOT
BRANCH   7  15
HETATM   15  C   UNL     1      -5.004   0.221 -31.776  1.00  0.00     0.277 C 
HETATM   16  N   UNL     1      -4.742  -0.215 -33.063  1.00  0.00    -0.320 N 
HETATM   17  H   UNL     1      -4.421   0.541 -33.663  1.00  0.00     0.169 HD
HETATM   18  O   UNL     1      -5.699  -0.352 -30.946  1.00  0.00    -0.266 OA
BRANCH  16  19
HETATM   19  C   UNL     1      -5.231  -1.398 -33.656  1.00  0.00     0.057 A 
HETATM   20  C   UNL     1      -6.556  -1.618 -34.085  1.00  0.00     0.063 A 
HETATM   21 CL   UNL     1      -7.879  -0.580 -33.674  1.00  0.00    -0.082 Cl
HETATM   22  C   UNL     1      -6.895  -2.809 -34.736  1.00  0.00     0.068 A 
HETATM   23  C   UNL     1      -5.933  -3.792 -34.921  1.00  0.00     0.118 A 
HETATM   24  F   UNL     1      -6.265  -4.932 -35.541  1.00  0.00    -0.206 F 
HETATM   25  C   UNL     1      -4.641  -3.624 -34.445  1.00  0.00     0.044 A 
HETATM   26  C   UNL     1      -4.294  -2.434 -33.802  1.00  0.00     0.034 A 
ENDBRANCH  16  19
ENDBRANCH   7  15
BRANCH   1  27
HETATM   27  O   UNL     1      -5.547   9.192 -31.136  1.00  0.00    -0.356 OA
HETATM   28  C   UNL     1      -4.625  10.196 -30.731  1.00  0.00     0.210 C 
ENDBRANCH   1  27
TORSDOF 3
ENDMDL
MODEL 8
REMARK VINA RESULT:      -8.1      4.195      5.269
REMARK  3 active torsions:
REMARK  status: ('A' for Active; 'I' for Inactive)
REMARK    1  A    between atoms: O_2  and  C_3 
REMARK    2  A    between atoms: C_9  and  C_10 
REMARK       I    between atoms: C_10  and  N_11 
REMARK    3  A    between atoms: N_11  and  C_12 
ROOT
HETATM    1  C   UNL     1     -12.805   1.306 -34.504  1.00  0.00     0.068 A 
HETATM    2  C   UNL     1     -12.033   2.438 -34.777  1.00  0.00     0.044 A 
HETATM    3  C   UNL     1     -10.741   2.568 -34.251  1.00  0.00    -0.043 A 
HETATM    4  C   UNL     1     -10.207   1.527 -33.456  1.00  0.00    -0.001 A 
HETATM    5  C   UNL     1      -8.867   1.734 -32.936  1.00  0.00     0.069 A 
HETATM    6  C   UNL     1      -8.195   2.935 -32.985  1.00  0.00     0.007 A 
HETATM    7  C   UNL     1      -6.951   2.707 -32.350  1.00  0.00     0.153 A 
HETATM    8  N   UNL     1      -6.844   1.415 -31.956  1.00  0.00    -0.168 NA
HETATM    9  N   UNL     1      -8.020   0.860 -32.327  1.00  0.00    -0.276 N 
HETATM   10  H   UNL     1      -8.172  -0.124 -32.133  1.00  0.00     0.189 HD
HETATM   11  C   UNL     1      -8.809   4.152 -33.579  1.00  0.00     0.048 C 
HETATM   12  C   UNL     1      -9.887   3.776 -34.621  1.00  0.00     0.044 C 
HETATM   13  C   UNL     1     -10.981   0.399 -33.181  1.00  0.00     0.017 A 
HETATM   14  C   UNL     1     -12.277   0.291 -33.702  1.00  0.00     0.037 A 
ENDROOT
BRANCH   7  15
HETATM   15  C   UNL     1      -5.887   3.693 -32.082  1.00  0.00     0.277 C 
HETATM   16  N   UNL     1      -4.776   3.487 -32.880  1.00  0.00    -0.320 N 
HETATM   17  H   UNL     1      -4.791   2.572 -33.325  1.00  0.00     0.169 HD
HETATM   18  O   UNL     1      -5.990   4.520 -31.185  1.00  0.00    -0.266 OA
BRANCH  16  19
HETATM   19  C   UNL     1      -3.555   4.189 -32.803  1.00  0.00     0.057 A 
HETATM   20  C   UNL     1      -3.062   5.093 -33.765  1.00  0.00     0.063 A 
HETATM   21 CL   UNL     1      -3.731   5.260 -35.353  1.00  0.00    -0.082 Cl
HETATM   22  C   UNL     1      -1.872   5.791 -33.530  1.00  0.00     0.068 A 
HETATM   23  C   UNL     1      -1.156   5.559 -32.364  1.00  0.00     0.118 A 
HETATM   24  F   UNL     1      -0.016   6.227 -32.146  1.00  0.00    -0.206 F 
HETATM   25  C   UNL     1      -1.587   4.623 -31.436  1.00  0.00     0.044 A 
HETATM   26  C   UNL     1      -2.779   3.930 -31.661  1.00  0.00     0.034 A 
ENDBRANCH  16  19
ENDBRANCH   7  15
BRANCH   1  27
HETATM   27  O   UNL     1     -14.047   1.316 -35.075  1.00  0.00    -0.356 OA
HETATM   28  C   UNL     1     -15.102   0.709 -34.341  1.00  0.00     0.210 C 
ENDBRANCH   1  27
TORSDOF 3
ENDMDL
MODEL 9
REMARK VINA RESULT:      -8.1      1.877      2.127
REMARK  3 active torsions:
REMARK  status: ('A' for Active; 'I' for Inactive)
REMARK    1  A    between atoms: O_2  and  C_3 
REMARK    2  A    between atoms: C_9  and  C_10 
REMARK       I    between atoms: C_10  and  N_11 
REMARK    3  A    between atoms: N_11  and  C_12 
ROOT
HETATM    1  C   UNL     1      -5.514  -2.940 -34.613  1.00  0.00     0.068 A 
HETATM    2  C   UNL     1      -4.569  -2.278 -33.825  1.00  0.00     0.044 A 
HETATM    3  C   UNL     1      -4.841  -1.011 -33.292  1.00  0.00    -0.043 A 
HETATM    4  C   UNL     1      -6.097  -0.410 -33.536  1.00  0.00    -0.001 A 
HETATM    5  C   UNL     1      -6.305   0.908 -32.962  1.00  0.00     0.069 A 
HETATM    6  C   UNL     1      -5.308   1.673 -32.400  1.00  0.00     0.007 A 
HETATM    7  C   UNL     1      -5.929   2.879 -31.997  1.00  0.00     0.153 A 
HETATM    8  N   UNL     1      -7.256   2.848 -32.265  1.00  0.00    -0.168 NA
HETATM    9  N   UNL     1      -7.446   1.641 -32.847  1.00  0.00    -0.276 N 
HETATM   10  H   UNL     1      -8.384   1.388 -33.138  1.00  0.00     0.189 HD
HETATM   11  C   UNL     1      -3.897   1.206 -32.348  1.00  0.00     0.048 C 
HETATM   12  C   UNL     1      -3.825  -0.338 -32.374  1.00  0.00     0.044 C 
HETATM   13  C   UNL     1      -7.039  -1.070 -34.327  1.00  0.00     0.017 A 
HETATM   14  C   UNL     1      -6.746  -2.331 -34.865  1.00  0.00     0.037 A 
ENDROOT
BRANCH   7  15
HETATM   15  C   UNL     1      -5.284   4.063 -31.399  1.00  0.00     0.277 C 
HETATM   16  N   UNL     1      -4.997   5.030 -32.346  1.00  0.00    -0.320 N 
HETATM   17  H   UNL     1      -5.057   4.665 -33.293  1.00  0.00     0.169 HD
HETATM   18  O   UNL     1      -4.978   4.098 -30.213  1.00  0.00    -0.266 OA
BRANCH  16  19
HETATM   19  C   UNL     1      -4.294   6.232 -32.119  1.00  0.00     0.057 A 
HETATM   20  C   UNL     1      -4.813   7.386 -31.498  1.00  0.00     0.063 A 
HETATM   21 CL   UNL     1      -6.498   7.628 -31.184  1.00  0.00    -0.082 Cl
HETATM   22  C   UNL     1      -3.985   8.488 -31.258  1.00  0.00     0.068 A 
HETATM   23  C   UNL     1      -2.661   8.458 -31.671  1.00  0.00     0.118 A 
HETATM   24  F   UNL     1      -1.873   9.518 -31.442  1.00  0.00    -0.206 F 
HETATM   25  C   UNL     1      -2.148   7.360 -32.345  1.00  0.00     0.044 A 
HETATM   26  C   UNL     1      -2.967   6.254 -32.580  1.00  0.00     0.034 A 
ENDBRANCH  16  19
ENDBRANCH   7  15
BRANCH   1  27
HETATM   27  O   UNL     1      -5.113  -4.164 -35.071  1.00  0.00    -0.356 OA
HETATM   28  C   UNL     1      -4.575  -5.068 -34.115  1.00  0.00     0.210 C 
ENDBRANCH   1  27
TORSDOF 3
ENDMDL
MODEL 10
REMARK VINA RESULT:      -8.1      3.962      9.489
REMARK  3 active torsions:
REMARK  status: ('A' for Active; 'I' for Inactive)
REMARK    1  A    between atoms: O_2  and  C_3 
REMARK    2  A    between atoms: C_9  and  C_10 
REMARK       I    between atoms: C_10  and  N_11 
REMARK    3  A    between atoms: N_11  and  C_12 
ROOT
HETATM    1  C   UNL     1       0.617   9.085 -27.440  1.00  0.00     0.068 A 
HETATM    2  C   UNL     1       1.066   8.026 -28.233  1.00  0.00     0.044 A 
HETATM    3  C   UNL     1       0.178   7.321 -29.057  1.00  0.00    -0.043 A 
HETATM    4  C   UNL     1      -1.182   7.705 -29.101  1.00  0.00    -0.001 A 
HETATM    5  C   UNL     1      -2.046   6.923 -29.967  1.00  0.00     0.069 A 
HETATM    6  C   UNL     1      -1.679   5.734 -30.557  1.00  0.00     0.007 A 
HETATM    7  C   UNL     1      -2.813   5.298 -31.284  1.00  0.00     0.153 A 
HETATM    8  N   UNL     1      -3.824   6.193 -31.176  1.00  0.00    -0.168 NA
HETATM    9  N   UNL     1      -3.323   7.160 -30.374  1.00  0.00    -0.276 N 
HETATM   10  H   UNL     1      -3.913   7.954 -30.149  1.00  0.00     0.189 HD
HETATM   11  C   UNL     1      -0.337   5.132 -30.338  1.00  0.00     0.048 C 
HETATM   12  C   UNL     1       0.702   6.217 -29.970  1.00  0.00     0.044 C 
HETATM   13  C   UNL     1      -1.630   8.760 -28.305  1.00  0.00     0.017 A 
HETATM   14  C   UNL     1      -0.732   9.446 -27.476  1.00  0.00     0.037 A 
ENDROOT
BRANCH   7  15
HETATM   15  C   UNL     1      -2.963   4.042 -32.042  1.00  0.00     0.277 C 
HETATM   16  N   UNL     1      -3.673   3.090 -31.332  1.00  0.00    -0.320 N 
HETATM   17  H   UNL     1      -3.753   3.331 -30.347  1.00  0.00     0.169 HD
HETATM   18  O   UNL     1      -2.425   3.881 -33.131  1.00  0.00    -0.266 OA
BRANCH  16  19
HETATM   19  C   UNL     1      -3.903   1.757 -31.731  1.00  0.00     0.057 A 
HETATM   20  C   UNL     1      -4.862   1.332 -32.673  1.00  0.00     0.063 A 
HETATM   21 CL   UNL     1      -6.128   2.347 -33.274  1.00  0.00    -0.082 Cl
HETATM   22  C   UNL     1      -4.934  -0.016 -33.043  1.00  0.00     0.068 A 
HETATM   23  C   UNL     1      -4.087  -0.940 -32.449  1.00  0.00     0.118 A 
HETATM   24  F   UNL     1      -4.164  -2.230 -32.805  1.00  0.00    -0.206 F 
HETATM   25  C   UNL     1      -3.184  -0.555 -31.470  1.00  0.00     0.044 A 
HETATM   26  C   UNL     1      -3.101   0.789 -31.102  1.00  0.00     0.034 A 
ENDBRANCH  16  19
ENDBRANCH   7  15
BRANCH   1  27
HETATM   27  O   UNL     1       1.589   9.677 -26.683  1.00  0.00    -0.356 OA
HETATM   28  C   UNL     1       2.208   8.877 -25.684  1.00  0.00     0.210 C 
ENDBRANCH   1  27
TORSDOF 3
ENDMDL
