MODEL 1
REMARK VINA RESULT:      -8.9      0.000      0.000
REMARK  2 active torsions:
REMARK  status: ('A' for Active; 'I' for Inactive)
REMARK    1  A    between atoms: C_5  and  C_6 
REMARK    2  A    between atoms: C_9  and  C_10 
ROOT
HETATM    1  C   UNL     1      -5.748   3.666 -32.341  1.00  0.00     0.220 C 
HETATM    2  N   UNL     1      -6.255   2.479 -33.008  1.00  0.00    -0.126 NA
HETATM    3  N   UNL     1      -5.981   1.367 -32.155  1.00  0.00    -0.126 NA
HETATM    4  C   UNL     1      -7.018   0.375 -32.394  1.00  0.00     0.220 C 
HETATM    5  N   UNL     1      -8.005   1.094 -33.157  1.00  0.00    -0.324 N 
HETATM    6  C   UNL     1      -7.575   2.381 -33.434  1.00  0.00     0.315 C 
HETATM    7  O   UNL     1      -8.276   3.263 -33.899  1.00  0.00    -0.252 OA
HETATM    8  C   UNL     1      -5.694   1.854 -30.885  1.00  0.00     0.315 C 
HETATM    9  O   UNL     1      -5.725   1.244 -29.831  1.00  0.00    -0.252 OA
HETATM   10  N   UNL     1      -5.442   3.210 -31.010  1.00  0.00    -0.324 N 
HETATM   11  H   UNL     1      -8.955   0.799 -33.313  1.00  0.00     0.165 HD
HETATM   12  H   UNL     1      -5.293   3.803 -30.209  1.00  0.00     0.165 HD
ENDROOT
BRANCH   1  13
HETATM   13  C   UNL     1      -4.505   4.246 -32.989  1.00  0.00    -0.020 A 
HETATM   14  C   UNL     1      -4.544   4.896 -34.234  1.00  0.00     0.011 A 
HETATM   15  C   UNL     1      -3.374   5.362 -34.841  1.00  0.00     0.007 A 
HETATM   16  C   UNL     1      -2.135   5.178 -34.223  1.00  0.00    -0.062 A 
HETATM   17  C   UNL     1      -0.872   5.651 -34.877  1.00  0.00     0.048 C 
HETATM   18  C   UNL     1      -2.085   4.539 -32.979  1.00  0.00     0.007 A 
HETATM   19  C   UNL     1      -3.256   4.076 -32.369  1.00  0.00     0.011 A 
ENDBRANCH   1  13
BRANCH   4  20
HETATM   20  C   UNL     1      -6.541  -0.833 -33.180  1.00  0.00    -0.020 A 
HETATM   21  C   UNL     1      -7.415  -1.638 -33.929  1.00  0.00     0.011 A 
HETATM   22  C   UNL     1      -6.959  -2.790 -34.575  1.00  0.00     0.007 A 
HETATM   23  C   UNL     1      -5.618  -3.170 -34.484  1.00  0.00    -0.062 A 
HETATM   24  C   UNL     1      -5.128  -4.425 -35.142  1.00  0.00     0.048 C 
HETATM   25  C   UNL     1      -4.735  -2.367 -33.754  1.00  0.00     0.007 A 
HETATM   26  C   UNL     1      -5.190  -1.213 -33.110  1.00  0.00     0.011 A 
ENDBRANCH   4  20
TORSDOF 2
ENDMDL
MODEL 2
REMARK VINA RESULT:      -8.9      0.064      6.559
REMARK  2 active torsions:
REMARK  status: ('A' for Active; 'I' for Inactive)
REMARK    1  A    between atoms: C_5  and  C_6 
REMARK    2  A    between atoms: C_9  and  C_10 
ROOT
HETATM    1  C   UNL     1      -7.047   0.400 -32.448  1.00  0.00     0.220 C 
HETATM    2  N   UNL     1      -6.016   1.399 -32.220  1.00  0.00    -0.126 NA
HETATM    3  N   UNL     1      -6.312   2.511 -33.067  1.00  0.00    -0.126 NA
HETATM    4  C   UNL     1      -5.807   3.703 -32.405  1.00  0.00     0.220 C 
HETATM    5  N   UNL     1      -5.512   3.251 -31.071  1.00  0.00    -0.324 N 
HETATM    6  C   UNL     1      -5.733   1.889 -30.950  1.00  0.00     0.315 C 
HETATM    7  O   UNL     1      -5.743   1.278 -29.896  1.00  0.00    -0.252 OA
HETATM    8  C   UNL     1      -7.631   2.395 -33.490  1.00  0.00     0.315 C 
HETATM    9  O   UNL     1      -8.346   3.272 -33.943  1.00  0.00    -0.252 OA
HETATM   10  N   UNL     1      -8.038   1.098 -33.224  1.00  0.00    -0.324 N 
HETATM   11  H   UNL     1      -5.355   3.843 -30.272  1.00  0.00     0.165 HD
HETATM   12  H   UNL     1      -8.989   0.795 -33.365  1.00  0.00     0.165 HD
ENDROOT
BRANCH   1  13
HETATM   13  C   UNL     1      -6.557  -0.819 -33.206  1.00  0.00    -0.020 A 
HETATM   14  C   UNL     1      -7.425  -1.636 -33.950  1.00  0.00     0.011 A 
HETATM   15  C   UNL     1      -6.962  -2.792 -34.583  1.00  0.00     0.007 A 
HETATM   16  C   UNL     1      -5.620  -3.166 -34.478  1.00  0.00    -0.062 A 
HETATM   17  C   UNL     1      -5.117  -4.418 -35.133  1.00  0.00     0.048 C 
HETATM   18  C   UNL     1      -4.745  -2.356 -33.746  1.00  0.00     0.007 A 
HETATM   19  C   UNL     1      -5.208  -1.197 -33.115  1.00  0.00     0.011 A 
ENDBRANCH   1  13
BRANCH   4  20
HETATM   20  C   UNL     1      -4.554   4.275 -33.044  1.00  0.00    -0.020 A 
HETATM   21  C   UNL     1      -4.571   4.923 -34.289  1.00  0.00     0.011 A 
HETATM   22  C   UNL     1      -3.389   5.366 -34.889  1.00  0.00     0.007 A 
HETATM   23  C   UNL     1      -2.158   5.169 -34.258  1.00  0.00    -0.062 A 
HETATM   24  C   UNL     1      -0.881   5.606 -34.910  1.00  0.00     0.048 C 
HETATM   25  C   UNL     1      -2.131   4.540 -33.008  1.00  0.00     0.007 A 
HETATM   26  C   UNL     1      -3.313   4.099 -32.409  1.00  0.00     0.011 A 
ENDBRANCH   4  20
TORSDOF 2
ENDMDL
MODEL 3
REMARK VINA RESULT:      -8.5      1.692      6.721
REMARK  2 active torsions:
REMARK  status: ('A' for Active; 'I' for Inactive)
REMARK    1  A    between atoms: C_5  and  C_6 
REMARK    2  A    between atoms: C_9  and  C_10 
ROOT
HETATM    1  C   UNL     1      -6.779   1.832 -32.714  1.00  0.00     0.220 C 
HETATM    2  N   UNL     1      -5.845   2.612 -31.920  1.00  0.00    -0.126 NA
HETATM    3  N   UNL     1      -5.513   3.775 -32.681  1.00  0.00    -0.126 NA
HETATM    4  C   UNL     1      -5.211   4.837 -31.735  1.00  0.00     0.220 C 
HETATM    5  N   UNL     1      -5.675   4.313 -30.478  1.00  0.00    -0.324 N 
HETATM    6  C   UNL     1      -6.139   3.017 -30.623  1.00  0.00     0.315 C 
HETATM    7  O   UNL     1      -6.755   2.400 -29.772  1.00  0.00    -0.252 OA
HETATM    8  C   UNL     1      -6.461   3.920 -33.687  1.00  0.00     0.315 C 
HETATM    9  O   UNL     1      -6.718   4.924 -34.327  1.00  0.00    -0.252 OA
HETATM   10  N   UNL     1      -7.145   2.720 -33.787  1.00  0.00    -0.324 N 
HETATM   11  H   UNL     1      -5.833   4.850 -29.641  1.00  0.00     0.165 HD
HETATM   12  H   UNL     1      -7.942   2.606 -34.392  1.00  0.00     0.165 HD
ENDROOT
BRANCH   1  13
HETATM   13  C   UNL     1      -6.183   0.556 -33.277  1.00  0.00    -0.020 A 
HETATM   14  C   UNL     1      -6.863  -0.236 -34.218  1.00  0.00     0.011 A 
HETATM   15  C   UNL     1      -6.322  -1.442 -34.670  1.00  0.00     0.007 A 
HETATM   16  C   UNL     1      -5.094  -1.894 -34.182  1.00  0.00    -0.062 A 
HETATM   17  C   UNL     1      -4.517  -3.199 -34.641  1.00  0.00     0.048 C 
HETATM   18  C   UNL     1      -4.404  -1.110 -33.250  1.00  0.00     0.007 A 
HETATM   19  C   UNL     1      -4.943   0.099 -32.800  1.00  0.00     0.011 A 
ENDBRANCH   1  13
BRANCH   4  20
HETATM   20  C   UNL     1      -3.733   5.171 -31.640  1.00  0.00    -0.020 A 
HETATM   21  C   UNL     1      -2.765   4.546 -32.443  1.00  0.00     0.011 A 
HETATM   22  C   UNL     1      -1.404   4.815 -32.275  1.00  0.00     0.007 A 
HETATM   23  C   UNL     1      -0.976   5.715 -31.295  1.00  0.00    -0.062 A 
HETATM   24  C   UNL     1       0.484   5.981 -31.082  1.00  0.00     0.048 C 
HETATM   25  C   UNL     1      -1.932   6.356 -30.501  1.00  0.00     0.007 A 
HETATM   26  C   UNL     1      -3.293   6.088 -30.671  1.00  0.00     0.011 A 
ENDBRANCH   4  20
TORSDOF 2
ENDMDL
MODEL 4
REMARK VINA RESULT:      -8.5      1.672      2.066
REMARK  2 active torsions:
REMARK  status: ('A' for Active; 'I' for Inactive)
REMARK    1  A    between atoms: C_5  and  C_6 
REMARK    2  A    between atoms: C_9  and  C_10 
ROOT
HETATM    1  C   UNL     1      -5.263   4.803 -31.716  1.00  0.00     0.220 C 
HETATM    2  N   UNL     1      -5.566   3.746 -32.665  1.00  0.00    -0.126 NA
HETATM    3  N   UNL     1      -5.932   2.592 -31.908  1.00  0.00    -0.126 NA
HETATM    4  C   UNL     1      -6.867   1.824 -32.716  1.00  0.00     0.220 C 
HETATM    5  N   UNL     1      -7.220   2.730 -33.777  1.00  0.00    -0.324 N 
HETATM    6  C   UNL     1      -6.505   3.912 -33.678  1.00  0.00     0.315 C 
HETATM    7  O   UNL     1      -6.732   4.919 -34.326  1.00  0.00    -0.252 OA
HETATM    8  C   UNL     1      -6.228   2.999 -30.612  1.00  0.00     0.315 C 
HETATM    9  O   UNL     1      -6.871   2.395 -29.771  1.00  0.00    -0.252 OA
HETATM   10  N   UNL     1      -5.727   4.281 -30.458  1.00  0.00    -0.324 N 
HETATM   11  H   UNL     1      -8.007   2.629 -34.398  1.00  0.00     0.165 HD
HETATM   12  H   UNL     1      -5.894   4.825 -29.626  1.00  0.00     0.165 HD
ENDROOT
BRANCH   1  13
HETATM   13  C   UNL     1      -3.786   5.137 -31.626  1.00  0.00    -0.020 A 
HETATM   14  C   UNL     1      -2.822   4.488 -32.416  1.00  0.00     0.011 A 
HETATM   15  C   UNL     1      -1.461   4.765 -32.266  1.00  0.00     0.007 A 
HETATM   16  C   UNL     1      -1.029   5.690 -31.313  1.00  0.00    -0.062 A 
HETATM   17  C   UNL     1       0.431   5.976 -31.125  1.00  0.00     0.048 C 
HETATM   18  C   UNL     1      -1.980   6.348 -30.525  1.00  0.00     0.007 A 
HETATM   19  C   UNL     1      -3.343   6.073 -30.678  1.00  0.00     0.011 A 
ENDBRANCH   1  13
BRANCH   4  20
HETATM   20  C   UNL     1      -6.273   0.555 -33.300  1.00  0.00    -0.020 A 
HETATM   21  C   UNL     1      -6.993  -0.285 -34.165  1.00  0.00     0.011 A 
HETATM   22  C   UNL     1      -6.449  -1.489 -34.621  1.00  0.00     0.007 A 
HETATM   23  C   UNL     1      -5.170  -1.884 -34.220  1.00  0.00    -0.062 A 
HETATM   24  C   UNL     1      -4.593  -3.192 -34.673  1.00  0.00     0.048 C 
HETATM   25  C   UNL     1      -4.437  -1.047 -33.372  1.00  0.00     0.007 A 
HETATM   26  C   UNL     1      -4.981   0.157 -32.918  1.00  0.00     0.011 A 
ENDBRANCH   4  20
TORSDOF 2
ENDMDL
MODEL 5
REMARK VINA RESULT:      -8.4      2.797      5.592
REMARK  2 active torsions:
REMARK  status: ('A' for Active; 'I' for Inactive)
REMARK    1  A    between atoms: C_5  and  C_6 
REMARK    2  A    between atoms: C_9  and  C_10 
ROOT
HETATM    1  C   UNL     1      -5.029   0.924 -32.530  1.00  0.00     0.220 C 
HETATM    2  N   UNL     1      -6.316   1.317 -33.079  1.00  0.00    -0.126 NA
HETATM    3  N   UNL     1      -7.234   1.393 -31.988  1.00  0.00    -0.126 NA
HETATM    4  C   UNL     1      -8.228   2.397 -32.332  1.00  0.00     0.220 C 
HETATM    5  N   UNL     1      -7.660   3.059 -33.476  1.00  0.00    -0.324 N 
HETATM    6  C   UNL     1      -6.468   2.462 -33.852  1.00  0.00     0.315 C 
HETATM    7  O   UNL     1      -5.685   2.923 -34.664  1.00  0.00    -0.252 OA
HETATM    8  C   UNL     1      -6.502   1.444 -30.807  1.00  0.00     0.315 C 
HETATM    9  O   UNL     1      -6.880   1.827 -29.714  1.00  0.00    -0.252 OA
HETATM   10  N   UNL     1      -5.207   1.053 -31.107  1.00  0.00    -0.324 N 
HETATM   11  H   UNL     1      -7.957   3.946 -33.849  1.00  0.00     0.165 HD
HETATM   12  H   UNL     1      -4.465   1.091 -30.427  1.00  0.00     0.165 HD
ENDROOT
BRANCH   1  13
HETATM   13  C   UNL     1      -4.625  -0.496 -32.875  1.00  0.00    -0.020 A 
HETATM   14  C   UNL     1      -5.201  -1.198 -33.947  1.00  0.00     0.011 A 
HETATM   15  C   UNL     1      -4.861  -2.529 -34.203  1.00  0.00     0.007 A 
HETATM   16  C   UNL     1      -3.945  -3.195 -33.385  1.00  0.00    -0.062 A 
HETATM   17  C   UNL     1      -3.592  -4.630 -33.636  1.00  0.00     0.048 C 
HETATM   18  C   UNL     1      -3.359  -2.503 -32.320  1.00  0.00     0.007 A 
HETATM   19  C   UNL     1      -3.696  -1.170 -32.065  1.00  0.00     0.011 A 
ENDBRANCH   1  13
BRANCH   4  20
HETATM   20  C   UNL     1      -9.584   1.818 -32.694  1.00  0.00    -0.020 A 
HETATM   21  C   UNL     1      -9.832   0.436 -32.718  1.00  0.00     0.011 A 
HETATM   22  C   UNL     1     -11.066  -0.070 -33.134  1.00  0.00     0.007 A 
HETATM   23  C   UNL     1     -12.085   0.796 -33.541  1.00  0.00    -0.062 A 
HETATM   24  C   UNL     1     -13.399   0.262 -34.026  1.00  0.00     0.048 C 
HETATM   25  C   UNL     1     -11.855   2.176 -33.506  1.00  0.00     0.007 A 
HETATM   26  C   UNL     1     -10.621   2.681 -33.087  1.00  0.00     0.011 A 
ENDBRANCH   4  20
TORSDOF 2
ENDMDL
MODEL 6
REMARK VINA RESULT:      -8.2      2.805      5.834
REMARK  2 active torsions:
REMARK  status: ('A' for Active; 'I' for Inactive)
REMARK    1  A    between atoms: C_5  and  C_6 
REMARK    2  A    between atoms: C_9  and  C_10 
ROOT
HETATM    1  C   UNL     1      -8.719   3.377 -32.521  1.00  0.00     0.220 C 
HETATM    2  N   UNL     1      -7.665   2.581 -31.915  1.00  0.00    -0.126 NA
HETATM    3  N   UNL     1      -6.581   2.539 -32.844  1.00  0.00    -0.126 NA
HETATM    4  C   UNL     1      -5.356   2.410 -32.070  1.00  0.00     0.220 C 
HETATM    5  N   UNL     1      -5.776   2.684 -30.721  1.00  0.00    -0.324 N 
HETATM    6  C   UNL     1      -7.146   2.879 -30.660  1.00  0.00     0.315 C 
HETATM    7  O   UNL     1      -7.745   3.305 -29.688  1.00  0.00    -0.252 OA
HETATM    8  C   UNL     1      -6.769   3.552 -33.777  1.00  0.00     0.315 C 
HETATM    9  O   UNL     1      -5.937   4.046 -34.516  1.00  0.00    -0.252 OA
HETATM   10  N   UNL     1      -8.083   3.978 -33.664  1.00  0.00    -0.324 N 
HETATM   11  H   UNL     1      -5.167   2.903 -29.949  1.00  0.00     0.165 HD
HETATM   12  H   UNL     1      -8.436   4.768 -34.180  1.00  0.00     0.165 HD
ENDROOT
BRANCH   1  13
HETATM   13  C   UNL     1      -9.920   2.564 -32.964  1.00  0.00    -0.020 A 
HETATM   14  C   UNL     1     -11.149   3.161 -33.291  1.00  0.00     0.011 A 
HETATM   15  C   UNL     1     -12.260   2.385 -33.630  1.00  0.00     0.007 A 
HETATM   16  C   UNL     1     -12.173   0.991 -33.639  1.00  0.00    -0.062 A 
HETATM   17  C   UNL     1     -13.366   0.148 -33.977  1.00  0.00     0.048 C 
HETATM   18  C   UNL     1     -10.952   0.385 -33.323  1.00  0.00     0.007 A 
HETATM   19  C   UNL     1      -9.839   1.162 -32.987  1.00  0.00     0.011 A 
ENDBRANCH   1  13
BRANCH   4  20
HETATM   20  C   UNL     1      -4.728   1.029 -32.142  1.00  0.00    -0.020 A 
HETATM   21  C   UNL     1      -5.264  -0.002 -32.929  1.00  0.00     0.011 A 
HETATM   22  C   UNL     1      -4.711  -1.286 -32.912  1.00  0.00     0.007 A 
HETATM   23  C   UNL     1      -3.608  -1.570 -32.103  1.00  0.00    -0.062 A 
HETATM   24  C   UNL     1      -3.032  -2.953 -32.048  1.00  0.00     0.048 C 
HETATM   25  C   UNL     1      -3.055  -0.546 -31.327  1.00  0.00     0.007 A 
HETATM   26  C   UNL     1      -3.608   0.738 -31.347  1.00  0.00     0.011 A 
ENDBRANCH   4  20
TORSDOF 2
ENDMDL
MODEL 7
REMARK VINA RESULT:      -8.1      4.494      6.236
REMARK  2 active torsions:
REMARK  status: ('A' for Active; 'I' for Inactive)
REMARK    1  A    between atoms: C_5  and  C_6 
REMARK    2  A    between atoms: C_9  and  C_10 
ROOT
HETATM    1  C   UNL     1      -2.358   8.255 -31.511  1.00  0.00     0.220 C 
HETATM    2  N   UNL     1      -2.533   7.001 -32.223  1.00  0.00    -0.126 NA
HETATM    3  N   UNL     1      -3.852   6.533 -31.937  1.00  0.00    -0.126 NA
HETATM    4  C   UNL     1      -4.296   5.765 -33.089  1.00  0.00     0.220 C 
HETATM    5  N   UNL     1      -3.323   6.080 -34.102  1.00  0.00    -0.324 N 
HETATM    6  C   UNL     1      -2.327   6.898 -33.595  1.00  0.00     0.315 C 
HETATM    7  O   UNL     1      -1.485   7.466 -34.267  1.00  0.00    -0.252 OA
HETATM    8  C   UNL     1      -4.586   7.595 -31.422  1.00  0.00     0.315 C 
HETATM    9  O   UNL     1      -5.798   7.698 -31.357  1.00  0.00    -0.252 OA
HETATM   10  N   UNL     1      -3.685   8.583 -31.060  1.00  0.00    -0.324 N 
HETATM   11  H   UNL     1      -3.427   5.909 -35.089  1.00  0.00     0.165 HD
HETATM   12  H   UNL     1      -3.985   9.490 -30.738  1.00  0.00     0.165 HD
ENDROOT
BRANCH   1  13
HETATM   13  C   UNL     1      -1.417   8.158 -30.326  1.00  0.00    -0.020 A 
HETATM   14  C   UNL     1      -1.564   8.964 -29.185  1.00  0.00     0.011 A 
HETATM   15  C   UNL     1      -0.643   8.904 -28.136  1.00  0.00     0.007 A 
HETATM   16  C   UNL     1       0.455   8.044 -28.207  1.00  0.00    -0.062 A 
HETATM   17  C   UNL     1       1.463   7.990 -27.098  1.00  0.00     0.048 C 
HETATM   18  C   UNL     1       0.608   7.231 -29.335  1.00  0.00     0.007 A 
HETATM   19  C   UNL     1      -0.315   7.288 -30.384  1.00  0.00     0.011 A 
ENDBRANCH   1  13
BRANCH   4  20
HETATM   20  C   UNL     1      -4.324   4.265 -32.852  1.00  0.00    -0.020 A 
HETATM   21  C   UNL     1      -5.391   3.456 -33.272  1.00  0.00     0.011 A 
HETATM   22  C   UNL     1      -5.426   2.092 -32.968  1.00  0.00     0.007 A 
HETATM   23  C   UNL     1      -4.394   1.505 -32.231  1.00  0.00    -0.062 A 
HETATM   24  C   UNL     1      -4.442   0.051 -31.867  1.00  0.00     0.048 C 
HETATM   25  C   UNL     1      -3.318   2.298 -31.821  1.00  0.00     0.007 A 
HETATM   26  C   UNL     1      -3.282   3.661 -32.128  1.00  0.00     0.011 A 
ENDBRANCH   4  20
TORSDOF 2
ENDMDL
MODEL 8
REMARK VINA RESULT:      -8.1      4.273      8.466
REMARK  2 active torsions:
REMARK  status: ('A' for Active; 'I' for Inactive)
REMARK    1  A    between atoms: C_5  and  C_6 
REMARK    2  A    between atoms: C_9  and  C_10 
ROOT
HETATM    1  C   UNL     1      -4.410   5.394 -33.164  1.00  0.00     0.220 C 
HETATM    2  N   UNL     1      -3.947   6.223 -32.063  1.00  0.00    -0.126 NA
HETATM    3  N   UNL     1      -2.644   6.694 -32.410  1.00  0.00    -0.126 NA
HETATM    4  C   UNL     1      -2.468   7.985 -31.764  1.00  0.00     0.220 C 
HETATM    5  N   UNL     1      -3.794   8.327 -31.321  1.00  0.00    -0.324 N 
HETATM    6  C   UNL     1      -4.686   7.303 -31.594  1.00  0.00     0.315 C 
HETATM    7  O   UNL     1      -5.897   7.392 -31.497  1.00  0.00    -0.252 OA
HETATM    8  C   UNL     1      -2.467   6.515 -33.777  1.00  0.00     0.315 C 
HETATM    9  O   UNL     1      -1.653   7.063 -34.499  1.00  0.00    -0.252 OA
HETATM   10  N   UNL     1      -3.455   5.646 -34.211  1.00  0.00    -0.324 N 
HETATM   11  H   UNL     1      -4.099   9.242 -31.032  1.00  0.00     0.165 HD
HETATM   12  H   UNL     1      -3.586   5.429 -35.186  1.00  0.00     0.165 HD
ENDROOT
BRANCH   1  13
HETATM   13  C   UNL     1      -4.445   3.913 -32.840  1.00  0.00    -0.020 A 
HETATM   14  C   UNL     1      -3.386   3.265 -32.182  1.00  0.00     0.011 A 
HETATM   15  C   UNL     1      -3.413   1.886 -31.956  1.00  0.00     0.007 A 
HETATM   16  C   UNL     1      -4.496   1.119 -32.392  1.00  0.00    -0.062 A 
HETATM   17  C   UNL     1      -4.524  -0.364 -32.177  1.00  0.00     0.048 C 
HETATM   18  C   UNL     1      -5.560   1.755 -33.042  1.00  0.00     0.007 A 
HETATM   19  C   UNL     1      -5.535   3.135 -33.265  1.00  0.00     0.011 A 
ENDBRANCH   1  13
BRANCH   4  20
HETATM   20  C   UNL     1      -1.522   7.952 -30.577  1.00  0.00    -0.020 A 
HETATM   21  C   UNL     1      -1.679   8.795 -29.464  1.00  0.00     0.011 A 
HETATM   22  C   UNL     1      -0.746   8.798 -28.424  1.00  0.00     0.007 A 
HETATM   23  C   UNL     1       0.371   7.961 -28.472  1.00  0.00    -0.062 A 
HETATM   24  C   UNL     1       1.398   7.985 -27.380  1.00  0.00     0.048 C 
HETATM   25  C   UNL     1       0.529   7.105 -29.568  1.00  0.00     0.007 A 
HETATM   26  C   UNL     1      -0.405   7.101 -30.607  1.00  0.00     0.011 A 
ENDBRANCH   4  20
TORSDOF 2
ENDMDL
MODEL 9
REMARK VINA RESULT:      -8.1      2.582      6.393
REMARK  2 active torsions:
REMARK  status: ('A' for Active; 'I' for Inactive)
REMARK    1  A    between atoms: C_5  and  C_6 
REMARK    2  A    between atoms: C_9  and  C_10 
ROOT
HETATM    1  C   UNL     1      -5.416   0.998 -32.999  1.00  0.00     0.220 C 
HETATM    2  N   UNL     1      -6.527   1.928 -33.106  1.00  0.00    -0.126 NA
HETATM    3  N   UNL     1      -7.101   2.051 -31.804  1.00  0.00    -0.126 NA
HETATM    4  C   UNL     1      -7.668   3.387 -31.708  1.00  0.00     0.220 C 
HETATM    5  N   UNL     1      -7.128   4.067 -32.856  1.00  0.00    -0.324 N 
HETATM    6  C   UNL     1      -6.370   3.206 -33.631  1.00  0.00     0.315 C 
HETATM    7  O   UNL     1      -5.650   3.550 -34.552  1.00  0.00    -0.252 OA
HETATM    8  C   UNL     1      -6.186   1.562 -30.879  1.00  0.00     0.315 C 
HETATM    9  O   UNL     1      -6.154   1.778 -29.680  1.00  0.00    -0.252 OA
HETATM   10  N   UNL     1      -5.239   0.835 -31.580  1.00  0.00    -0.324 N 
HETATM   11  H   UNL     1      -7.122   5.065 -32.998  1.00  0.00     0.165 HD
HETATM   12  H   UNL     1      -4.420   0.451 -31.134  1.00  0.00     0.165 HD
ENDROOT
BRANCH   1  13
HETATM   13  C   UNL     1      -5.681  -0.348 -33.646  1.00  0.00    -0.020 A 
HETATM   14  C   UNL     1      -6.935  -0.687 -34.182  1.00  0.00     0.011 A 
HETATM   15  C   UNL     1      -7.174  -1.957 -34.711  1.00  0.00     0.007 A 
HETATM   16  C   UNL     1      -6.167  -2.925 -34.708  1.00  0.00    -0.062 A 
HETATM   17  C   UNL     1      -6.419  -4.300 -35.251  1.00  0.00     0.048 C 
HETATM   18  C   UNL     1      -4.912  -2.597 -34.185  1.00  0.00     0.007 A 
HETATM   19  C   UNL     1      -4.671  -1.324 -33.657  1.00  0.00     0.011 A 
ENDBRANCH   1  13
BRANCH   4  20
HETATM   20  C   UNL     1      -9.185   3.414 -31.761  1.00  0.00    -0.020 A 
HETATM   21  C   UNL     1      -9.912   2.877 -32.835  1.00  0.00     0.011 A 
HETATM   22  C   UNL     1     -11.304   2.990 -32.894  1.00  0.00     0.007 A 
HETATM   23  C   UNL     1     -12.004   3.647 -31.878  1.00  0.00    -0.062 A 
HETATM   24  C   UNL     1     -13.493   3.806 -31.951  1.00  0.00     0.048 C 
HETATM   25  C   UNL     1     -11.291   4.171 -30.795  1.00  0.00     0.007 A 
HETATM   26  C   UNL     1      -9.900   4.056 -30.736  1.00  0.00     0.011 A 
ENDBRANCH   4  20
TORSDOF 2
ENDMDL
MODEL 10
REMARK VINA RESULT:      -8.1      2.294      4.052
REMARK  2 active torsions:
REMARK  status: ('A' for Active; 'I' for Inactive)
REMARK    1  A    between atoms: C_5  and  C_6 
REMARK    2  A    between atoms: C_9  and  C_10 
ROOT
HETATM    1  C   UNL     1      -4.558   1.835 -31.888  1.00  0.00     0.220 C 
HETATM    2  N   UNL     1      -6.010   1.787 -31.832  1.00  0.00    -0.126 NA
HETATM    3  N   UNL     1      -6.440   0.876 -32.845  1.00  0.00    -0.126 NA
HETATM    4  C   UNL     1      -7.686   0.282 -32.388  1.00  0.00     0.220 C 
HETATM    5  N   UNL     1      -7.754   0.660 -31.002  1.00  0.00    -0.324 N 
HETATM    6  C   UNL     1      -6.692   1.482 -30.660  1.00  0.00     0.315 C 
HETATM    7  O   UNL     1      -6.397   1.800 -29.522  1.00  0.00    -0.252 OA
HETATM    8  C   UNL     1      -5.347   0.110 -33.233  1.00  0.00     0.315 C 
HETATM    9  O   UNL     1      -5.358  -0.960 -33.815  1.00  0.00    -0.252 OA
HETATM   10  N   UNL     1      -4.210   0.743 -32.758  1.00  0.00    -0.324 N 
HETATM   11  H   UNL     1      -8.358   0.248 -30.309  1.00  0.00     0.165 HD
HETATM   12  H   UNL     1      -3.294   0.331 -32.840  1.00  0.00     0.165 HD
ENDROOT
BRANCH   1  13
HETATM   13  C   UNL     1      -4.012   3.137 -32.443  1.00  0.00    -0.020 A 
HETATM   14  C   UNL     1      -4.746   3.937 -33.335  1.00  0.00     0.011 A 
HETATM   15  C   UNL     1      -4.193   5.096 -33.886  1.00  0.00     0.007 A 
HETATM   16  C   UNL     1      -2.888   5.477 -33.568  1.00  0.00    -0.062 A 
HETATM   17  C   UNL     1      -2.276   6.705 -34.172  1.00  0.00     0.048 C 
HETATM   18  C   UNL     1      -2.150   4.692 -32.675  1.00  0.00     0.007 A 
HETATM   19  C   UNL     1      -2.704   3.534 -32.120  1.00  0.00     0.011 A 
ENDBRANCH   1  13
BRANCH   4  20
HETATM   20  C   UNL     1      -8.914   0.792 -33.121  1.00  0.00    -0.020 A 
HETATM   21  C   UNL     1      -8.892   1.954 -33.910  1.00  0.00     0.011 A 
HETATM   22  C   UNL     1     -10.058   2.443 -34.506  1.00  0.00     0.007 A 
HETATM   23  C   UNL     1     -11.276   1.785 -34.324  1.00  0.00    -0.062 A 
HETATM   24  C   UNL     1     -12.539   2.324 -34.927  1.00  0.00     0.048 C 
HETATM   25  C   UNL     1     -11.307   0.617 -33.554  1.00  0.00     0.007 A 
HETATM   26  C   UNL     1     -10.141   0.127 -32.960  1.00  0.00     0.011 A 
ENDBRANCH   4  20
TORSDOF 2
ENDMDL
