MODEL 1
REMARK VINA RESULT:     -10.8      0.000      0.000
REMARK  4 active torsions:
REMARK  status: ('A' for Active; 'I' for Inactive)
REMARK    1  A    between atoms: C_2  and  N_3 
REMARK    2  A    between atoms: C_7  and  N_8 
REMARK       I    between atoms: N_8  and  C_9 
REMARK    3  A    between atoms: C_9  and  C_10 
REMARK    4  A    between atoms: C_10  and  N_11 
ROOT
HETATM    1  N   UNL     1      -9.357   1.400 -34.459  1.00  0.00    -0.326 N 
HETATM    2  C   UNL     1     -10.584   1.105 -33.900  1.00  0.00     0.242 C 
HETATM    3  O   UNL     1     -10.805   0.228 -33.067  1.00  0.00    -0.271 OA
HETATM    4  H   UNL     1      -9.378   2.149 -35.150  1.00  0.00     0.169 HD
ENDROOT
BRANCH   2   5
HETATM    5  C   UNL     1     -11.757   1.875 -34.512  1.00  0.00     0.257 C 
BRANCH   5   6
HETATM    6  N   UNL     1     -12.773   2.406 -33.602  1.00  0.00    -0.224 N 
HETATM    7  N   UNL     1     -12.527   3.685 -33.050  1.00  0.00    -0.180 NA
HETATM    8  C   UNL     1     -13.494   4.328 -32.455  1.00  0.00     0.153 A 
HETATM    9  C   UNL     1     -14.809   3.766 -32.362  1.00  0.00     0.028 A 
HETATM   10  C   UNL     1     -15.026   2.511 -32.869  1.00  0.00     0.116 A 
HETATM   11  C   UNL     1     -16.047   4.261 -31.872  1.00  0.00     0.005 A 
HETATM   12  N   UNL     1     -16.341   2.194 -32.688  1.00  0.00    -0.350 N 
HETATM   13  C   UNL     1     -14.015   1.737 -33.526  1.00  0.00     0.291 A 
HETATM   14  H   UNL     1     -16.774   1.330 -32.989  1.00  0.00     0.166 HD
HETATM   15  C   UNL     1     -16.996   3.259 -32.105  1.00  0.00     0.044 A 
HETATM   16  C   UNL     1     -18.349   3.415 -31.785  1.00  0.00     0.031 A 
HETATM   17  C   UNL     1     -18.745   4.629 -31.214  1.00  0.00     0.009 A 
HETATM   18  C   UNL     1     -17.824   5.649 -30.951  1.00  0.00    -0.061 A 
HETATM   19  C   UNL     1     -18.287   6.957 -30.376  1.00  0.00     0.048 C 
HETATM   20  C   UNL     1     -16.472   5.471 -31.286  1.00  0.00     0.021 A 
HETATM   21  O   UNL     1     -14.244   0.633 -34.004  1.00  0.00    -0.264 OA
ENDBRANCH   5   6
ENDBRANCH   2   5
BRANCH   1  22
HETATM   22  C   UNL     1      -8.122   0.758 -34.227  1.00  0.00     0.035 A 
HETATM   23  C   UNL     1      -7.906  -0.605 -34.456  1.00  0.00     0.044 A 
HETATM   24  C   UNL     1      -6.631  -1.176 -34.233  1.00  0.00     0.005 A 
HETATM   25  C   UNL     1      -5.598  -0.366 -33.766  1.00  0.00     0.046 A 
HETATM   26  C   UNL     1      -6.109  -2.497 -34.395  1.00  0.00     0.003 A 
HETATM   27  N   UNL     1      -4.484  -1.173 -33.631  1.00  0.00    -0.346 N 
HETATM   28  C   UNL     1      -5.795   1.003 -33.518  1.00  0.00     0.033 A 
HETATM   29  C   UNL     1      -4.767  -2.472 -34.012  1.00  0.00     0.046 A 
HETATM   30  C   UNL     1      -3.965  -3.626 -34.050  1.00  0.00     0.030 A 
HETATM   31  C   UNL     1      -4.543  -4.819 -34.495  1.00  0.00     0.002 A 
HETATM   32  C   UNL     1      -5.876  -4.865 -34.887  1.00  0.00     0.001 A 
HETATM   33  C   UNL     1      -6.668  -3.715 -34.840  1.00  0.00     0.014 A 
HETATM   34  C   UNL     1      -7.065   1.544 -33.764  1.00  0.00     0.032 A 
BRANCH  27  35
HETATM   35  C   UNL     1      -3.183  -0.721 -33.162  1.00  0.00     0.125 C 
HETATM   36  C   UNL     1      -3.081  -0.742 -31.647  1.00  0.00     0.027 C 
ENDBRANCH  27  35
ENDBRANCH   1  22
TORSDOF 4
ENDMDL
MODEL 2
REMARK VINA RESULT:     -10.7      5.941      9.430
REMARK  4 active torsions:
REMARK  status: ('A' for Active; 'I' for Inactive)
REMARK    1  A    between atoms: C_2  and  N_3 
REMARK    2  A    between atoms: C_7  and  N_8 
REMARK       I    between atoms: N_8  and  C_9 
REMARK    3  A    between atoms: C_9  and  C_10 
REMARK    4  A    between atoms: C_10  and  N_11 
ROOT
HETATM    1  N   UNL     1      -6.495   2.587 -33.280  1.00  0.00    -0.326 N 
HETATM    2  C   UNL     1      -7.522   3.050 -32.482  1.00  0.00     0.242 C 
HETATM    3  O   UNL     1      -8.386   2.359 -31.945  1.00  0.00    -0.271 OA
HETATM    4  H   UNL     1      -5.891   3.318 -33.653  1.00  0.00     0.169 HD
ENDROOT
BRANCH   2   5
HETATM    5  C   UNL     1      -7.627   4.576 -32.410  1.00  0.00     0.257 C 
BRANCH   5   6
HETATM    6  N   UNL     1      -6.420   5.326 -32.061  1.00  0.00    -0.224 N 
HETATM    7  N   UNL     1      -6.203   5.580 -30.686  1.00  0.00    -0.180 NA
HETATM    8  C   UNL     1      -5.035   5.999 -30.284  1.00  0.00     0.153 A 
HETATM    9  C   UNL     1      -3.958   6.195 -31.211  1.00  0.00     0.028 A 
HETATM   10  C   UNL     1      -4.192   5.980 -32.544  1.00  0.00     0.116 A 
HETATM   11  C   UNL     1      -2.590   6.540 -31.055  1.00  0.00     0.005 A 
HETATM   12  N   UNL     1      -3.031   6.206 -33.227  1.00  0.00    -0.350 N 
HETATM   13  C   UNL     1      -5.448   5.530 -33.066  1.00  0.00     0.291 A 
HETATM   14  H   UNL     1      -2.919   6.100 -34.228  1.00  0.00     0.166 HD
HETATM   15  C   UNL     1      -2.027   6.523 -32.336  1.00  0.00     0.044 A 
HETATM   16  C   UNL     1      -0.670   6.778 -32.566  1.00  0.00     0.031 A 
HETATM   17  C   UNL     1       0.135   7.054 -31.456  1.00  0.00     0.009 A 
HETATM   18  C   UNL     1      -0.393   7.097 -30.161  1.00  0.00    -0.061 A 
HETATM   19  C   UNL     1       0.505   7.354 -28.985  1.00  0.00     0.048 C 
HETATM   20  C   UNL     1      -1.758   6.832 -29.955  1.00  0.00     0.021 A 
HETATM   21  O   UNL     1      -5.620   5.309 -34.259  1.00  0.00    -0.264 OA
ENDBRANCH   5   6
ENDBRANCH   2   5
BRANCH   1  22
HETATM   22  C   UNL     1      -6.233   1.257 -33.670  1.00  0.00     0.035 A 
HETATM   23  C   UNL     1      -5.309   0.431 -33.023  1.00  0.00     0.044 A 
HETATM   24  C   UNL     1      -5.120  -0.906 -33.447  1.00  0.00     0.005 A 
HETATM   25  C   UNL     1      -5.857  -1.382 -34.530  1.00  0.00     0.046 A 
HETATM   26  C   UNL     1      -4.289  -1.972 -32.983  1.00  0.00     0.003 A 
HETATM   27  N   UNL     1      -5.473  -2.695 -34.730  1.00  0.00    -0.346 N 
HETATM   28  C   UNL     1      -6.782  -0.567 -35.203  1.00  0.00     0.033 A 
HETATM   29  C   UNL     1      -4.524  -3.079 -33.799  1.00  0.00     0.046 A 
HETATM   30  C   UNL     1      -3.851  -4.297 -33.606  1.00  0.00     0.030 A 
HETATM   31  C   UNL     1      -2.931  -4.386 -32.556  1.00  0.00     0.002 A 
HETATM   32  C   UNL     1      -2.686  -3.298 -31.727  1.00  0.00     0.001 A 
HETATM   33  C   UNL     1      -3.355  -2.087 -31.930  1.00  0.00     0.014 A 
HETATM   34  C   UNL     1      -6.959   0.748 -34.749  1.00  0.00     0.032 A 
BRANCH  27  35
HETATM   35  C   UNL     1      -5.998  -3.565 -35.771  1.00  0.00     0.125 C 
HETATM   36  C   UNL     1      -6.980  -4.586 -35.223  1.00  0.00     0.027 C 
ENDBRANCH  27  35
ENDBRANCH   1  22
TORSDOF 4
ENDMDL
MODEL 3
REMARK VINA RESULT:     -10.6      7.725     12.501
REMARK  4 active torsions:
REMARK  status: ('A' for Active; 'I' for Inactive)
REMARK    1  A    between atoms: C_2  and  N_3 
REMARK    2  A    between atoms: C_7  and  N_8 
REMARK       I    between atoms: N_8  and  C_9 
REMARK    3  A    between atoms: C_9  and  C_10 
REMARK    4  A    between atoms: C_10  and  N_11 
ROOT
HETATM    1  N   UNL     1      -2.634   3.649 -31.453  1.00  0.00    -0.326 N 
HETATM    2  C   UNL     1      -2.188   4.733 -32.181  1.00  0.00     0.242 C 
HETATM    3  O   UNL     1      -2.784   5.269 -33.114  1.00  0.00    -0.271 OA
HETATM    4  H   UNL     1      -1.987   3.333 -30.731  1.00  0.00     0.169 HD
ENDROOT
BRANCH   2   5
HETATM    5  C   UNL     1      -0.761   5.175 -31.847  1.00  0.00     0.257 C 
BRANCH   5   6
HETATM    6  N   UNL     1      -0.518   5.750 -30.523  1.00  0.00    -0.224 N 
HETATM    7  N   UNL     1       0.362   5.041 -29.673  1.00  0.00    -0.180 NA
HETATM    8  C   UNL     1       0.830   5.619 -28.601  1.00  0.00     0.153 A 
HETATM    9  C   UNL     1       0.477   6.971 -28.275  1.00  0.00     0.028 A 
HETATM   10  C   UNL     1      -0.405   7.634 -29.088  1.00  0.00     0.116 A 
HETATM   11  C   UNL     1       0.894   7.867 -27.257  1.00  0.00     0.005 A 
HETATM   12  N   UNL     1      -0.575   8.897 -28.599  1.00  0.00    -0.350 N 
HETATM   13  C   UNL     1      -0.971   7.065 -30.275  1.00  0.00     0.291 A 
HETATM   14  H   UNL     1      -1.163   9.606 -29.021  1.00  0.00     0.166 HD
HETATM   15  C   UNL     1       0.231   9.076 -27.494  1.00  0.00     0.044 A 
HETATM   16  C   UNL     1       0.432  10.213 -26.704  1.00  0.00     0.031 A 
HETATM   17  C   UNL     1       1.340  10.115 -25.644  1.00  0.00     0.009 A 
HETATM   18  C   UNL     1       2.011   8.920 -25.364  1.00  0.00    -0.061 A 
HETATM   19  C   UNL     1       3.011   8.856 -24.245  1.00  0.00     0.048 C 
HETATM   20  C   UNL     1       1.796   7.792 -26.175  1.00  0.00     0.021 A 
HETATM   21  O   UNL     1      -1.729   7.693 -31.005  1.00  0.00    -0.264 OA
ENDBRANCH   5   6
ENDBRANCH   2   5
BRANCH   1  22
HETATM   22  C   UNL     1      -3.826   2.916 -31.630  1.00  0.00     0.035 A 
HETATM   23  C   UNL     1      -3.910   1.758 -32.410  1.00  0.00     0.044 A 
HETATM   24  C   UNL     1      -5.133   1.052 -32.517  1.00  0.00     0.005 A 
HETATM   25  C   UNL     1      -6.255   1.538 -31.848  1.00  0.00     0.046 A 
HETATM   26  C   UNL     1      -5.516  -0.143 -33.201  1.00  0.00     0.003 A 
HETATM   27  N   UNL     1      -7.295   0.672 -32.129  1.00  0.00    -0.346 N 
HETATM   28  C   UNL     1      -6.196   2.705 -31.068  1.00  0.00     0.033 A 
HETATM   29  C   UNL     1      -6.871  -0.361 -32.946  1.00  0.00     0.046 A 
HETATM   30  C   UNL     1      -7.557  -1.462 -33.485  1.00  0.00     0.030 A 
HETATM   31  C   UNL     1      -6.845  -2.358 -34.289  1.00  0.00     0.002 A 
HETATM   32  C   UNL     1      -5.494  -2.163 -34.551  1.00  0.00     0.001 A 
HETATM   33  C   UNL     1      -4.819  -1.061 -34.016  1.00  0.00     0.014 A 
HETATM   34  C   UNL     1      -4.967   3.372 -30.967  1.00  0.00     0.032 A 
BRANCH  27  35
HETATM   35  C   UNL     1      -8.654   0.816 -31.630  1.00  0.00     0.125 C 
HETATM   36  C   UNL     1      -9.510   1.681 -32.538  1.00  0.00     0.027 C 
ENDBRANCH  27  35
ENDBRANCH   1  22
TORSDOF 4
ENDMDL
MODEL 4
REMARK VINA RESULT:     -10.3      7.338     12.221
REMARK  4 active torsions:
REMARK  status: ('A' for Active; 'I' for Inactive)
REMARK    1  A    between atoms: C_2  and  N_3 
REMARK    2  A    between atoms: C_7  and  N_8 
REMARK       I    between atoms: N_8  and  C_9 
REMARK    3  A    between atoms: C_9  and  C_10 
REMARK    4  A    between atoms: C_10  and  N_11 
ROOT
HETATM    1  N   UNL     1      -3.910   5.802 -31.157  1.00  0.00    -0.326 N 
HETATM    2  C   UNL     1      -4.603   4.609 -31.207  1.00  0.00     0.242 C 
HETATM    3  O   UNL     1      -5.029   3.981 -30.238  1.00  0.00    -0.271 OA
HETATM    4  H   UNL     1      -3.620   6.158 -32.067  1.00  0.00     0.169 HD
ENDROOT
BRANCH   2   5
HETATM    5  C   UNL     1      -4.694   3.990 -32.604  1.00  0.00     0.257 C 
BRANCH   5   6
HETATM    6  N   UNL     1      -5.029   2.568 -32.699  1.00  0.00    -0.224 N 
HETATM    7  N   UNL     1      -6.233   2.240 -33.364  1.00  0.00    -0.180 NA
HETATM    8  C   UNL     1      -6.459   1.005 -33.718  1.00  0.00     0.153 A 
HETATM    9  C   UNL     1      -5.499  -0.028 -33.457  1.00  0.00     0.028 A 
HETATM   10  C   UNL     1      -4.353   0.297 -32.780  1.00  0.00     0.116 A 
HETATM   11  C   UNL     1      -5.431  -1.403 -33.802  1.00  0.00     0.005 A 
HETATM   12  N   UNL     1      -3.587  -0.828 -32.665  1.00  0.00    -0.350 N 
HETATM   13  C   UNL     1      -4.037   1.626 -32.347  1.00  0.00     0.291 A 
HETATM   14  H   UNL     1      -2.677  -0.865 -32.223  1.00  0.00     0.166 HD
HETATM   15  C   UNL     1      -4.211  -1.878 -33.307  1.00  0.00     0.044 A 
HETATM   16  C   UNL     1      -3.783  -3.196 -33.499  1.00  0.00     0.031 A 
HETATM   17  C   UNL     1      -4.621  -4.053 -34.220  1.00  0.00     0.009 A 
HETATM   18  C   UNL     1      -5.855  -3.621 -34.717  1.00  0.00    -0.061 A 
HETATM   19  C   UNL     1      -6.715  -4.552 -35.523  1.00  0.00     0.048 C 
HETATM   20  C   UNL     1      -6.262  -2.291 -34.516  1.00  0.00     0.021 A 
HETATM   21  O   UNL     1      -2.987   1.896 -31.777  1.00  0.00    -0.264 OA
ENDBRANCH   5   6
ENDBRANCH   2   5
BRANCH   1  22
HETATM   22  C   UNL     1      -3.523   6.533 -30.015  1.00  0.00     0.035 A 
HETATM   23  C   UNL     1      -2.195   6.858 -29.720  1.00  0.00     0.044 A 
HETATM   24  C   UNL     1      -1.880   7.624 -28.572  1.00  0.00     0.005 A 
HETATM   25  C   UNL     1      -2.912   8.035 -27.730  1.00  0.00     0.046 A 
HETATM   26  C   UNL     1      -0.653   8.121 -28.034  1.00  0.00     0.003 A 
HETATM   27  N   UNL     1      -2.328   8.747 -26.699  1.00  0.00    -0.346 N 
HETATM   28  C   UNL     1      -4.252   7.710 -27.999  1.00  0.00     0.033 A 
HETATM   29  C   UNL     1      -0.956   8.819 -26.864  1.00  0.00     0.046 A 
HETATM   30  C   UNL     1       0.043   9.429 -26.087  1.00  0.00     0.030 A 
HETATM   31  C   UNL     1       1.369   9.333 -26.519  1.00  0.00     0.002 A 
HETATM   32  C   UNL     1       1.693   8.648 -27.684  1.00  0.00     0.001 A 
HETATM   33  C   UNL     1       0.694   8.037 -28.448  1.00  0.00     0.014 A 
HETATM   34  C   UNL     1      -4.534   6.965 -29.153  1.00  0.00     0.032 A 
BRANCH  27  35
HETATM   35  C   UNL     1      -3.054   9.353 -25.593  1.00  0.00     0.125 C 
HETATM   36  C   UNL     1      -2.926   8.545 -24.314  1.00  0.00     0.027 C 
ENDBRANCH  27  35
ENDBRANCH   1  22
TORSDOF 4
ENDMDL
MODEL 5
REMARK VINA RESULT:     -10.3      3.784      4.986
REMARK  4 active torsions:
REMARK  status: ('A' for Active; 'I' for Inactive)
REMARK    1  A    between atoms: C_2  and  N_3 
REMARK    2  A    between atoms: C_7  and  N_8 
REMARK       I    between atoms: N_8  and  C_9 
REMARK    3  A    between atoms: C_9  and  C_10 
REMARK    4  A    between atoms: C_10  and  N_11 
ROOT
HETATM    1  N   UNL     1      -9.146   1.991 -33.756  1.00  0.00    -0.326 N 
HETATM    2  C   UNL     1      -9.944   2.429 -32.718  1.00  0.00     0.242 C 
HETATM    3  O   UNL     1      -9.736   2.244 -31.520  1.00  0.00    -0.271 OA
HETATM    4  H   UNL     1      -9.497   2.223 -34.684  1.00  0.00     0.169 HD
ENDROOT
BRANCH   2   5
HETATM    5  C   UNL     1     -11.260   3.072 -33.163  1.00  0.00     0.257 C 
BRANCH   5   6
HETATM    6  N   UNL     1     -11.196   4.397 -33.782  1.00  0.00    -0.224 N 
HETATM    7  N   UNL     1      -9.919   4.853 -34.182  1.00  0.00    -0.180 NA
HETATM    8  C   UNL     1      -9.820   5.888 -34.970  1.00  0.00     0.153 A 
HETATM    9  C   UNL     1     -10.988   6.566 -35.451  1.00  0.00     0.028 A 
HETATM   10  C   UNL     1     -12.219   6.137 -35.027  1.00  0.00     0.116 A 
HETATM   11  C   UNL     1     -11.187   7.630 -36.370  1.00  0.00     0.005 A 
HETATM   12  N   UNL     1     -13.174   6.910 -35.623  1.00  0.00    -0.350 N 
HETATM   13  C   UNL     1     -12.410   5.017 -34.154  1.00  0.00     0.291 A 
HETATM   14  H   UNL     1     -14.172   6.795 -35.498  1.00  0.00     0.166 HD
HETATM   15  C   UNL     1     -12.570   7.814 -36.473  1.00  0.00     0.044 A 
HETATM   16  C   UNL     1     -13.142   8.762 -37.328  1.00  0.00     0.031 A 
HETATM   17  C   UNL     1     -12.278   9.540 -38.105  1.00  0.00     0.009 A 
HETATM   18  C   UNL     1     -10.889   9.398 -38.019  1.00  0.00    -0.061 A 
HETATM   19  C   UNL     1      -9.988  10.220 -38.896  1.00  0.00     0.048 C 
HETATM   20  C   UNL     1     -10.338   8.436 -37.156  1.00  0.00     0.021 A 
HETATM   21  O   UNL     1     -13.524   4.630 -33.820  1.00  0.00    -0.264 OA
ENDBRANCH   5   6
ENDBRANCH   2   5
BRANCH   1  22
HETATM   22  C   UNL     1      -7.962   1.228 -33.676  1.00  0.00     0.035 A 
HETATM   23  C   UNL     1      -7.893  -0.128 -34.010  1.00  0.00     0.044 A 
HETATM   24  C   UNL     1      -6.663  -0.824 -33.938  1.00  0.00     0.005 A 
HETATM   25  C   UNL     1      -5.524  -0.142 -33.514  1.00  0.00     0.046 A 
HETATM   26  C   UNL     1      -6.281  -2.170 -34.230  1.00  0.00     0.003 A 
HETATM   27  N   UNL     1      -4.483  -1.051 -33.531  1.00  0.00    -0.346 N 
HETATM   28  C   UNL     1      -5.571   1.217 -33.162  1.00  0.00     0.033 A 
HETATM   29  C   UNL     1      -4.916  -2.291 -33.967  1.00  0.00     0.046 A 
HETATM   30  C   UNL     1      -4.232  -3.504 -34.149  1.00  0.00     0.030 A 
HETATM   31  C   UNL     1      -4.953  -4.608 -34.616  1.00  0.00     0.002 A 
HETATM   32  C   UNL     1      -6.312  -4.509 -34.890  1.00  0.00     0.001 A 
HETATM   33  C   UNL     1      -6.987  -3.299 -34.700  1.00  0.00     0.014 A 
HETATM   34  C   UNL     1      -6.801   1.884 -33.260  1.00  0.00     0.032 A 
BRANCH  27  35
HETATM   35  C   UNL     1      -3.110  -0.750 -33.151  1.00  0.00     0.125 C 
HETATM   36  C   UNL     1      -2.920  -0.749 -31.645  1.00  0.00     0.027 C 
ENDBRANCH  27  35
ENDBRANCH   1  22
TORSDOF 4
ENDMDL
MODEL 6
REMARK VINA RESULT:     -10.2      6.768      9.843
REMARK  4 active torsions:
REMARK  status: ('A' for Active; 'I' for Inactive)
REMARK    1  A    between atoms: C_2  and  N_3 
REMARK    2  A    between atoms: C_7  and  N_8 
REMARK       I    between atoms: N_8  and  C_9 
REMARK    3  A    between atoms: C_9  and  C_10 
REMARK    4  A    between atoms: C_10  and  N_11 
ROOT
HETATM    1  N   UNL     1      -6.413   3.037 -33.231  1.00  0.00    -0.326 N 
HETATM    2  C   UNL     1      -5.980   4.181 -33.872  1.00  0.00     0.242 C 
HETATM    3  O   UNL     1      -5.325   4.220 -34.912  1.00  0.00    -0.271 OA
HETATM    4  H   UNL     1      -6.925   3.208 -32.367  1.00  0.00     0.169 HD
ENDROOT
BRANCH   2   5
HETATM    5  C   UNL     1      -6.247   5.476 -33.101  1.00  0.00     0.257 C 
BRANCH   5   6
HETATM    6  N   UNL     1      -5.315   5.836 -32.031  1.00  0.00    -0.224 N 
HETATM    7  N   UNL     1      -4.148   5.047 -31.910  1.00  0.00    -0.180 NA
HETATM    8  C   UNL     1      -3.160   5.465 -31.167  1.00  0.00     0.153 A 
HETATM    9  C   UNL     1      -3.232   6.721 -30.479  1.00  0.00     0.028 A 
HETATM   10  C   UNL     1      -4.382   7.460 -30.576  1.00  0.00     0.116 A 
HETATM   11  C   UNL     1      -2.301   7.459 -29.701  1.00  0.00     0.005 A 
HETATM   12  N   UNL     1      -4.215   8.613 -29.865  1.00  0.00    -0.350 N 
HETATM   13  C   UNL     1      -5.514   7.064 -31.361  1.00  0.00     0.291 A 
HETATM   14  H   UNL     1      -4.907   9.348 -29.785  1.00  0.00     0.166 HD
HETATM   15  C   UNL     1      -2.939   8.651 -29.341  1.00  0.00     0.044 A 
HETATM   16  C   UNL     1      -2.304   9.651 -28.597  1.00  0.00     0.031 A 
HETATM   17  C   UNL     1      -0.977   9.429 -28.212  1.00  0.00     0.009 A 
HETATM   18  C   UNL     1      -0.310   8.244 -28.537  1.00  0.00    -0.061 A 
HETATM   19  C   UNL     1       1.128   8.052 -28.146  1.00  0.00     0.048 C 
HETATM   20  C   UNL     1      -0.968   7.256 -29.290  1.00  0.00     0.021 A 
HETATM   21  O   UNL     1      -6.516   7.761 -31.461  1.00  0.00    -0.264 OA
ENDBRANCH   5   6
ENDBRANCH   2   5
BRANCH   1  22
HETATM   22  C   UNL     1      -6.181   1.696 -33.600  1.00  0.00     0.035 A 
HETATM   23  C   UNL     1      -5.260   0.865 -32.953  1.00  0.00     0.044 A 
HETATM   24  C   UNL     1      -5.103  -0.482 -33.355  1.00  0.00     0.005 A 
HETATM   25  C   UNL     1      -5.866  -0.966 -34.416  1.00  0.00     0.046 A 
HETATM   26  C   UNL     1      -4.282  -1.554 -32.885  1.00  0.00     0.003 A 
HETATM   27  N   UNL     1      -5.509  -2.289 -34.597  1.00  0.00    -0.346 N 
HETATM   28  C   UNL     1      -6.789  -0.147 -35.088  1.00  0.00     0.033 A 
HETATM   29  C   UNL     1      -4.551  -2.672 -33.676  1.00  0.00     0.046 A 
HETATM   30  C   UNL     1      -3.896  -3.898 -33.471  1.00  0.00     0.030 A 
HETATM   31  C   UNL     1      -2.959  -3.984 -32.436  1.00  0.00     0.002 A 
HETATM   32  C   UNL     1      -2.680  -2.885 -31.632  1.00  0.00     0.001 A 
HETATM   33  C   UNL     1      -3.331  -1.666 -31.847  1.00  0.00     0.014 A 
HETATM   34  C   UNL     1      -6.935   1.179 -34.656  1.00  0.00     0.032 A 
BRANCH  27  35
HETATM   35  C   UNL     1      -6.068  -3.169 -35.613  1.00  0.00     0.125 C 
HETATM   36  C   UNL     1      -6.935  -4.260 -35.010  1.00  0.00     0.027 C 
ENDBRANCH  27  35
ENDBRANCH   1  22
TORSDOF 4
ENDMDL
MODEL 7
REMARK VINA RESULT:     -10.1      7.632     12.141
REMARK  4 active torsions:
REMARK  status: ('A' for Active; 'I' for Inactive)
REMARK    1  A    between atoms: C_2  and  N_3 
REMARK    2  A    between atoms: C_7  and  N_8 
REMARK       I    between atoms: N_8  and  C_9 
REMARK    3  A    between atoms: C_9  and  C_10 
REMARK    4  A    between atoms: C_10  and  N_11 
ROOT
HETATM    1  N   UNL     1      -3.270   5.181 -32.749  1.00  0.00    -0.326 N 
HETATM    2  C   UNL     1      -2.568   5.773 -33.781  1.00  0.00     0.242 C 
HETATM    3  O   UNL     1      -2.457   5.332 -34.924  1.00  0.00    -0.271 OA
HETATM    4  H   UNL     1      -3.227   5.688 -31.866  1.00  0.00     0.169 HD
ENDROOT
BRANCH   2   5
HETATM    5  C   UNL     1      -1.764   7.008 -33.369  1.00  0.00     0.257 C 
BRANCH   5   6
HETATM    6  N   UNL     1      -1.402   7.147 -31.958  1.00  0.00    -0.224 N 
HETATM    7  N   UNL     1      -0.299   6.386 -31.505  1.00  0.00    -0.180 NA
HETATM    8  C   UNL     1       0.240   6.657 -30.348  1.00  0.00     0.153 A 
HETATM    9  C   UNL     1      -0.259   7.724 -29.530  1.00  0.00     0.028 A 
HETATM   10  C   UNL     1      -1.350   8.430 -29.964  1.00  0.00     0.116 A 
HETATM   11  C   UNL     1       0.175   8.296 -28.305  1.00  0.00     0.005 A 
HETATM   12  N   UNL     1      -1.631   9.399 -29.044  1.00  0.00    -0.350 N 
HETATM   13  C   UNL     1      -2.005   8.187 -31.215  1.00  0.00     0.291 A 
HETATM   14  H   UNL     1      -2.379  10.076 -29.126  1.00  0.00     0.166 HD
HETATM   15  C   UNL     1      -0.695   9.357 -28.031  1.00  0.00     0.044 A 
HETATM   16  C   UNL     1      -0.545  10.183 -26.911  1.00  0.00     0.031 A 
HETATM   17  C   UNL     1       0.524   9.921 -26.049  1.00  0.00     0.009 A 
HETATM   18  C   UNL     1       1.406   8.860 -26.279  1.00  0.00    -0.061 A 
HETATM   19  C   UNL     1       2.570   8.629 -25.358  1.00  0.00     0.048 C 
HETATM   20  C   UNL     1       1.239   8.047 -27.414  1.00  0.00     0.021 A 
HETATM   21  O   UNL     1      -2.957   8.858 -31.596  1.00  0.00    -0.264 OA
ENDBRANCH   5   6
ENDBRANCH   2   5
BRANCH   1  22
HETATM   22  C   UNL     1      -3.972   3.958 -32.769  1.00  0.00     0.035 A 
HETATM   23  C   UNL     1      -5.327   3.851 -33.101  1.00  0.00     0.044 A 
HETATM   24  C   UNL     1      -5.960   2.586 -33.133  1.00  0.00     0.005 A 
HETATM   25  C   UNL     1      -5.219   1.450 -32.812  1.00  0.00     0.046 A 
HETATM   26  C   UNL     1      -7.289   2.164 -33.450  1.00  0.00     0.003 A 
HETATM   27  N   UNL     1      -6.076   0.370 -32.915  1.00  0.00    -0.346 N 
HETATM   28  C   UNL     1      -3.860   1.534 -32.465  1.00  0.00     0.033 A 
HETATM   29  C   UNL     1      -7.339   0.778 -33.306  1.00  0.00     0.046 A 
HETATM   30  C   UNL     1      -8.519   0.051 -33.540  1.00  0.00     0.030 A 
HETATM   31  C   UNL     1      -9.661   0.754 -33.937  1.00  0.00     0.002 A 
HETATM   32  C   UNL     1      -9.632   2.135 -34.093  1.00  0.00     0.001 A 
HETATM   33  C   UNL     1      -8.456   2.851 -33.850  1.00  0.00     0.014 A 
HETATM   34  C   UNL     1      -3.256   2.800 -32.459  1.00  0.00     0.032 A 
BRANCH  27  35
HETATM   35  C   UNL     1      -5.704  -1.013 -32.658  1.00  0.00     0.125 C 
HETATM   36  C   UNL     1      -5.188  -1.709 -33.905  1.00  0.00     0.027 C 
ENDBRANCH  27  35
ENDBRANCH   1  22
TORSDOF 4
ENDMDL
MODEL 8
REMARK VINA RESULT:     -10.1      7.431     11.552
REMARK  4 active torsions:
REMARK  status: ('A' for Active; 'I' for Inactive)
REMARK    1  A    between atoms: C_2  and  N_3 
REMARK    2  A    between atoms: C_7  and  N_8 
REMARK       I    between atoms: N_8  and  C_9 
REMARK    3  A    between atoms: C_9  and  C_10 
REMARK    4  A    between atoms: C_10  and  N_11 
ROOT
HETATM    1  N   UNL     1      -2.981   3.367 -31.947  1.00  0.00    -0.326 N 
HETATM    2  C   UNL     1      -2.470   4.413 -32.688  1.00  0.00     0.242 C 
HETATM    3  O   UNL     1      -2.912   4.821 -33.761  1.00  0.00    -0.271 OA
HETATM    4  H   UNL     1      -2.463   3.163 -31.093  1.00  0.00     0.169 HD
ENDROOT
BRANCH   2   5
HETATM    5  C   UNL     1      -1.157   4.985 -32.149  1.00  0.00     0.257 C 
BRANCH   5   6
HETATM    6  N   UNL     1      -1.237   6.027 -31.124  1.00  0.00    -0.224 N 
HETATM    7  N   UNL     1      -2.491   6.207 -30.495  1.00  0.00    -0.180 NA
HETATM    8  C   UNL     1      -2.570   6.918 -29.404  1.00  0.00     0.153 A 
HETATM    9  C   UNL     1      -1.402   7.510 -28.820  1.00  0.00     0.028 A 
HETATM   10  C   UNL     1      -0.198   7.358 -29.458  1.00  0.00     0.116 A 
HETATM   11  C   UNL     1      -1.174   8.233 -27.620  1.00  0.00     0.005 A 
HETATM   12  N   UNL     1       0.764   7.982 -28.717  1.00  0.00    -0.350 N 
HETATM   13  C   UNL     1      -0.031   6.603 -30.664  1.00  0.00     0.291 A 
HETATM   14  H   UNL     1       1.748   8.007 -28.952  1.00  0.00     0.166 HD
HETATM   15  C   UNL     1       0.199   8.502 -27.571  1.00  0.00     0.044 A 
HETATM   16  C   UNL     1       0.797   9.171 -26.498  1.00  0.00     0.031 A 
HETATM   17  C   UNL     1      -0.027   9.572 -25.442  1.00  0.00     0.009 A 
HETATM   18  C   UNL     1      -1.405   9.336 -25.460  1.00  0.00    -0.061 A 
HETATM   19  C   UNL     1      -2.258   9.742 -24.291  1.00  0.00     0.048 C 
HETATM   20  C   UNL     1      -1.983   8.658 -26.546  1.00  0.00     0.021 A 
HETATM   21  O   UNL     1       1.063   6.451 -31.194  1.00  0.00    -0.264 OA
ENDBRANCH   5   6
ENDBRANCH   2   5
BRANCH   1  22
HETATM   22  C   UNL     1      -4.077   2.536 -32.261  1.00  0.00     0.035 A 
HETATM   23  C   UNL     1      -3.944   1.269 -32.839  1.00  0.00     0.044 A 
HETATM   24  C   UNL     1      -5.086   0.474 -33.097  1.00  0.00     0.005 A 
HETATM   25  C   UNL     1      -6.346   0.979 -32.783  1.00  0.00     0.046 A 
HETATM   26  C   UNL     1      -5.264  -0.835 -33.642  1.00  0.00     0.003 A 
HETATM   27  N   UNL     1      -7.266   0.012 -33.143  1.00  0.00    -0.346 N 
HETATM   28  C   UNL     1      -6.505   2.253 -32.214  1.00  0.00     0.033 A 
HETATM   29  C   UNL     1      -6.633  -1.103 -33.663  1.00  0.00     0.046 A 
HETATM   30  C   UNL     1      -7.142  -2.318 -34.152  1.00  0.00     0.030 A 
HETATM   31  C   UNL     1      -6.236  -3.276 -34.618  1.00  0.00     0.002 A 
HETATM   32  C   UNL     1      -4.868  -3.032 -34.602  1.00  0.00     0.001 A 
HETATM   33  C   UNL     1      -4.370  -1.818 -34.119  1.00  0.00     0.014 A 
HETATM   34  C   UNL     1      -5.354   3.010 -31.954  1.00  0.00     0.032 A 
BRANCH  27  35
HETATM   35  C   UNL     1      -8.708   0.138 -32.988  1.00  0.00     0.125 C 
HETATM   36  C   UNL     1      -9.355   0.812 -34.185  1.00  0.00     0.027 C 
ENDBRANCH  27  35
ENDBRANCH   1  22
TORSDOF 4
ENDMDL
MODEL 9
REMARK VINA RESULT:      -9.9      5.679     10.647
REMARK  4 active torsions:
REMARK  status: ('A' for Active; 'I' for Inactive)
REMARK    1  A    between atoms: C_2  and  N_3 
REMARK    2  A    between atoms: C_7  and  N_8 
REMARK       I    between atoms: N_8  and  C_9 
REMARK    3  A    between atoms: C_9  and  C_10 
REMARK    4  A    between atoms: C_10  and  N_11 
ROOT
HETATM    1  N   UNL     1      -6.448   4.784 -32.032  1.00  0.00    -0.326 N 
HETATM    2  C   UNL     1      -7.253   3.803 -31.488  1.00  0.00     0.242 C 
HETATM    3  O   UNL     1      -7.335   3.519 -30.294  1.00  0.00    -0.271 OA
HETATM    4  H   UNL     1      -6.501   4.855 -33.048  1.00  0.00     0.169 HD
ENDROOT
BRANCH   2   5
HETATM    5  C   UNL     1      -7.975   2.934 -32.520  1.00  0.00     0.257 C 
BRANCH   5   6
HETATM    6  N   UNL     1      -7.242   1.802 -33.090  1.00  0.00    -0.224 N 
HETATM    7  N   UNL     1      -5.910   1.620 -32.652  1.00  0.00    -0.180 NA
HETATM    8  C   UNL     1      -5.294   0.498 -32.905  1.00  0.00     0.153 A 
HETATM    9  C   UNL     1      -5.951  -0.563 -33.612  1.00  0.00     0.028 A 
HETATM   10  C   UNL     1      -7.230  -0.361 -34.062  1.00  0.00     0.116 A 
HETATM   11  C   UNL     1      -5.577  -1.893 -33.938  1.00  0.00     0.005 A 
HETATM   12  N   UNL     1      -7.654  -1.501 -34.681  1.00  0.00    -0.350 N 
HETATM   13  C   UNL     1      -7.968   0.846 -33.834  1.00  0.00     0.291 A 
HETATM   14  H   UNL     1      -8.572  -1.630 -35.089  1.00  0.00     0.166 HD
HETATM   15  C   UNL     1      -6.672  -2.466 -34.594  1.00  0.00     0.044 A 
HETATM   16  C   UNL     1      -6.677  -3.795 -35.030  1.00  0.00     0.031 A 
HETATM   17  C   UNL     1      -5.535  -4.564 -34.785  1.00  0.00     0.009 A 
HETATM   18  C   UNL     1      -4.413  -4.024 -34.147  1.00  0.00    -0.061 A 
HETATM   19  C   UNL     1      -3.217  -4.886 -33.860  1.00  0.00     0.048 C 
HETATM   20  C   UNL     1      -4.433  -2.687 -33.713  1.00  0.00     0.021 A 
HETATM   21  O   UNL     1      -9.124   0.987 -34.215  1.00  0.00    -0.264 OA
ENDBRANCH   5   6
ENDBRANCH   2   5
BRANCH   1  22
HETATM   22  C   UNL     1      -5.544   5.635 -31.362  1.00  0.00     0.035 A 
HETATM   23  C   UNL     1      -4.172   5.381 -31.267  1.00  0.00     0.044 A 
HETATM   24  C   UNL     1      -3.317   6.296 -30.608  1.00  0.00     0.005 A 
HETATM   25  C   UNL     1      -3.865   7.446 -30.040  1.00  0.00     0.046 A 
HETATM   26  C   UNL     1      -1.907   6.324 -30.374  1.00  0.00     0.003 A 
HETATM   27  N   UNL     1      -2.821   8.145 -29.464  1.00  0.00    -0.346 N 
HETATM   28  C   UNL     1      -5.241   7.715 -30.114  1.00  0.00     0.033 A 
HETATM   29  C   UNL     1      -1.620   7.486 -29.657  1.00  0.00     0.046 A 
HETATM   30  C   UNL     1      -0.310   7.807 -29.262  1.00  0.00     0.030 A 
HETATM   31  C   UNL     1       0.721   6.930 -29.615  1.00  0.00     0.002 A 
HETATM   32  C   UNL     1       0.458   5.770 -30.333  1.00  0.00     0.001 A 
HETATM   33  C   UNL     1      -0.849   5.455 -30.717  1.00  0.00     0.014 A 
HETATM   34  C   UNL     1      -6.061   6.798 -30.789  1.00  0.00     0.032 A 
BRANCH  27  35
HETATM   35  C   UNL     1      -2.958   9.409 -28.756  1.00  0.00     0.125 C 
HETATM   36  C   UNL     1      -2.722  10.603 -29.664  1.00  0.00     0.027 C 
ENDBRANCH  27  35
ENDBRANCH   1  22
TORSDOF 4
ENDMDL
MODEL 10
REMARK VINA RESULT:      -9.8      4.736     11.486
REMARK  4 active torsions:
REMARK  status: ('A' for Active; 'I' for Inactive)
REMARK    1  A    between atoms: C_2  and  N_3 
REMARK    2  A    between atoms: C_7  and  N_8 
REMARK       I    between atoms: N_8  and  C_9 
REMARK    3  A    between atoms: C_9  and  C_10 
REMARK    4  A    between atoms: C_10  and  N_11 
ROOT
HETATM    1  N   UNL     1     -10.982   5.278 -33.530  1.00  0.00    -0.326 N 
HETATM    2  C   UNL     1     -10.141   4.196 -33.695  1.00  0.00     0.242 C 
HETATM    3  O   UNL     1      -9.781   3.719 -34.770  1.00  0.00    -0.271 OA
HETATM    4  H   UNL     1     -11.182   5.511 -32.558  1.00  0.00     0.169 HD
ENDROOT
BRANCH   2   5
HETATM    5  C   UNL     1      -9.768   3.482 -32.393  1.00  0.00     0.257 C 
BRANCH   5   6
HETATM    6  N   UNL     1      -9.101   2.183 -32.495  1.00  0.00    -0.224 N 
HETATM    7  N   UNL     1      -9.897   1.087 -32.901  1.00  0.00    -0.180 NA
HETATM    8  C   UNL     1      -9.325  -0.026 -33.269  1.00  0.00     0.153 A 
HETATM    9  C   UNL     1      -7.897  -0.155 -33.282  1.00  0.00     0.028 A 
HETATM   10  C   UNL     1      -7.137   0.902 -32.853  1.00  0.00     0.116 A 
HETATM   11  C   UNL     1      -7.016  -1.182 -33.713  1.00  0.00     0.005 A 
HETATM   12  N   UNL     1      -5.820   0.563 -32.972  1.00  0.00    -0.350 N 
HETATM   13  C   UNL     1      -7.690   2.152 -32.423  1.00  0.00     0.291 A 
HETATM   14  H   UNL     1      -5.044   1.170 -32.741  1.00  0.00     0.166 HD
HETATM   15  C   UNL     1      -5.717  -0.698 -33.523  1.00  0.00     0.044 A 
HETATM   16  C   UNL     1      -4.580  -1.432 -33.878  1.00  0.00     0.031 A 
HETATM   17  C   UNL     1      -4.775  -2.694 -34.449  1.00  0.00     0.009 A 
HETATM   18  C   UNL     1      -6.057  -3.220 -34.640  1.00  0.00    -0.061 A 
HETATM   19  C   UNL     1      -6.236  -4.561 -35.294  1.00  0.00     0.048 C 
HETATM   20  C   UNL     1      -7.184  -2.462 -34.280  1.00  0.00     0.021 A 
HETATM   21  O   UNL     1      -6.987   3.095 -32.079  1.00  0.00    -0.264 OA
ENDBRANCH   5   6
ENDBRANCH   2   5
BRANCH   1  22
HETATM   22  C   UNL     1     -11.622   6.038 -34.530  1.00  0.00     0.035 A 
HETATM   23  C   UNL     1     -10.950   6.940 -35.363  1.00  0.00     0.044 A 
HETATM   24  C   UNL     1     -11.650   7.646 -36.369  1.00  0.00     0.005 A 
HETATM   25  C   UNL     1     -13.022   7.443 -36.509  1.00  0.00     0.046 A 
HETATM   26  C   UNL     1     -11.246   8.591 -37.363  1.00  0.00     0.003 A 
HETATM   27  N   UNL     1     -13.444   8.254 -37.546  1.00  0.00    -0.346 N 
HETATM   28  C   UNL     1     -13.720   6.552 -35.677  1.00  0.00     0.033 A 
HETATM   29  C   UNL     1     -12.382   8.958 -38.086  1.00  0.00     0.046 A 
HETATM   30  C   UNL     1     -12.322   9.885 -39.139  1.00  0.00     0.030 A 
HETATM   31  C   UNL     1     -11.079  10.438 -39.464  1.00  0.00     0.002 A 
HETATM   32  C   UNL     1      -9.933  10.082 -38.762  1.00  0.00     0.001 A 
HETATM   33  C   UNL     1     -10.003   9.163 -37.710  1.00  0.00     0.014 A 
HETATM   34  C   UNL     1     -12.996   5.854 -34.699  1.00  0.00     0.032 A 
BRANCH  27  35
HETATM   35  C   UNL     1     -14.817   8.351 -38.019  1.00  0.00     0.125 C 
HETATM   36  C   UNL     1     -15.586   9.460 -37.323  1.00  0.00     0.027 C 
ENDBRANCH  27  35
ENDBRANCH   1  22
TORSDOF 4
ENDMDL
