MODEL 1
REMARK VINA RESULT:      -8.8      0.000      0.000
REMARK  6 active torsions:
REMARK  status: ('A' for Active; 'I' for Inactive)
REMARK    1  A    between atoms: N_2  and  C_4 
REMARK    2  A    between atoms: C_4  and  C_5 
REMARK    3  A    between atoms: C_7  and  N_8 
REMARK       I    between atoms: N_8  and  C_9 
REMARK    4  A    between atoms: C_9  and  C_10 
REMARK    5  A    between atoms: C_12  and  C_13 
REMARK    6  A    between atoms: C_20  and  C_21 
ROOT
HETATM    1  N   UNL     1      -3.390   3.320 -33.040  1.00  0.00    -0.322 N 
HETATM    2  C   UNL     1      -3.458   2.272 -32.134  1.00  0.00     0.277 C 
HETATM    3  O   UNL     1      -2.785   2.183 -31.110  1.00  0.00    -0.266 OA
HETATM    4  H   UNL     1      -3.915   3.169 -33.900  1.00  0.00     0.169 HD
ENDROOT
BRANCH   2   5
HETATM    5  C   UNL     1      -4.399   1.239 -32.555  1.00  0.00     0.157 A 
HETATM    6  N   UNL     1      -3.984  -0.014 -32.999  1.00  0.00    -0.216 NA
HETATM    7  C   UNL     1      -5.112  -0.638 -33.292  1.00  0.00     0.180 A 
HETATM    8  O   UNL     1      -6.236   0.107 -33.062  1.00  0.00    -0.293 OA
HETATM    9  C   UNL     1      -5.779   1.306 -32.591  1.00  0.00     0.094 A 
BRANCH   7  10
HETATM   10  C   UNL     1      -5.325  -1.983 -33.821  1.00  0.00     0.017 A 
HETATM   11  C   UNL     1      -6.583  -2.346 -34.326  1.00  0.00     0.016 A 
HETATM   12  C   UNL     1      -6.808  -3.630 -34.831  1.00  0.00     0.001 A 
HETATM   13  C   UNL     1      -5.777  -4.568 -34.836  1.00  0.00     0.000 A 
HETATM   14  C   UNL     1      -4.523  -4.225 -34.338  1.00  0.00     0.001 A 
HETATM   15  C   UNL     1      -4.299  -2.941 -33.834  1.00  0.00     0.016 A 
ENDBRANCH   7  10
BRANCH   9  16
HETATM   16  C   UNL     1      -6.684   2.461 -32.202  1.00  0.00     0.046 A 
HETATM   17  C   UNL     1      -7.095   3.432 -33.290  1.00  0.00     0.012 A 
HETATM   18  C   UNL     1      -8.095   2.467 -32.751  1.00  0.00     0.012 A 
ENDBRANCH   9  16
ENDBRANCH   2   5
BRANCH   1  19
HETATM   19  C   UNL     1      -2.596   4.475 -32.928  1.00  0.00     0.035 A 
HETATM   20  C   UNL     1      -2.382   5.125 -31.711  1.00  0.00     0.038 A 
HETATM   21  C   UNL     1      -1.507   6.217 -31.603  1.00  0.00    -0.030 A 
HETATM   22  C   UNL     1      -0.878   6.692 -32.758  1.00  0.00     0.009 A 
HETATM   23  C   UNL     1      -1.135   6.089 -33.991  1.00  0.00     0.003 A 
HETATM   24  C   UNL     1      -1.993   4.986 -34.076  1.00  0.00     0.029 A 
BRANCH  21  25
HETATM   25  C   UNL     1      -1.240   6.811 -30.247  1.00  0.00     0.272 C 
BRANCH  25  26
HETATM   26  N   UNL     1      -0.660   5.825 -29.252  1.00  0.00    -0.075 N 
HETATM   27  C   UNL     1      -0.389   6.418 -27.894  1.00  0.00     0.269 C 
HETATM   28  H   UNL     1      -1.375   5.101 -29.116  1.00  0.00     0.279 HD
HETATM   29  C   UNL     1       0.567   5.157 -29.803  1.00  0.00     0.269 C 
ENDBRANCH  25  26
ENDBRANCH  21  25
ENDBRANCH   1  19
TORSDOF 6
ENDMDL
MODEL 2
REMARK VINA RESULT:      -8.6      1.020      1.515
REMARK  6 active torsions:
REMARK  status: ('A' for Active; 'I' for Inactive)
REMARK    1  A    between atoms: N_2  and  C_4 
REMARK    2  A    between atoms: C_4  and  C_5 
REMARK    3  A    between atoms: C_7  and  N_8 
REMARK       I    between atoms: N_8  and  C_9 
REMARK    4  A    between atoms: C_9  and  C_10 
REMARK    5  A    between atoms: C_12  and  C_13 
REMARK    6  A    between atoms: C_20  and  C_21 
ROOT
HETATM    1  N   UNL     1      -3.670   3.439 -33.094  1.00  0.00    -0.322 N 
HETATM    2  C   UNL     1      -4.512   2.984 -32.090  1.00  0.00     0.277 C 
HETATM    3  O   UNL     1      -4.592   3.472 -30.966  1.00  0.00    -0.266 OA
HETATM    4  H   UNL     1      -3.629   2.838 -33.915  1.00  0.00     0.169 HD
ENDROOT
BRANCH   2   5
HETATM    5  C   UNL     1      -5.277   1.812 -32.501  1.00  0.00     0.157 A 
HETATM    6  N   UNL     1      -4.670   0.651 -32.974  1.00  0.00    -0.216 NA
HETATM    7  C   UNL     1      -5.685  -0.151 -33.247  1.00  0.00     0.180 A 
HETATM    8  O   UNL     1      -6.911   0.392 -32.978  1.00  0.00    -0.293 OA
HETATM    9  C   UNL     1      -6.649   1.646 -32.501  1.00  0.00     0.094 A 
BRANCH   7  10
HETATM   10  C   UNL     1      -5.684  -1.507 -33.789  1.00  0.00     0.017 A 
HETATM   11  C   UNL     1      -4.481  -2.223 -33.884  1.00  0.00     0.016 A 
HETATM   12  C   UNL     1      -4.460  -3.520 -34.405  1.00  0.00     0.001 A 
HETATM   13  C   UNL     1      -5.642  -4.117 -34.841  1.00  0.00     0.000 A 
HETATM   14  C   UNL     1      -6.844  -3.420 -34.755  1.00  0.00     0.001 A 
HETATM   15  C   UNL     1      -6.865  -2.124 -34.232  1.00  0.00     0.016 A 
ENDBRANCH   7  10
BRANCH   9  16
HETATM   16  C   UNL     1      -7.724   2.629 -32.072  1.00  0.00     0.046 A 
HETATM   17  C   UNL     1      -8.963   2.070 -31.404  1.00  0.00     0.012 A 
HETATM   18  C   UNL     1      -7.961   2.811 -30.587  1.00  0.00     0.012 A 
ENDBRANCH   9  16
ENDBRANCH   2   5
BRANCH   1  19
HETATM   19  C   UNL     1      -2.811   4.551 -33.030  1.00  0.00     0.035 A 
HETATM   20  C   UNL     1      -1.871   4.716 -32.011  1.00  0.00     0.038 A 
HETATM   21  C   UNL     1      -0.956   5.780 -32.018  1.00  0.00    -0.030 A 
HETATM   22  C   UNL     1      -1.029   6.724 -33.047  1.00  0.00     0.009 A 
HETATM   23  C   UNL     1      -2.007   6.602 -34.036  1.00  0.00     0.003 A 
HETATM   24  C   UNL     1      -2.896   5.522 -34.027  1.00  0.00     0.029 A 
BRANCH  21  25
HETATM   25  C   UNL     1       0.098   5.848 -30.947  1.00  0.00     0.272 C 
BRANCH  25  26
HETATM   26  N   UNL     1      -0.462   5.851 -29.538  1.00  0.00    -0.075 N 
HETATM   27  C   UNL     1      -1.350   7.031 -29.238  1.00  0.00     0.269 C 
HETATM   28  H   UNL     1      -1.052   5.015 -29.462  1.00  0.00     0.279 HD
HETATM   29  C   UNL     1       0.636   5.730 -28.519  1.00  0.00     0.269 C 
ENDBRANCH  25  26
ENDBRANCH  21  25
ENDBRANCH   1  19
TORSDOF 6
ENDMDL
MODEL 3
REMARK VINA RESULT:      -8.4      1.298      1.687
REMARK  6 active torsions:
REMARK  status: ('A' for Active; 'I' for Inactive)
REMARK    1  A    between atoms: N_2  and  C_4 
REMARK    2  A    between atoms: C_4  and  C_5 
REMARK    3  A    between atoms: C_7  and  N_8 
REMARK       I    between atoms: N_8  and  C_9 
REMARK    4  A    between atoms: C_9  and  C_10 
REMARK    5  A    between atoms: C_12  and  C_13 
REMARK    6  A    between atoms: C_20  and  C_21 
ROOT
HETATM    1  N   UNL     1      -3.586   3.337 -32.956  1.00  0.00    -0.322 N 
HETATM    2  C   UNL     1      -3.475   2.301 -32.040  1.00  0.00     0.277 C 
HETATM    3  O   UNL     1      -2.676   2.269 -31.108  1.00  0.00    -0.266 OA
HETATM    4  H   UNL     1      -4.202   3.140 -33.743  1.00  0.00     0.169 HD
ENDROOT
BRANCH   2   5
HETATM    5  C   UNL     1      -4.395   1.206 -32.332  1.00  0.00     0.157 A 
HETATM    6  N   UNL     1      -4.003   0.066 -33.030  1.00  0.00    -0.216 NA
HETATM    7  C   UNL     1      -5.105  -0.661 -33.097  1.00  0.00     0.180 A 
HETATM    8  O   UNL     1      -6.187  -0.090 -32.486  1.00  0.00    -0.293 OA
HETATM    9  C   UNL     1      -5.732   1.103 -31.998  1.00  0.00     0.094 A 
BRANCH   7  10
HETATM   10  C   UNL     1      -5.329  -1.962 -33.724  1.00  0.00     0.017 A 
HETATM   11  C   UNL     1      -6.586  -2.273 -34.263  1.00  0.00     0.016 A 
HETATM   12  C   UNL     1      -6.821  -3.514 -34.861  1.00  0.00     0.001 A 
HETATM   13  C   UNL     1      -5.801  -4.461 -34.927  1.00  0.00     0.000 A 
HETATM   14  C   UNL     1      -4.548  -4.169 -34.396  1.00  0.00     0.001 A 
HETATM   15  C   UNL     1      -4.313  -2.928 -33.798  1.00  0.00     0.016 A 
ENDBRANCH   7  10
BRANCH   9  16
HETATM   16  C   UNL     1      -6.598   2.091 -31.237  1.00  0.00     0.046 A 
HETATM   17  C   UNL     1      -7.419   3.075 -32.044  1.00  0.00     0.012 A 
HETATM   18  C   UNL     1      -8.102   1.945 -31.353  1.00  0.00     0.012 A 
ENDBRANCH   9  16
ENDBRANCH   2   5
BRANCH   1  19
HETATM   19  C   UNL     1      -2.857   4.540 -32.954  1.00  0.00     0.035 A 
HETATM   20  C   UNL     1      -2.855   5.414 -31.866  1.00  0.00     0.038 A 
HETATM   21  C   UNL     1      -2.045   6.560 -31.843  1.00  0.00    -0.030 A 
HETATM   22  C   UNL     1      -1.260   6.852 -32.963  1.00  0.00     0.009 A 
HETATM   23  C   UNL     1      -1.303   6.016 -34.081  1.00  0.00     0.003 A 
HETATM   24  C   UNL     1      -2.100   4.866 -34.078  1.00  0.00     0.029 A 
BRANCH  21  25
HETATM   25  C   UNL     1      -2.011   7.409 -30.602  1.00  0.00     0.272 C 
BRANCH  25  26
HETATM   26  N   UNL     1      -2.518   8.822 -30.814  1.00  0.00    -0.075 N 
HETATM   27  C   UNL     1      -2.167   9.770 -29.697  1.00  0.00     0.269 C 
HETATM   28  H   UNL     1      -2.044   9.173 -31.654  1.00  0.00     0.279 HD
HETATM   29  C   UNL     1      -3.995   8.832 -31.085  1.00  0.00     0.269 C 
ENDBRANCH  25  26
ENDBRANCH  21  25
ENDBRANCH   1  19
TORSDOF 6
ENDMDL
MODEL 4
REMARK VINA RESULT:      -8.0      2.135      9.367
REMARK  6 active torsions:
REMARK  status: ('A' for Active; 'I' for Inactive)
REMARK    1  A    between atoms: N_2  and  C_4 
REMARK    2  A    between atoms: C_4  and  C_5 
REMARK    3  A    between atoms: C_7  and  N_8 
REMARK       I    between atoms: N_8  and  C_9 
REMARK    4  A    between atoms: C_9  and  C_10 
REMARK    5  A    between atoms: C_12  and  C_13 
REMARK    6  A    between atoms: C_20  and  C_21 
ROOT
HETATM    1  N   UNL     1      -3.600   3.411 -31.237  1.00  0.00    -0.322 N 
HETATM    2  C   UNL     1      -3.969   4.676 -31.669  1.00  0.00     0.277 C 
HETATM    3  O   UNL     1      -5.025   4.946 -32.236  1.00  0.00    -0.266 OA
HETATM    4  H   UNL     1      -2.637   3.340 -30.912  1.00  0.00     0.169 HD
ENDROOT
BRANCH   2   5
HETATM    5  C   UNL     1      -2.931   5.670 -31.415  1.00  0.00     0.157 A 
HETATM    6  N   UNL     1      -2.550   6.041 -30.127  1.00  0.00    -0.216 NA
HETATM    7  C   UNL     1      -1.615   6.954 -30.321  1.00  0.00     0.180 A 
HETATM    8  O   UNL     1      -1.346   7.203 -31.639  1.00  0.00    -0.293 OA
HETATM    9  C   UNL     1      -2.187   6.382 -32.336  1.00  0.00     0.094 A 
BRANCH   7  10
HETATM   10  C   UNL     1      -0.846   7.726 -29.348  1.00  0.00     0.017 A 
HETATM   11  C   UNL     1      -1.461   8.764 -28.632  1.00  0.00     0.016 A 
HETATM   12  C   UNL     1      -0.740   9.516 -27.701  1.00  0.00     0.001 A 
HETATM   13  C   UNL     1       0.607   9.241 -27.475  1.00  0.00     0.000 A 
HETATM   14  C   UNL     1       1.233   8.215 -28.177  1.00  0.00     0.001 A 
HETATM   15  C   UNL     1       0.512   7.462 -29.107  1.00  0.00     0.016 A 
ENDBRANCH   7  10
BRANCH   9  16
HETATM   16  C   UNL     1      -2.243   6.320 -33.852  1.00  0.00     0.046 A 
HETATM   17  C   UNL     1      -0.993   5.882 -34.586  1.00  0.00     0.012 A 
HETATM   18  C   UNL     1      -2.158   4.956 -34.506  1.00  0.00     0.012 A 
ENDBRANCH   9  16
ENDBRANCH   2   5
BRANCH   1  19
HETATM   19  C   UNL     1      -4.372   2.238 -31.319  1.00  0.00     0.035 A 
HETATM   20  C   UNL     1      -4.285   1.355 -32.397  1.00  0.00     0.038 A 
HETATM   21  C   UNL     1      -4.990   0.142 -32.414  1.00  0.00    -0.030 A 
HETATM   22  C   UNL     1      -5.837  -0.160 -31.343  1.00  0.00     0.009 A 
HETATM   23  C   UNL     1      -5.979   0.747 -30.290  1.00  0.00     0.003 A 
HETATM   24  C   UNL     1      -5.251   1.942 -30.279  1.00  0.00     0.029 A 
BRANCH  21  25
HETATM   25  C   UNL     1      -4.777  -0.814 -33.556  1.00  0.00     0.272 C 
BRANCH  25  26
HETATM   26  N   UNL     1      -6.059  -1.421 -34.091  1.00  0.00    -0.075 N 
HETATM   27  C   UNL     1      -5.862  -2.744 -34.785  1.00  0.00     0.269 C 
HETATM   28  H   UNL     1      -6.651  -1.606 -33.273  1.00  0.00     0.279 HD
HETATM   29  C   UNL     1      -6.790  -0.451 -34.975  1.00  0.00     0.269 C 
ENDBRANCH  25  26
ENDBRANCH  21  25
ENDBRANCH   1  19
TORSDOF 6
ENDMDL
MODEL 5
REMARK VINA RESULT:      -7.9      3.698      7.479
REMARK  6 active torsions:
REMARK  status: ('A' for Active; 'I' for Inactive)
REMARK    1  A    between atoms: N_2  and  C_4 
REMARK    2  A    between atoms: C_4  and  C_5 
REMARK    3  A    between atoms: C_7  and  N_8 
REMARK       I    between atoms: N_8  and  C_9 
REMARK    4  A    between atoms: C_9  and  C_10 
REMARK    5  A    between atoms: C_12  and  C_13 
REMARK    6  A    between atoms: C_20  and  C_21 
ROOT
HETATM    1  N   UNL     1      -8.842   1.919 -32.441  1.00  0.00    -0.322 N 
HETATM    2  C   UNL     1      -7.792   2.234 -33.290  1.00  0.00     0.277 C 
HETATM    3  O   UNL     1      -7.696   3.276 -33.934  1.00  0.00    -0.266 OA
HETATM    4  H   UNL     1      -8.832   0.962 -32.094  1.00  0.00     0.169 HD
ENDROOT
BRANCH   2   5
HETATM    5  C   UNL     1      -6.811   1.158 -33.377  1.00  0.00     0.157 A 
HETATM    6  N   UNL     1      -7.134  -0.111 -33.851  1.00  0.00    -0.216 NA
HETATM    7  C   UNL     1      -6.001  -0.785 -33.760  1.00  0.00     0.180 A 
HETATM    8  O   UNL     1      -4.955  -0.050 -33.272  1.00  0.00    -0.293 OA
HETATM    9  C   UNL     1      -5.474   1.190 -33.028  1.00  0.00     0.094 A 
BRANCH   7  10
HETATM   10  C   UNL     1      -5.711  -2.177 -34.094  1.00  0.00     0.017 A 
HETATM   11  C   UNL     1      -6.715  -2.990 -34.642  1.00  0.00     0.016 A 
HETATM   12  C   UNL     1      -6.459  -4.326 -34.963  1.00  0.00     0.001 A 
HETATM   13  C   UNL     1      -5.195  -4.867 -34.738  1.00  0.00     0.000 A 
HETATM   14  C   UNL     1      -4.187  -4.075 -34.194  1.00  0.00     0.001 A 
HETATM   15  C   UNL     1      -4.444  -2.739 -33.874  1.00  0.00     0.016 A 
ENDBRANCH   7  10
BRANCH   9  16
HETATM   16  C   UNL     1      -4.668   2.349 -32.469  1.00  0.00     0.046 A 
HETATM   17  C   UNL     1      -4.606   2.503 -30.963  1.00  0.00     0.012 A 
HETATM   18  C   UNL     1      -3.403   2.023 -31.701  1.00  0.00     0.012 A 
ENDBRANCH   9  16
ENDBRANCH   2   5
BRANCH   1  19
HETATM   19  C   UNL     1      -9.940   2.739 -32.125  1.00  0.00     0.035 A 
HETATM   20  C   UNL     1     -11.079   2.811 -32.930  1.00  0.00     0.038 A 
HETATM   21  C   UNL     1     -12.205   3.558 -32.548  1.00  0.00    -0.030 A 
HETATM   22  C   UNL     1     -12.157   4.286 -31.355  1.00  0.00     0.009 A 
HETATM   23  C   UNL     1     -10.998   4.270 -30.575  1.00  0.00     0.003 A 
HETATM   24  C   UNL     1      -9.894   3.502 -30.960  1.00  0.00     0.029 A 
BRANCH  21  25
HETATM   25  C   UNL     1     -13.439   3.515 -33.407  1.00  0.00     0.272 C 
BRANCH  25  26
HETATM   26  N   UNL     1     -13.320   4.321 -34.686  1.00  0.00    -0.075 N 
HETATM   27  C   UNL     1     -12.524   3.636 -35.766  1.00  0.00     0.269 C 
HETATM   28  H   UNL     1     -14.275   4.424 -35.049  1.00  0.00     0.279 HD
HETATM   29  C   UNL     1     -12.785   5.697 -34.411  1.00  0.00     0.269 C 
ENDBRANCH  25  26
ENDBRANCH  21  25
ENDBRANCH   1  19
TORSDOF 6
ENDMDL
MODEL 6
REMARK VINA RESULT:      -7.9      1.650      3.734
REMARK  6 active torsions:
REMARK  status: ('A' for Active; 'I' for Inactive)
REMARK    1  A    between atoms: N_2  and  C_4 
REMARK    2  A    between atoms: C_4  and  C_5 
REMARK    3  A    between atoms: C_7  and  N_8 
REMARK       I    between atoms: N_8  and  C_9 
REMARK    4  A    between atoms: C_9  and  C_10 
REMARK    5  A    between atoms: C_12  and  C_13 
REMARK    6  A    between atoms: C_20  and  C_21 
ROOT
HETATM    1  N   UNL     1      -3.556   3.542 -32.841  1.00  0.00    -0.322 N 
HETATM    2  C   UNL     1      -3.678   2.341 -32.157  1.00  0.00     0.277 C 
HETATM    3  O   UNL     1      -2.889   1.931 -31.309  1.00  0.00    -0.266 OA
HETATM    4  H   UNL     1      -4.220   3.662 -33.604  1.00  0.00     0.169 HD
ENDROOT
BRANCH   2   5
HETATM    5  C   UNL     1      -4.843   1.576 -32.590  1.00  0.00     0.157 A 
HETATM    6  N   UNL     1      -6.126   2.117 -32.616  1.00  0.00    -0.216 NA
HETATM    7  C   UNL     1      -6.883   1.122 -33.045  1.00  0.00     0.180 A 
HETATM    8  O   UNL     1      -6.192  -0.028 -33.312  1.00  0.00    -0.293 OA
HETATM    9  C   UNL     1      -4.889   0.264 -33.022  1.00  0.00     0.094 A 
BRANCH   7  10
HETATM   10  C   UNL     1      -8.327   1.074 -33.264  1.00  0.00     0.017 A 
HETATM   11  C   UNL     1      -8.953   2.070 -34.029  1.00  0.00     0.016 A 
HETATM   12  C   UNL     1     -10.333   2.044 -34.245  1.00  0.00     0.001 A 
HETATM   13  C   UNL     1     -11.106   1.022 -33.697  1.00  0.00     0.000 A 
HETATM   14  C   UNL     1     -10.501   0.026 -32.936  1.00  0.00     0.001 A 
HETATM   15  C   UNL     1      -9.121   0.052 -32.720  1.00  0.00     0.016 A 
ENDBRANCH   7  10
BRANCH   9  16
HETATM   16  C   UNL     1      -3.749  -0.729 -33.167  1.00  0.00     0.046 A 
HETATM   17  C   UNL     1      -3.520  -1.710 -32.035  1.00  0.00     0.012 A 
HETATM   18  C   UNL     1      -4.103  -2.193 -33.318  1.00  0.00     0.012 A 
ENDBRANCH   9  16
ENDBRANCH   2   5
BRANCH   1  19
HETATM   19  C   UNL     1      -2.558   4.515 -32.655  1.00  0.00     0.035 A 
HETATM   20  C   UNL     1      -1.970   4.760 -31.413  1.00  0.00     0.038 A 
HETATM   21  C   UNL     1      -0.907   5.665 -31.267  1.00  0.00    -0.030 A 
HETATM   22  C   UNL     1      -0.466   6.372 -32.389  1.00  0.00     0.009 A 
HETATM   23  C   UNL     1      -1.091   6.180 -33.624  1.00  0.00     0.003 A 
HETATM   24  C   UNL     1      -2.134   5.257 -33.756  1.00  0.00     0.029 A 
BRANCH  21  25
HETATM   25  C   UNL     1      -0.248   5.811 -29.923  1.00  0.00     0.272 C 
BRANCH  25  26
HETATM   26  N   UNL     1      -0.248   7.231 -29.393  1.00  0.00    -0.075 N 
HETATM   27  C   UNL     1       0.761   7.475 -28.301  1.00  0.00     0.269 C 
HETATM   28  H   UNL     1       0.024   7.830 -30.181  1.00  0.00     0.279 HD
HETATM   29  C   UNL     1      -1.625   7.646 -28.957  1.00  0.00     0.269 C 
ENDBRANCH  25  26
ENDBRANCH  21  25
ENDBRANCH   1  19
TORSDOF 6
ENDMDL
MODEL 7
REMARK VINA RESULT:      -7.8      3.281      5.504
REMARK  6 active torsions:
REMARK  status: ('A' for Active; 'I' for Inactive)
REMARK    1  A    between atoms: N_2  and  C_4 
REMARK    2  A    between atoms: C_4  and  C_5 
REMARK    3  A    between atoms: C_7  and  N_8 
REMARK       I    between atoms: N_8  and  C_9 
REMARK    4  A    between atoms: C_9  and  C_10 
REMARK    5  A    between atoms: C_12  and  C_13 
REMARK    6  A    between atoms: C_20  and  C_21 
ROOT
HETATM    1  N   UNL     1      -6.615   3.054 -32.131  1.00  0.00    -0.322 N 
HETATM    2  C   UNL     1      -7.068   1.891 -31.526  1.00  0.00     0.277 C 
HETATM    3  O   UNL     1      -6.617   1.418 -30.485  1.00  0.00    -0.266 OA
HETATM    4  H   UNL     1      -7.004   3.228 -33.056  1.00  0.00     0.169 HD
ENDROOT
BRANCH   2   5
HETATM    5  C   UNL     1      -8.129   1.247 -32.293  1.00  0.00     0.157 A 
HETATM    6  N   UNL     1      -9.410   1.783 -32.393  1.00  0.00    -0.216 NA
HETATM    7  C   UNL     1     -10.062   0.914 -33.146  1.00  0.00     0.180 A 
HETATM    8  O   UNL     1      -9.302  -0.146 -33.557  1.00  0.00    -0.293 OA
HETATM    9  C   UNL     1      -8.067   0.068 -33.012  1.00  0.00     0.094 A 
BRANCH   7  10
HETATM   10  C   UNL     1     -11.454   0.921 -33.589  1.00  0.00     0.017 A 
HETATM   11  C   UNL     1     -11.976   2.046 -34.245  1.00  0.00     0.016 A 
HETATM   12  C   UNL     1     -13.306   2.073 -34.671  1.00  0.00     0.001 A 
HETATM   13  C   UNL     1     -14.134   0.975 -34.445  1.00  0.00     0.000 A 
HETATM   14  C   UNL     1     -13.633  -0.149 -33.794  1.00  0.00     0.001 A 
HETATM   15  C   UNL     1     -12.302  -0.177 -33.369  1.00  0.00     0.016 A 
ENDBRANCH   7  10
BRANCH   9  16
HETATM   16  C   UNL     1      -6.886  -0.868 -33.200  1.00  0.00     0.046 A 
HETATM   17  C   UNL     1      -6.598  -1.365 -34.602  1.00  0.00     0.012 A 
HETATM   18  C   UNL     1      -5.696  -0.352 -33.983  1.00  0.00     0.012 A 
ENDBRANCH   9  16
ENDBRANCH   2   5
BRANCH   1  19
HETATM   19  C   UNL     1      -5.615   3.917 -31.647  1.00  0.00     0.035 A 
HETATM   20  C   UNL     1      -4.322   3.937 -32.171  1.00  0.00     0.038 A 
HETATM   21  C   UNL     1      -3.367   4.872 -31.743  1.00  0.00    -0.030 A 
HETATM   22  C   UNL     1      -3.713   5.771 -30.729  1.00  0.00     0.009 A 
HETATM   23  C   UNL     1      -4.985   5.717 -30.154  1.00  0.00     0.003 A 
HETATM   24  C   UNL     1      -5.931   4.793 -30.609  1.00  0.00     0.029 A 
BRANCH  21  25
HETATM   25  C   UNL     1      -2.023   4.909 -32.417  1.00  0.00     0.272 C 
BRANCH  25  26
HETATM   26  N   UNL     1      -1.965   5.835 -33.615  1.00  0.00    -0.075 N 
HETATM   27  C   UNL     1      -1.635   5.137 -34.909  1.00  0.00     0.269 C 
HETATM   28  H   UNL     1      -2.910   6.221 -33.725  1.00  0.00     0.279 HD
HETATM   29  C   UNL     1      -1.028   6.983 -33.368  1.00  0.00     0.269 C 
ENDBRANCH  25  26
ENDBRANCH  21  25
ENDBRANCH   1  19
TORSDOF 6
ENDMDL
MODEL 8
REMARK VINA RESULT:      -7.8      2.967      8.771
REMARK  6 active torsions:
REMARK  status: ('A' for Active; 'I' for Inactive)
REMARK    1  A    between atoms: N_2  and  C_4 
REMARK    2  A    between atoms: C_4  and  C_5 
REMARK    3  A    between atoms: C_7  and  N_8 
REMARK       I    between atoms: N_8  and  C_9 
REMARK    4  A    between atoms: C_9  and  C_10 
REMARK    5  A    between atoms: C_12  and  C_13 
REMARK    6  A    between atoms: C_20  and  C_21 
ROOT
HETATM    1  N   UNL     1      -6.855   2.037 -32.508  1.00  0.00    -0.322 N 
HETATM    2  C   UNL     1      -6.380   2.518 -31.297  1.00  0.00     0.277 C 
HETATM    3  O   UNL     1      -7.071   2.723 -30.302  1.00  0.00    -0.266 OA
HETATM    4  H   UNL     1      -6.175   2.055 -33.265  1.00  0.00     0.169 HD
ENDROOT
BRANCH   2   5
HETATM    5  C   UNL     1      -4.950   2.804 -31.340  1.00  0.00     0.157 A 
HETATM    6  N   UNL     1      -4.451   4.094 -31.503  1.00  0.00    -0.216 NA
HETATM    7  C   UNL     1      -3.139   3.931 -31.504  1.00  0.00     0.180 A 
HETATM    8  O   UNL     1      -2.740   2.632 -31.343  1.00  0.00    -0.293 OA
HETATM    9  C   UNL     1      -3.898   1.914 -31.238  1.00  0.00     0.094 A 
BRANCH   7  10
HETATM   10  C   UNL     1      -2.074   4.920 -31.655  1.00  0.00     0.017 A 
HETATM   11  C   UNL     1      -2.114   5.835 -32.718  1.00  0.00     0.016 A 
HETATM   12  C   UNL     1      -1.102   6.785 -32.882  1.00  0.00     0.001 A 
HETATM   13  C   UNL     1      -0.035   6.830 -31.986  1.00  0.00     0.000 A 
HETATM   14  C   UNL     1       0.020   5.928 -30.927  1.00  0.00     0.001 A 
HETATM   15  C   UNL     1      -0.993   4.979 -30.762  1.00  0.00     0.016 A 
ENDBRANCH   7  10
BRANCH   9  16
HETATM   16  C   UNL     1      -3.944   0.408 -31.049  1.00  0.00     0.046 A 
HETATM   17  C   UNL     1      -3.957  -0.458 -32.291  1.00  0.00     0.012 A 
HETATM   18  C   UNL     1      -2.724  -0.392 -31.457  1.00  0.00     0.012 A 
ENDBRANCH   9  16
ENDBRANCH   2   5
BRANCH   1  19
HETATM   19  C   UNL     1      -8.177   1.653 -32.797  1.00  0.00     0.035 A 
HETATM   20  C   UNL     1      -9.055   2.466 -33.515  1.00  0.00     0.038 A 
HETATM   21  C   UNL     1     -10.337   2.025 -33.880  1.00  0.00    -0.030 A 
HETATM   22  C   UNL     1     -10.755   0.757 -33.466  1.00  0.00     0.009 A 
HETATM   23  C   UNL     1      -9.907  -0.039 -32.693  1.00  0.00     0.003 A 
HETATM   24  C   UNL     1      -8.624   0.407 -32.358  1.00  0.00     0.029 A 
BRANCH  21  25
HETATM   25  C   UNL     1     -11.199   2.909 -34.739  1.00  0.00     0.272 C 
BRANCH  25  26
HETATM   26  N   UNL     1     -11.960   3.963 -33.961  1.00  0.00    -0.075 N 
HETATM   27  C   UNL     1     -13.290   3.490 -33.433  1.00  0.00     0.269 C 
HETATM   28  H   UNL     1     -11.383   4.186 -33.142  1.00  0.00     0.279 HD
HETATM   29  C   UNL     1     -12.117   5.222 -34.766  1.00  0.00     0.269 C 
ENDBRANCH  25  26
ENDBRANCH  21  25
ENDBRANCH   1  19
TORSDOF 6
ENDMDL
MODEL 9
REMARK VINA RESULT:      -7.8      1.766      2.189
REMARK  6 active torsions:
REMARK  status: ('A' for Active; 'I' for Inactive)
REMARK    1  A    between atoms: N_2  and  C_4 
REMARK    2  A    between atoms: C_4  and  C_5 
REMARK    3  A    between atoms: C_7  and  N_8 
REMARK       I    between atoms: N_8  and  C_9 
REMARK    4  A    between atoms: C_9  and  C_10 
REMARK    5  A    between atoms: C_12  and  C_13 
REMARK    6  A    between atoms: C_20  and  C_21 
ROOT
HETATM    1  N   UNL     1      -3.378   4.114 -32.518  1.00  0.00    -0.322 N 
HETATM    2  C   UNL     1      -4.299   3.526 -31.665  1.00  0.00     0.277 C 
HETATM    3  O   UNL     1      -4.446   3.817 -30.480  1.00  0.00    -0.266 OA
HETATM    4  H   UNL     1      -3.295   3.661 -33.426  1.00  0.00     0.169 HD
ENDROOT
BRANCH   2   5
HETATM    5  C   UNL     1      -5.064   2.470 -32.321  1.00  0.00     0.157 A 
HETATM    6  N   UNL     1      -4.527   1.213 -32.585  1.00  0.00    -0.216 NA
HETATM    7  C   UNL     1      -5.510   0.566 -33.188  1.00  0.00     0.180 A 
HETATM    8  O   UNL     1      -6.655   1.301 -33.329  1.00  0.00    -0.293 OA
HETATM    9  C   UNL     1      -6.368   2.517 -32.774  1.00  0.00     0.094 A 
BRANCH   7  10
HETATM   10  C   UNL     1      -5.546  -0.794 -33.720  1.00  0.00     0.017 A 
HETATM   11  C   UNL     1      -6.763  -1.347 -34.148  1.00  0.00     0.016 A 
HETATM   12  C   UNL     1      -6.817  -2.648 -34.654  1.00  0.00     0.001 A 
HETATM   13  C   UNL     1      -5.656  -3.415 -34.738  1.00  0.00     0.000 A 
HETATM   14  C   UNL     1      -4.442  -2.881 -34.317  1.00  0.00     0.001 A 
HETATM   15  C   UNL     1      -4.387  -1.580 -33.811  1.00  0.00     0.016 A 
ENDBRANCH   7  10
BRANCH   9  16
HETATM   16  C   UNL     1      -7.355   3.669 -32.708  1.00  0.00     0.046 A 
HETATM   17  C   UNL     1      -7.285   4.721 -33.795  1.00  0.00     0.012 A 
HETATM   18  C   UNL     1      -8.417   3.752 -33.785  1.00  0.00     0.012 A 
ENDBRANCH   9  16
ENDBRANCH   2   5
BRANCH   1  19
HETATM   19  C   UNL     1      -2.498   5.166 -32.206  1.00  0.00     0.035 A 
HETATM   20  C   UNL     1      -2.934   6.479 -32.016  1.00  0.00     0.038 A 
HETATM   21  C   UNL     1      -2.055   7.494 -31.608  1.00  0.00    -0.030 A 
HETATM   22  C   UNL     1      -0.702   7.187 -31.439  1.00  0.00     0.009 A 
HETATM   23  C   UNL     1      -0.246   5.891 -31.688  1.00  0.00     0.003 A 
HETATM   24  C   UNL     1      -1.139   4.885 -32.072  1.00  0.00     0.029 A 
BRANCH  21  25
HETATM   25  C   UNL     1      -2.603   8.866 -31.322  1.00  0.00     0.272 C 
BRANCH  25  26
HETATM   26  N   UNL     1      -2.239   9.396 -29.950  1.00  0.00    -0.075 N 
HETATM   27  C   UNL     1      -2.951   8.701 -28.819  1.00  0.00     0.269 C 
HETATM   28  H   UNL     1      -1.238   9.205 -29.826  1.00  0.00     0.279 HD
HETATM   29  C   UNL     1      -2.432  10.884 -29.876  1.00  0.00     0.269 C 
ENDBRANCH  25  26
ENDBRANCH  21  25
ENDBRANCH   1  19
TORSDOF 6
ENDMDL
MODEL 10
REMARK VINA RESULT:      -7.6      2.173      8.939
REMARK  6 active torsions:
REMARK  status: ('A' for Active; 'I' for Inactive)
REMARK    1  A    between atoms: N_2  and  C_4 
REMARK    2  A    between atoms: C_4  and  C_5 
REMARK    3  A    between atoms: C_7  and  N_8 
REMARK       I    between atoms: N_8  and  C_9 
REMARK    4  A    between atoms: C_9  and  C_10 
REMARK    5  A    between atoms: C_12  and  C_13 
REMARK    6  A    between atoms: C_20  and  C_21 
ROOT
HETATM    1  N   UNL     1      -3.990   3.972 -31.800  1.00  0.00    -0.322 N 
HETATM    2  C   UNL     1      -2.776   4.530 -32.172  1.00  0.00     0.277 C 
HETATM    3  O   UNL     1      -2.104   4.173 -33.136  1.00  0.00    -0.266 OA
HETATM    4  H   UNL     1      -4.344   4.292 -30.901  1.00  0.00     0.169 HD
ENDROOT
BRANCH   2   5
HETATM    5  C   UNL     1      -2.346   5.578 -31.253  1.00  0.00     0.157 A 
HETATM    6  N   UNL     1      -1.263   5.419 -30.391  1.00  0.00    -0.216 NA
HETATM    7  C   UNL     1      -1.211   6.563 -29.730  1.00  0.00     0.180 A 
HETATM    8  O   UNL     1      -2.170   7.465 -30.102  1.00  0.00    -0.293 OA
HETATM    9  C   UNL     1      -2.894   6.834 -31.074  1.00  0.00     0.094 A 
BRANCH   7  10
HETATM   10  C   UNL     1      -0.295   6.992 -28.676  1.00  0.00     0.017 A 
HETATM   11  C   UNL     1       0.679   7.966 -28.947  1.00  0.00     0.016 A 
HETATM   12  C   UNL     1       1.567   8.385 -27.953  1.00  0.00     0.001 A 
HETATM   13  C   UNL     1       1.495   7.834 -26.675  1.00  0.00     0.000 A 
HETATM   14  C   UNL     1       0.536   6.866 -26.390  1.00  0.00     0.001 A 
HETATM   15  C   UNL     1      -0.353   6.448 -27.384  1.00  0.00     0.016 A 
ENDBRANCH   7  10
BRANCH   9  16
HETATM   16  C   UNL     1      -4.081   7.461 -31.785  1.00  0.00     0.046 A 
HETATM   17  C   UNL     1      -5.454   7.255 -31.181  1.00  0.00     0.012 A 
HETATM   18  C   UNL     1      -4.805   8.593 -31.085  1.00  0.00     0.012 A 
ENDBRANCH   9  16
ENDBRANCH   2   5
BRANCH   1  19
HETATM   19  C   UNL     1      -4.686   2.953 -32.475  1.00  0.00     0.035 A 
HETATM   20  C   UNL     1      -4.524   1.601 -32.168  1.00  0.00     0.038 A 
HETATM   21  C   UNL     1      -5.300   0.607 -32.784  1.00  0.00    -0.030 A 
HETATM   22  C   UNL     1      -6.222   0.985 -33.765  1.00  0.00     0.009 A 
HETATM   23  C   UNL     1      -6.347   2.329 -34.124  1.00  0.00     0.003 A 
HETATM   24  C   UNL     1      -5.581   3.309 -33.483  1.00  0.00     0.029 A 
BRANCH  21  25
HETATM   25  C   UNL     1      -5.149  -0.822 -32.339  1.00  0.00     0.272 C 
BRANCH  25  26
HETATM   26  N   UNL     1      -3.997  -1.549 -33.001  1.00  0.00    -0.075 N 
HETATM   27  C   UNL     1      -4.427  -2.567 -34.026  1.00  0.00     0.269 C 
HETATM   28  H   UNL     1      -3.460  -0.835 -33.506  1.00  0.00     0.279 HD
HETATM   29  C   UNL     1      -3.086  -2.167 -31.978  1.00  0.00     0.269 C 
ENDBRANCH  25  26
ENDBRANCH  21  25
ENDBRANCH   1  19
TORSDOF 6
ENDMDL
