MODEL 1
REMARK VINA RESULT:      -8.6      0.000      0.000
REMARK  4 active torsions:
REMARK  status: ('A' for Active; 'I' for Inactive)
REMARK    1  A    between atoms: C_2  and  O_3 
REMARK    2  A    between atoms: O_3  and  C_4 
REMARK    3  A    between atoms: C_11  and  C_12 
REMARK    4  A    between atoms: C_16  and  N_17 
ROOT
HETATM    1  C   UNL     1     -10.582   3.523 -33.262  1.00  0.00     0.108 C 
HETATM    2  C   UNL     1     -10.045   4.898 -33.665  1.00  0.00     0.067 C 
HETATM    3  C   UNL     1      -9.625   5.828 -32.538  1.00  0.00     0.020 C 
HETATM    4  N   UNL     1      -9.277   6.599 -31.604  1.00  0.00    -0.096 N 
HETATM    5  C   UNL     1     -10.094   5.380 -34.938  1.00  0.00     0.139 C 
HETATM    6  O   UNL     1     -10.658   4.634 -35.992  1.00  0.00    -0.279 OA
HETATM    7  C   UNL     1     -11.293   3.522 -35.641  1.00  0.00     0.175 A 
HETATM    8  C   UNL     1     -11.334   2.927 -34.406  1.00  0.00     0.034 A 
HETATM    9  N   UNL     1     -12.056   2.766 -36.470  1.00  0.00    -0.256 N 
HETATM   10  H   UNL     1     -12.255   2.912 -37.453  1.00  0.00     0.191 HD
HETATM   11  N   UNL     1     -12.616   1.712 -35.841  1.00  0.00    -0.177 NA
HETATM   12  C   UNL     1     -12.188   1.812 -34.572  1.00  0.00     0.062 A 
HETATM   13  C   UNL     1     -12.616   0.819 -33.557  1.00  0.00     0.073 C 
ENDROOT
BRANCH   1  14
HETATM   14  C   UNL     1      -9.484   2.524 -32.951  1.00  0.00    -0.003 A 
HETATM   15  C   UNL     1      -8.993   2.317 -31.665  1.00  0.00     0.134 A 
HETATM   16  N   UNL     1      -8.057   1.400 -31.332  1.00  0.00    -0.235 NA
HETATM   17 CL   UNL     1      -9.539   3.205 -30.296  1.00  0.00    -0.062 Cl
HETATM   18  C   UNL     1      -7.558   0.618 -32.301  1.00  0.00     0.069 A 
HETATM   19  C   UNL     1      -7.960   0.741 -33.642  1.00  0.00    -0.004 A 
HETATM   20  C   UNL     1      -6.620  -0.356 -31.990  1.00  0.00     0.035 A 
HETATM   21  C   UNL     1      -7.424  -0.109 -34.624  1.00  0.00     0.050 A 
HETATM   22  C   UNL     1      -8.917   1.715 -33.953  1.00  0.00     0.025 A 
HETATM   23  C   UNL     1      -6.494  -1.094 -34.289  1.00  0.00     0.069 A 
HETATM   24  C   UNL     1      -6.087  -1.211 -32.965  1.00  0.00     0.039 A 
BRANCH  23  25
HETATM   25  O   UNL     1      -6.073  -1.860 -35.337  1.00  0.00    -0.351 OA
BRANCH  25  26
HETATM   26  C   UNL     1      -5.525  -3.141 -35.029  1.00  0.00     0.171 C 
HETATM   27  C   UNL     1      -6.656  -4.152 -35.054  1.00  0.00     0.034 C 
ENDBRANCH  25  26
ENDBRANCH  23  25
ENDBRANCH   1  14
BRANCH   5  28
HETATM   28  N   UNL     1      -9.653   6.618 -35.340  1.00  0.00    -0.282 NA
HETATM   29  H   UNL     1      -9.851   7.392 -34.709  1.00  0.00     0.126 HD
HETATM   30  H   UNL     1      -8.689   6.603 -35.666  1.00  0.00     0.126 HD
ENDBRANCH   5  28
TORSDOF 4
ENDMDL
MODEL 2
REMARK VINA RESULT:      -8.2      3.757      5.514
REMARK  4 active torsions:
REMARK  status: ('A' for Active; 'I' for Inactive)
REMARK    1  A    between atoms: C_2  and  O_3 
REMARK    2  A    between atoms: O_3  and  C_4 
REMARK    3  A    between atoms: C_11  and  C_12 
REMARK    4  A    between atoms: C_16  and  N_17 
ROOT
HETATM    1  C   UNL     1      -6.824   4.221 -32.194  1.00  0.00     0.108 C 
HETATM    2  C   UNL     1      -7.378   4.240 -30.768  1.00  0.00     0.067 C 
HETATM    3  C   UNL     1      -8.886   4.361 -30.620  1.00  0.00     0.020 C 
HETATM    4  N   UNL     1     -10.137   4.461 -30.496  1.00  0.00    -0.096 N 
HETATM    5  C   UNL     1      -6.594   4.333 -29.658  1.00  0.00     0.139 C 
HETATM    6  O   UNL     1      -5.192   4.425 -29.748  1.00  0.00    -0.279 OA
HETATM    7  C   UNL     1      -4.698   4.596 -30.969  1.00  0.00     0.175 A 
HETATM    8  C   UNL     1      -5.365   4.534 -32.165  1.00  0.00     0.034 A 
HETATM    9  N   UNL     1      -3.403   4.891 -31.252  1.00  0.00    -0.256 N 
HETATM   10  H   UNL     1      -2.630   5.018 -30.609  1.00  0.00     0.191 HD
HETATM   11  N   UNL     1      -3.185   5.047 -32.574  1.00  0.00    -0.177 NA
HETATM   12  C   UNL     1      -4.386   4.843 -33.139  1.00  0.00     0.062 A 
HETATM   13  C   UNL     1      -4.549   4.948 -34.610  1.00  0.00     0.073 C 
ENDROOT
BRANCH   1  14
HETATM   14  C   UNL     1      -6.920   2.857 -32.851  1.00  0.00    -0.003 A 
HETATM   15  C   UNL     1      -7.918   2.526 -33.762  1.00  0.00     0.134 A 
HETATM   16  N   UNL     1      -8.012   1.346 -34.414  1.00  0.00    -0.235 NA
HETATM   17 CL   UNL     1      -9.182   3.607 -34.206  1.00  0.00    -0.062 Cl
HETATM   18  C   UNL     1      -7.075   0.414 -34.181  1.00  0.00     0.069 A 
HETATM   19  C   UNL     1      -6.026   0.620 -33.269  1.00  0.00    -0.004 A 
HETATM   20  C   UNL     1      -7.120  -0.798 -34.857  1.00  0.00     0.035 A 
HETATM   21  C   UNL     1      -5.056  -0.376 -33.066  1.00  0.00     0.050 A 
HETATM   22  C   UNL     1      -5.972   1.848 -32.598  1.00  0.00     0.025 A 
HETATM   23  C   UNL     1      -5.109  -1.581 -33.768  1.00  0.00     0.069 A 
HETATM   24  C   UNL     1      -6.152  -1.792 -34.663  1.00  0.00     0.039 A 
BRANCH  23  25
HETATM   25  O   UNL     1      -4.093  -2.449 -33.487  1.00  0.00    -0.351 OA
BRANCH  25  26
HETATM   26  C   UNL     1      -3.402  -2.265 -32.252  1.00  0.00     0.171 C 
HETATM   27  C   UNL     1      -2.984  -3.632 -31.744  1.00  0.00     0.034 C 
ENDBRANCH  25  26
ENDBRANCH  23  25
ENDBRANCH   1  14
BRANCH   5  28
HETATM   28  N   UNL     1      -7.048   4.384 -28.362  1.00  0.00    -0.282 NA
HETATM   29  H   UNL     1      -6.406   4.046 -27.648  1.00  0.00     0.126 HD
HETATM   30  H   UNL     1      -7.471   5.280 -28.131  1.00  0.00     0.126 HD
ENDBRANCH   5  28
TORSDOF 4
ENDMDL
MODEL 3
REMARK VINA RESULT:      -7.9      4.407      5.750
REMARK  4 active torsions:
REMARK  status: ('A' for Active; 'I' for Inactive)
REMARK    1  A    between atoms: C_2  and  O_3 
REMARK    2  A    between atoms: O_3  and  C_4 
REMARK    3  A    between atoms: C_11  and  C_12 
REMARK    4  A    between atoms: C_16  and  N_17 
ROOT
HETATM    1  C   UNL     1      -7.786   1.393 -32.177  1.00  0.00     0.108 C 
HETATM    2  C   UNL     1      -8.917   2.411 -32.337  1.00  0.00     0.067 C 
HETATM    3  C   UNL     1      -9.482   3.014 -31.061  1.00  0.00     0.020 C 
HETATM    4  N   UNL     1      -9.951   3.515 -30.003  1.00  0.00    -0.096 N 
HETATM    5  C   UNL     1      -9.542   2.659 -33.520  1.00  0.00     0.139 C 
HETATM    6  O   UNL     1      -9.190   1.979 -34.702  1.00  0.00    -0.279 OA
HETATM    7  C   UNL     1      -8.344   0.965 -34.558  1.00  0.00     0.175 A 
HETATM    8  C   UNL     1      -7.651   0.597 -33.433  1.00  0.00     0.034 A 
HETATM    9  N   UNL     1      -8.025   0.072 -35.529  1.00  0.00    -0.256 N 
HETATM   10  H   UNL     1      -8.356   0.036 -36.486  1.00  0.00     0.191 HD
HETATM   11  N   UNL     1      -7.170  -0.878 -35.098  1.00  0.00    -0.177 NA
HETATM   12  C   UNL     1      -6.947  -0.570 -33.810  1.00  0.00     0.062 A 
HETATM   13  C   UNL     1      -6.052  -1.415 -32.982  1.00  0.00     0.073 C 
ENDROOT
BRANCH   1  14
HETATM   14  C   UNL     1      -6.428   2.038 -31.972  1.00  0.00    -0.003 A 
HETATM   15  C   UNL     1      -5.576   1.690 -30.929  1.00  0.00     0.134 A 
HETATM   16  N   UNL     1      -4.337   2.196 -30.739  1.00  0.00    -0.235 NA
HETATM   17 CL   UNL     1      -5.986   0.528 -29.728  1.00  0.00    -0.062 Cl
HETATM   18  C   UNL     1      -3.877   3.099 -31.618  1.00  0.00     0.069 A 
HETATM   19  C   UNL     1      -4.648   3.546 -32.704  1.00  0.00    -0.004 A 
HETATM   20  C   UNL     1      -2.597   3.616 -31.474  1.00  0.00     0.035 A 
HETATM   21  C   UNL     1      -4.122   4.481 -33.611  1.00  0.00     0.050 A 
HETATM   22  C   UNL     1      -5.935   3.014 -32.859  1.00  0.00     0.025 A 
HETATM   23  C   UNL     1      -2.827   4.977 -33.459  1.00  0.00     0.069 A 
HETATM   24  C   UNL     1      -2.065   4.544 -32.379  1.00  0.00     0.039 A 
BRANCH  23  25
HETATM   25  O   UNL     1      -2.438   5.862 -34.422  1.00  0.00    -0.351 OA
BRANCH  25  26
HETATM   26  C   UNL     1      -1.298   6.673 -34.140  1.00  0.00     0.171 C 
HETATM   27  C   UNL     1      -1.727   7.763 -33.177  1.00  0.00     0.034 C 
ENDBRANCH  25  26
ENDBRANCH  23  25
ENDBRANCH   1  14
BRANCH   5  28
HETATM   28  N   UNL     1     -10.581   3.541 -33.705  1.00  0.00    -0.282 NA
HETATM   29  H   UNL     1     -11.147   3.399 -34.538  1.00  0.00     0.126 HD
HETATM   30  H   UNL     1     -11.133   3.677 -32.862  1.00  0.00     0.126 HD
ENDBRANCH   5  28
TORSDOF 4
ENDMDL
MODEL 4
REMARK VINA RESULT:      -7.6      5.895      7.260
REMARK  4 active torsions:
REMARK  status: ('A' for Active; 'I' for Inactive)
REMARK    1  A    between atoms: C_2  and  O_3 
REMARK    2  A    between atoms: O_3  and  C_4 
REMARK    3  A    between atoms: C_11  and  C_12 
REMARK    4  A    between atoms: C_16  and  N_17 
ROOT
HETATM    1  C   UNL     1      -3.520   5.652 -31.960  1.00  0.00     0.108 C 
HETATM    2  C   UNL     1      -2.714   6.130 -30.751  1.00  0.00     0.067 C 
HETATM    3  C   UNL     1      -3.501   6.710 -29.588  1.00  0.00     0.020 C 
HETATM    4  N   UNL     1      -4.154   7.190 -28.622  1.00  0.00    -0.096 N 
HETATM    5  C   UNL     1      -1.355   6.224 -30.744  1.00  0.00     0.139 C 
HETATM    6  O   UNL     1      -0.583   5.886 -31.873  1.00  0.00    -0.279 OA
HETATM    7  C   UNL     1      -1.261   5.645 -32.989  1.00  0.00     0.175 A 
HETATM    8  C   UNL     1      -2.619   5.529 -33.144  1.00  0.00     0.034 A 
HETATM    9  N   UNL     1      -0.708   5.487 -34.218  1.00  0.00    -0.256 N 
HETATM   10  H   UNL     1       0.272   5.517 -34.478  1.00  0.00     0.191 HD
HETATM   11  N   UNL     1      -1.632   5.292 -35.181  1.00  0.00    -0.177 NA
HETATM   12  C   UNL     1      -2.807   5.330 -34.531  1.00  0.00     0.062 A 
HETATM   13  C   UNL     1      -4.080   5.165 -35.276  1.00  0.00     0.073 C 
ENDROOT
BRANCH   1  14
HETATM   14  C   UNL     1      -4.112   4.267 -31.772  1.00  0.00    -0.003 A 
HETATM   15  C   UNL     1      -5.419   4.056 -31.346  1.00  0.00     0.134 A 
HETATM   16  N   UNL     1      -6.006   2.845 -31.217  1.00  0.00    -0.235 NA
HETATM   17 CL   UNL     1      -6.494   5.337 -30.939  1.00  0.00    -0.062 Cl
HETATM   18  C   UNL     1      -5.288   1.754 -31.526  1.00  0.00     0.069 A 
HETATM   19  C   UNL     1      -3.951   1.834 -31.950  1.00  0.00    -0.004 A 
HETATM   20  C   UNL     1      -5.868   0.496 -31.437  1.00  0.00     0.035 A 
HETATM   21  C   UNL     1      -3.240   0.668 -32.278  1.00  0.00     0.050 A 
HETATM   22  C   UNL     1      -3.370   3.105 -32.053  1.00  0.00     0.025 A 
HETATM   23  C   UNL     1      -3.845  -0.587 -32.199  1.00  0.00     0.069 A 
HETATM   24  C   UNL     1      -5.165  -0.670 -31.769  1.00  0.00     0.039 A 
BRANCH  23  25
HETATM   25  O   UNL     1      -3.045  -1.630 -32.567  1.00  0.00    -0.351 OA
BRANCH  25  26
HETATM   26  C   UNL     1      -3.635  -2.929 -32.582  1.00  0.00     0.171 C 
HETATM   27  C   UNL     1      -2.889  -3.792 -31.581  1.00  0.00     0.034 C 
ENDBRANCH  25  26
ENDBRANCH  23  25
ENDBRANCH   1  14
BRANCH   5  28
HETATM   28  N   UNL     1      -0.592   6.675 -29.694  1.00  0.00    -0.282 NA
HETATM   29  H   UNL     1      -0.271   5.968 -29.036  1.00  0.00     0.126 HD
HETATM   30  H   UNL     1       0.144   7.311 -29.991  1.00  0.00     0.126 HD
ENDBRANCH   5  28
TORSDOF 4
ENDMDL
MODEL 5
REMARK VINA RESULT:      -7.4      3.898      5.619
REMARK  4 active torsions:
REMARK  status: ('A' for Active; 'I' for Inactive)
REMARK    1  A    between atoms: C_2  and  O_3 
REMARK    2  A    between atoms: O_3  and  C_4 
REMARK    3  A    between atoms: C_11  and  C_12 
REMARK    4  A    between atoms: C_16  and  N_17 
ROOT
HETATM    1  C   UNL     1      -8.866   1.922 -32.131  1.00  0.00     0.108 C 
HETATM    2  C   UNL     1     -10.037   2.176 -33.083  1.00  0.00     0.067 C 
HETATM    3  C   UNL     1     -11.179   3.027 -32.554  1.00  0.00     0.020 C 
HETATM    4  N   UNL     1     -12.127   3.734 -32.115  1.00  0.00    -0.096 N 
HETATM    5  C   UNL     1     -10.181   1.544 -34.281  1.00  0.00     0.139 C 
HETATM    6  O   UNL     1      -9.248   0.592 -34.734  1.00  0.00    -0.279 OA
HETATM    7  C   UNL     1      -8.326   0.218 -33.854  1.00  0.00     0.175 A 
HETATM    8  C   UNL     1      -8.072   0.756 -32.618  1.00  0.00     0.034 A 
HETATM    9  N   UNL     1      -7.459  -0.812 -34.023  1.00  0.00    -0.256 N 
HETATM   10  H   UNL     1      -7.367  -1.436 -34.817  1.00  0.00     0.191 HD
HETATM   11  N   UNL     1      -6.656  -0.995 -32.954  1.00  0.00    -0.177 NA
HETATM   12  C   UNL     1      -7.036  -0.046 -32.083  1.00  0.00     0.062 A 
HETATM   13  C   UNL     1      -6.378   0.061 -30.758  1.00  0.00     0.073 C 
ENDROOT
BRANCH   1  14
HETATM   14  C   UNL     1      -7.881   3.075 -32.079  1.00  0.00    -0.003 A 
HETATM   15  C   UNL     1      -7.751   3.908 -30.973  1.00  0.00     0.134 A 
HETATM   16  N   UNL     1      -6.850   4.910 -30.859  1.00  0.00    -0.235 NA
HETATM   17 CL   UNL     1      -8.725   3.757 -29.562  1.00  0.00    -0.062 Cl
HETATM   18  C   UNL     1      -6.006   5.126 -31.880  1.00  0.00     0.069 A 
HETATM   19  C   UNL     1      -6.050   4.364 -33.060  1.00  0.00    -0.004 A 
HETATM   20  C   UNL     1      -5.047   6.125 -31.785  1.00  0.00     0.035 A 
HETATM   21  C   UNL     1      -5.137   4.613 -34.099  1.00  0.00     0.050 A 
HETATM   22  C   UNL     1      -7.008   3.347 -33.149  1.00  0.00     0.025 A 
HETATM   23  C   UNL     1      -4.169   5.610 -33.978  1.00  0.00     0.069 A 
HETATM   24  C   UNL     1      -4.131   6.373 -32.816  1.00  0.00     0.039 A 
BRANCH  23  25
HETATM   25  O   UNL     1      -3.337   5.730 -35.054  1.00  0.00    -0.351 OA
BRANCH  25  26
HETATM   26  C   UNL     1      -2.085   5.048 -34.987  1.00  0.00     0.171 C 
HETATM   27  C   UNL     1      -1.072   5.991 -34.365  1.00  0.00     0.034 C 
ENDBRANCH  25  26
ENDBRANCH  23  25
ENDBRANCH   1  14
BRANCH   5  28
HETATM   28  N   UNL     1     -11.229   1.718 -35.153  1.00  0.00    -0.282 NA
HETATM   29  H   UNL     1     -11.080   1.388 -36.105  1.00  0.00     0.126 HD
HETATM   30  H   UNL     1     -12.119   1.421 -34.760  1.00  0.00     0.126 HD
ENDBRANCH   5  28
TORSDOF 4
ENDMDL
MODEL 6
REMARK VINA RESULT:      -7.3      7.532      9.594
REMARK  4 active torsions:
REMARK  status: ('A' for Active; 'I' for Inactive)
REMARK    1  A    between atoms: C_2  and  O_3 
REMARK    2  A    between atoms: O_3  and  C_4 
REMARK    3  A    between atoms: C_11  and  C_12 
REMARK    4  A    between atoms: C_16  and  N_17 
ROOT
HETATM    1  C   UNL     1      -1.816   7.649 -30.326  1.00  0.00     0.108 C 
HETATM    2  C   UNL     1      -2.577   8.563 -29.363  1.00  0.00     0.067 C 
HETATM    3  C   UNL     1      -3.220   9.805 -29.960  1.00  0.00     0.020 C 
HETATM    4  N   UNL     1      -3.753  10.835 -30.455  1.00  0.00    -0.096 N 
HETATM    5  C   UNL     1      -2.553   8.415 -28.010  1.00  0.00     0.139 C 
HETATM    6  O   UNL     1      -1.808   7.394 -27.389  1.00  0.00    -0.279 OA
HETATM    7  C   UNL     1      -0.996   6.704 -28.182  1.00  0.00     0.175 A 
HETATM    8  C   UNL     1      -0.909   6.753 -29.550  1.00  0.00     0.034 A 
HETATM    9  N   UNL     1      -0.064   5.813 -27.758  1.00  0.00    -0.256 N 
HETATM   10  H   UNL     1       0.154   5.532 -26.808  1.00  0.00     0.191 HD
HETATM   11  N   UNL     1       0.649   5.286 -28.774  1.00  0.00    -0.177 NA
HETATM   12  C   UNL     1       0.145   5.868 -29.875  1.00  0.00     0.062 A 
HETATM   13  C   UNL     1       0.697   5.543 -31.213  1.00  0.00     0.073 C 
ENDROOT
BRANCH   1  14
HETATM   14  C   UNL     1      -2.724   6.713 -31.101  1.00  0.00    -0.003 A 
HETATM   15  C   UNL     1      -2.725   6.640 -32.490  1.00  0.00     0.134 A 
HETATM   16  N   UNL     1      -3.474   5.784 -33.220  1.00  0.00    -0.235 NA
HETATM   17 CL   UNL     1      -1.736   7.637 -33.485  1.00  0.00    -0.062 Cl
HETATM   18  C   UNL     1      -4.278   4.928 -32.571  1.00  0.00     0.069 A 
HETATM   19  C   UNL     1      -4.380   4.915 -31.170  1.00  0.00    -0.004 A 
HETATM   20  C   UNL     1      -5.037   4.012 -33.287  1.00  0.00     0.035 A 
HETATM   21  C   UNL     1      -5.222   3.991 -30.528  1.00  0.00     0.050 A 
HETATM   22  C   UNL     1      -3.603   5.829 -30.447  1.00  0.00     0.025 A 
HETATM   23  C   UNL     1      -5.964   3.067 -31.263  1.00  0.00     0.069 A 
HETATM   24  C   UNL     1      -5.874   3.085 -32.651  1.00  0.00     0.039 A 
BRANCH  23  25
HETATM   25  O   UNL     1      -6.724   2.218 -30.511  1.00  0.00    -0.351 OA
BRANCH  25  26
HETATM   26  C   UNL     1      -6.058   1.106 -29.914  1.00  0.00     0.171 C 
HETATM   27  C   UNL     1      -6.301  -0.109 -30.789  1.00  0.00     0.034 C 
ENDBRANCH  25  26
ENDBRANCH  23  25
ENDBRANCH   1  14
BRANCH   5  28
HETATM   28  N   UNL     1      -3.196   9.228 -27.106  1.00  0.00    -0.282 NA
HETATM   29  H   UNL     1      -4.171   9.438 -27.307  1.00  0.00     0.126 HD
HETATM   30  H   UNL     1      -3.036   8.944 -26.143  1.00  0.00     0.126 HD
ENDBRANCH   5  28
TORSDOF 4
ENDMDL
MODEL 7
REMARK VINA RESULT:      -7.2     16.116     18.647
REMARK  4 active torsions:
REMARK  status: ('A' for Active; 'I' for Inactive)
REMARK    1  A    between atoms: C_2  and  O_3 
REMARK    2  A    between atoms: O_3  and  C_4 
REMARK    3  A    between atoms: C_11  and  C_12 
REMARK    4  A    between atoms: C_16  and  N_17 
ROOT
HETATM    1  C   UNL     1      -8.786 -14.080 -39.264  1.00  0.00     0.108 C 
HETATM    2  C   UNL     1      -9.976 -13.747 -40.166  1.00  0.00     0.067 C 
HETATM    3  C   UNL     1     -10.268 -12.274 -40.401  1.00  0.00     0.020 C 
HETATM    4  N   UNL     1     -10.510 -11.052 -40.596  1.00  0.00    -0.096 N 
HETATM    5  C   UNL     1     -10.867 -14.677 -40.608  1.00  0.00     0.139 C 
HETATM    6  O   UNL     1     -10.756 -16.036 -40.255  1.00  0.00    -0.279 OA
HETATM    7  C   UNL     1      -9.847 -16.323 -39.330  1.00  0.00     0.175 A 
HETATM    8  C   UNL     1      -8.898 -15.492 -38.793  1.00  0.00     0.034 A 
HETATM    9  N   UNL     1      -9.709 -17.528 -38.720  1.00  0.00    -0.256 N 
HETATM   10  H   UNL     1     -10.247 -18.375 -38.866  1.00  0.00     0.191 HD
HETATM   11  N   UNL     1      -8.730 -17.530 -37.793  1.00  0.00    -0.177 NA
HETATM   12  C   UNL     1      -8.237 -16.281 -37.822  1.00  0.00     0.062 A 
HETATM   13  C   UNL     1      -7.133 -15.889 -36.912  1.00  0.00     0.073 C 
ENDROOT
BRANCH   1  14
HETATM   14  C   UNL     1      -7.454 -14.011 -39.986  1.00  0.00    -0.003 A 
HETATM   15  C   UNL     1      -6.428 -13.154 -39.598  1.00  0.00     0.134 A 
HETATM   16  N   UNL     1      -5.206 -13.097 -40.175  1.00  0.00    -0.235 NA
HETATM   17 CL   UNL     1      -6.573 -12.045 -38.290  1.00  0.00    -0.062 Cl
HETATM   18  C   UNL     1      -4.946 -13.928 -41.196  1.00  0.00     0.069 A 
HETATM   19  C   UNL     1      -5.905 -14.826 -41.692  1.00  0.00    -0.004 A 
HETATM   20  C   UNL     1      -3.692 -13.920 -41.791  1.00  0.00     0.035 A 
HETATM   21  C   UNL     1      -5.585 -15.690 -42.754  1.00  0.00     0.050 A 
HETATM   22  C   UNL     1      -7.165 -14.844 -41.082  1.00  0.00     0.025 A 
HETATM   23  C   UNL     1      -4.314 -15.680 -43.328  1.00  0.00     0.069 A 
HETATM   24  C   UNL     1      -3.366 -14.784 -42.846  1.00  0.00     0.039 A 
BRANCH  23  25
HETATM   25  O   UNL     1      -4.136 -16.584 -44.335  1.00  0.00    -0.351 OA
BRANCH  25  26
HETATM   26  C   UNL     1      -3.871 -16.064 -45.637  1.00  0.00     0.171 C 
HETATM   27  C   UNL     1      -2.504 -16.562 -46.069  1.00  0.00     0.034 C 
ENDBRANCH  25  26
ENDBRANCH  23  25
ENDBRANCH   1  14
BRANCH   5  28
HETATM   28  N   UNL     1     -11.965 -14.420 -41.394  1.00  0.00    -0.282 NA
HETATM   29  H   UNL     1     -11.948 -14.816 -42.332  1.00  0.00     0.126 HD
HETATM   30  H   UNL     1     -12.842 -14.583 -40.905  1.00  0.00     0.126 HD
ENDBRANCH   5  28
TORSDOF 4
ENDMDL
MODEL 8
REMARK VINA RESULT:      -7.2      3.973      6.723
REMARK  4 active torsions:
REMARK  status: ('A' for Active; 'I' for Inactive)
REMARK    1  A    between atoms: C_2  and  O_3 
REMARK    2  A    between atoms: O_3  and  C_4 
REMARK    3  A    between atoms: C_11  and  C_12 
REMARK    4  A    between atoms: C_16  and  N_17 
ROOT
HETATM    1  C   UNL     1      -7.665   1.169 -32.117  1.00  0.00     0.108 C 
HETATM    2  C   UNL     1      -8.262   0.908 -33.501  1.00  0.00     0.067 C 
HETATM    3  C   UNL     1      -9.727   1.267 -33.695  1.00  0.00     0.020 C 
HETATM    4  N   UNL     1     -10.941   1.565 -33.856  1.00  0.00    -0.096 N 
HETATM    5  C   UNL     1      -7.613   0.224 -34.483  1.00  0.00     0.139 C 
HETATM    6  O   UNL     1      -6.323  -0.307 -34.287  1.00  0.00    -0.279 OA
HETATM    7  C   UNL     1      -5.856  -0.256 -33.045  1.00  0.00     0.175 A 
HETATM    8  C   UNL     1      -6.403   0.386 -31.964  1.00  0.00     0.034 A 
HETATM    9  N   UNL     1      -4.728  -0.872 -32.611  1.00  0.00    -0.256 N 
HETATM   10  H   UNL     1      -4.076  -1.442 -33.139  1.00  0.00     0.191 HD
HETATM   11  N   UNL     1      -4.511  -0.686 -31.292  1.00  0.00    -0.177 NA
HETATM   12  C   UNL     1      -5.541   0.074 -30.887  1.00  0.00     0.062 A 
HETATM   13  C   UNL     1      -5.657   0.481 -29.465  1.00  0.00     0.073 C 
ENDROOT
BRANCH   1  14
HETATM   14  C   UNL     1      -7.258   2.615 -31.907  1.00  0.00    -0.003 A 
HETATM   15  C   UNL     1      -8.014   3.512 -31.158  1.00  0.00     0.134 A 
HETATM   16  N   UNL     1      -7.664   4.792 -30.898  1.00  0.00    -0.235 NA
HETATM   17 CL   UNL     1      -9.516   3.095 -30.430  1.00  0.00    -0.062 Cl
HETATM   18  C   UNL     1      -6.500   5.245 -31.386  1.00  0.00     0.069 A 
HETATM   19  C   UNL     1      -5.656   4.443 -32.172  1.00  0.00    -0.004 A 
HETATM   20  C   UNL     1      -6.093   6.544 -31.111  1.00  0.00     0.035 A 
HETATM   21  C   UNL     1      -4.437   4.953 -32.651  1.00  0.00     0.050 A 
HETATM   22  C   UNL     1      -6.059   3.128 -32.437  1.00  0.00     0.025 A 
HETATM   23  C   UNL     1      -4.037   6.255 -32.350  1.00  0.00     0.069 A 
HETATM   24  C   UNL     1      -4.876   7.054 -31.581  1.00  0.00     0.039 A 
BRANCH  23  25
HETATM   25  O   UNL     1      -2.823   6.611 -32.862  1.00  0.00    -0.351 OA
BRANCH  25  26
HETATM   26  C   UNL     1      -2.617   6.396 -34.258  1.00  0.00     0.171 C 
HETATM   27  C   UNL     1      -1.243   5.777 -34.437  1.00  0.00     0.034 C 
ENDBRANCH  25  26
ENDBRANCH  23  25
ENDBRANCH   1  14
BRANCH   5  28
HETATM   28  N   UNL     1      -8.121  -0.059 -35.728  1.00  0.00    -0.282 NA
HETATM   29  H   UNL     1      -8.951   0.462 -36.004  1.00  0.00     0.126 HD
HETATM   30  H   UNL     1      -7.402  -0.081 -36.448  1.00  0.00     0.126 HD
ENDBRANCH   5  28
TORSDOF 4
ENDMDL
MODEL 9
REMARK VINA RESULT:      -7.1      5.140      7.207
REMARK  4 active torsions:
REMARK  status: ('A' for Active; 'I' for Inactive)
REMARK    1  A    between atoms: C_2  and  O_3 
REMARK    2  A    between atoms: O_3  and  C_4 
REMARK    3  A    between atoms: C_11  and  C_12 
REMARK    4  A    between atoms: C_16  and  N_17 
ROOT
HETATM    1  C   UNL     1      -5.975   1.387 -31.713  1.00  0.00     0.108 C 
HETATM    2  C   UNL     1      -7.483   1.611 -31.582  1.00  0.00     0.067 C 
HETATM    3  C   UNL     1      -7.940   2.595 -30.518  1.00  0.00     0.020 C 
HETATM    4  N   UNL     1      -8.320   3.412 -29.635  1.00  0.00    -0.096 N 
HETATM    5  C   UNL     1      -8.414   0.859 -32.232  1.00  0.00     0.139 C 
HETATM    6  O   UNL     1      -8.046  -0.203 -33.082  1.00  0.00    -0.279 OA
HETATM    7  C   UNL     1      -6.761  -0.537 -33.072  1.00  0.00     0.175 A 
HETATM    8  C   UNL     1      -5.723   0.120 -32.461  1.00  0.00     0.034 A 
HETATM    9  N   UNL     1      -6.237  -1.637 -33.668  1.00  0.00    -0.256 N 
HETATM   10  H   UNL     1      -6.715  -2.353 -34.204  1.00  0.00     0.191 HD
HETATM   11  N   UNL     1      -4.908  -1.752 -33.467  1.00  0.00    -0.177 NA
HETATM   12  C   UNL     1      -4.589  -0.686 -32.716  1.00  0.00     0.062 A 
HETATM   13  C   UNL     1      -3.189  -0.474 -32.272  1.00  0.00     0.073 C 
ENDROOT
BRANCH   1  14
HETATM   14  C   UNL     1      -5.281   2.466 -32.523  1.00  0.00    -0.003 A 
HETATM   15  C   UNL     1      -5.856   3.056 -33.644  1.00  0.00     0.134 A 
HETATM   16  N   UNL     1      -5.300   4.058 -34.362  1.00  0.00    -0.235 NA
HETATM   17 CL   UNL     1      -7.392   2.596 -34.266  1.00  0.00    -0.062 Cl
HETATM   18  C   UNL     1      -4.107   4.534 -33.974  1.00  0.00     0.069 A 
HETATM   19  C   UNL     1      -3.416   4.009 -32.868  1.00  0.00    -0.004 A 
HETATM   20  C   UNL     1      -3.521   5.584 -34.667  1.00  0.00     0.035 A 
HETATM   21  C   UNL     1      -2.176   4.547 -32.485  1.00  0.00     0.050 A 
HETATM   22  C   UNL     1      -4.014   2.959 -32.159  1.00  0.00     0.025 A 
HETATM   23  C   UNL     1      -1.611   5.614 -33.185  1.00  0.00     0.069 A 
HETATM   24  C   UNL     1      -2.287   6.128 -34.286  1.00  0.00     0.039 A 
BRANCH  23  25
HETATM   25  O   UNL     1      -0.415   6.049 -32.692  1.00  0.00    -0.351 OA
BRANCH  25  26
HETATM   26  C   UNL     1      -0.046   5.600 -31.389  1.00  0.00     0.171 C 
HETATM   27  C   UNL     1       0.373   6.813 -30.579  1.00  0.00     0.034 C 
ENDBRANCH  25  26
ENDBRANCH  23  25
ENDBRANCH   1  14
BRANCH   5  28
HETATM   28  N   UNL     1      -9.776   1.004 -32.122  1.00  0.00    -0.282 NA
HETATM   29  H   UNL     1     -10.325   0.148 -32.179  1.00  0.00     0.126 HD
HETATM   30  H   UNL     1     -10.044   1.602 -31.344  1.00  0.00     0.126 HD
ENDBRANCH   5  28
TORSDOF 4
ENDMDL
MODEL 10
REMARK VINA RESULT:      -7.0     15.867     18.480
REMARK  4 active torsions:
REMARK  status: ('A' for Active; 'I' for Inactive)
REMARK    1  A    between atoms: C_2  and  O_3 
REMARK    2  A    between atoms: O_3  and  C_4 
REMARK    3  A    between atoms: C_11  and  C_12 
REMARK    4  A    between atoms: C_16  and  N_17 
ROOT
HETATM    1  C   UNL     1      -3.783 -14.802 -38.249  1.00  0.00     0.108 C 
HETATM    2  C   UNL     1      -2.967 -13.629 -38.797  1.00  0.00     0.067 C 
HETATM    3  C   UNL     1      -1.943 -13.949 -39.874  1.00  0.00     0.020 C 
HETATM    4  N   UNL     1      -1.093 -14.215 -40.767  1.00  0.00    -0.096 N 
HETATM    5  C   UNL     1      -2.989 -12.380 -38.255  1.00  0.00     0.139 C 
HETATM    6  O   UNL     1      -3.775 -12.076 -37.126  1.00  0.00    -0.279 OA
HETATM    7  C   UNL     1      -4.347 -13.111 -36.521  1.00  0.00     0.175 A 
HETATM    8  C   UNL     1      -4.400 -14.414 -36.946  1.00  0.00     0.034 A 
HETATM    9  N   UNL     1      -4.985 -13.059 -35.324  1.00  0.00    -0.256 N 
HETATM   10  H   UNL     1      -5.131 -12.258 -34.721  1.00  0.00     0.191 HD
HETATM   11  N   UNL     1      -5.438 -14.266 -34.926  1.00  0.00    -0.177 NA
HETATM   12  C   UNL     1      -5.071 -15.103 -35.910  1.00  0.00     0.062 A 
HETATM   13  C   UNL     1      -5.389 -16.550 -35.819  1.00  0.00     0.073 C 
ENDROOT
BRANCH   1  14
HETATM   14  C   UNL     1      -4.951 -15.182 -39.139  1.00  0.00    -0.003 A 
HETATM   15  C   UNL     1      -4.954 -16.323 -39.936  1.00  0.00     0.134 A 
HETATM   16  N   UNL     1      -5.992 -16.731 -40.701  1.00  0.00    -0.235 NA
HETATM   17 CL   UNL     1      -3.617 -17.400 -40.039  1.00  0.00    -0.062 Cl
HETATM   18  C   UNL     1      -7.113 -15.994 -40.697  1.00  0.00     0.069 A 
HETATM   19  C   UNL     1      -7.228 -14.811 -39.948  1.00  0.00    -0.004 A 
HETATM   20  C   UNL     1      -8.210 -16.400 -41.445  1.00  0.00     0.035 A 
HETATM   21  C   UNL     1      -8.427 -14.078 -39.960  1.00  0.00     0.050 A 
HETATM   22  C   UNL     1      -6.127 -14.409 -39.183  1.00  0.00     0.025 A 
HETATM   23  C   UNL     1      -9.525 -14.511 -40.704  1.00  0.00     0.069 A 
HETATM   24  C   UNL     1      -9.410 -15.676 -41.455  1.00  0.00     0.039 A 
BRANCH  23  25
HETATM   25  O   UNL     1     -10.629 -13.714 -40.609  1.00  0.00    -0.351 OA
BRANCH  25  26
HETATM   26  C   UNL     1     -10.532 -12.566 -39.766  1.00  0.00     0.171 C 
HETATM   27  C   UNL     1     -10.904 -11.348 -40.591  1.00  0.00     0.034 C 
ENDBRANCH  25  26
ENDBRANCH  23  25
ENDBRANCH   1  14
BRANCH   5  28
HETATM   28  N   UNL     1      -2.253 -11.306 -38.694  1.00  0.00    -0.282 NA
HETATM   29  H   UNL     1      -1.568 -10.934 -38.039  1.00  0.00     0.126 HD
HETATM   30  H   UNL     1      -1.880 -11.445 -39.630  1.00  0.00     0.126 HD
ENDBRANCH   5  28
TORSDOF 4
ENDMDL
