MODEL 1
REMARK VINA RESULT:      -9.0      0.000      0.000
REMARK  6 active torsions:
REMARK  status: ('A' for Active; 'I' for Inactive)
REMARK    1  A    between atoms: C_2  and  N_3 
REMARK    2  A    between atoms: C_2  and  C_19 
REMARK       I    between atoms: N_3  and  C_4 
REMARK    3  A    between atoms: C_4  and  C_5 
REMARK    4  A    between atoms: C_9  and  C_10 
REMARK    5  A    between atoms: C_13  and  O_14 
REMARK    6  A    between atoms: C_19  and  C_20 
ROOT
HETATM    1  N   UNL     1      -3.235   3.866 -32.871  1.00  0.00    -0.347 N 
HETATM    2  C   UNL     1      -3.238   2.740 -32.080  1.00  0.00     0.270 C 
HETATM    3  O   UNL     1      -2.606   2.642 -31.035  1.00  0.00    -0.266 OA
HETATM    4  H   UNL     1      -3.953   3.912 -33.580  1.00  0.00     0.163 HD
ENDROOT
BRANCH   2   5
HETATM    5  C   UNL     1      -4.096   1.683 -32.548  1.00  0.00     0.120 A 
HETATM    6  N   UNL     1      -5.436   1.872 -32.740  1.00  0.00    -0.272 N 
HETATM    7  H   UNL     1      -5.961   2.725 -32.568  1.00  0.00     0.189 HD
HETATM    8  N   UNL     1      -6.079   0.800 -33.229  1.00  0.00    -0.174 NA
HETATM    9  C   UNL     1      -5.132  -0.144 -33.342  1.00  0.00     0.089 A 
HETATM   10  C   UNL     1      -3.878   0.369 -32.908  1.00  0.00     0.071 A 
BRANCH   9  11
HETATM   11  C   UNL     1      -5.427  -1.484 -33.867  1.00  0.00    -0.005 A 
HETATM   12  C   UNL     1      -4.410  -2.447 -33.977  1.00  0.00     0.016 A 
HETATM   13  C   UNL     1      -4.683  -3.733 -34.454  1.00  0.00     0.037 A 
HETATM   14  C   UNL     1      -5.980  -4.061 -34.828  1.00  0.00     0.065 A 
HETATM   15  C   UNL     1      -7.002  -3.127 -34.735  1.00  0.00     0.037 A 
HETATM   16  C   UNL     1      -6.727  -1.842 -34.257  1.00  0.00     0.016 A 
BRANCH  14  17
HETATM   17  O   UNL     1      -6.296  -5.303 -35.292  1.00  0.00    -0.361 OA
HETATM   18  H   UNL     1      -6.999  -5.213 -35.957  1.00  0.00     0.217 HD
ENDBRANCH  14  17
ENDBRANCH   9  11
ENDBRANCH   2   5
BRANCH   1  19
HETATM   19  C   UNL     1      -2.626   5.157 -32.505  1.00  0.00     0.030 C 
HETATM   20  C   UNL     1      -3.010   6.254 -33.520  1.00  0.00     0.038 C 
HETATM   21  C   UNL     1      -3.222   5.580 -31.146  1.00  0.00     0.038 C 
BRANCH  19  22
HETATM   22  C   UNL     1      -1.070   5.069 -32.423  1.00  0.00     0.069 C 
BRANCH  22  23
HETATM   23  C   UNL     1      -0.440   5.674 -31.184  1.00  0.00    -0.056 A 
HETATM   24  C   UNL     1       0.054   4.842 -30.165  1.00  0.00     0.010 A 
HETATM   25  C   UNL     1       0.617   5.391 -29.012  1.00  0.00     0.043 A 
HETATM   26  C   UNL     1       0.695   6.771 -28.879  1.00  0.00     0.116 A 
HETATM   27  F   UNL     1       1.235   7.298 -27.773  1.00  0.00    -0.206 F 
HETATM   28  C   UNL     1       0.226   7.613 -29.880  1.00  0.00     0.043 A 
HETATM   29  C   UNL     1      -0.338   7.065 -31.034  1.00  0.00     0.010 A 
ENDBRANCH  22  23
ENDBRANCH  19  22
ENDBRANCH   1  19
TORSDOF 6
ENDMDL
MODEL 2
REMARK VINA RESULT:      -8.8      2.124      2.951
REMARK  6 active torsions:
REMARK  status: ('A' for Active; 'I' for Inactive)
REMARK    1  A    between atoms: C_2  and  N_3 
REMARK    2  A    between atoms: C_2  and  C_19 
REMARK       I    between atoms: N_3  and  C_4 
REMARK    3  A    between atoms: C_4  and  C_5 
REMARK    4  A    between atoms: C_9  and  C_10 
REMARK    5  A    between atoms: C_13  and  O_14 
REMARK    6  A    between atoms: C_19  and  C_20 
ROOT
HETATM    1  N   UNL     1      -5.625   3.536 -32.599  1.00  0.00    -0.347 N 
HETATM    2  C   UNL     1      -6.463   3.256 -33.655  1.00  0.00     0.270 C 
HETATM    3  O   UNL     1      -7.018   4.117 -34.328  1.00  0.00    -0.266 OA
HETATM    4  H   UNL     1      -5.062   2.767 -32.265  1.00  0.00     0.163 HD
ENDROOT
BRANCH   2   5
HETATM    5  C   UNL     1      -6.602   1.855 -33.954  1.00  0.00     0.120 A 
HETATM    6  N   UNL     1      -7.682   1.364 -34.632  1.00  0.00    -0.272 N 
HETATM    7  H   UNL     1      -8.479   1.895 -34.971  1.00  0.00     0.189 HD
HETATM    8  N   UNL     1      -7.628   0.045 -34.873  1.00  0.00    -0.174 NA
HETATM    9  C   UNL     1      -6.479  -0.359 -34.309  1.00  0.00     0.089 A 
HETATM   10  C   UNL     1      -5.816   0.748 -33.709  1.00  0.00     0.071 A 
BRANCH   9  11
HETATM   11  C   UNL     1      -6.032  -1.756 -34.367  1.00  0.00    -0.005 A 
HETATM   12  C   UNL     1      -6.925  -2.776 -34.736  1.00  0.00     0.016 A 
HETATM   13  C   UNL     1      -6.506  -4.108 -34.817  1.00  0.00     0.037 A 
HETATM   14  C   UNL     1      -5.186  -4.427 -34.523  1.00  0.00     0.065 A 
HETATM   15  C   UNL     1      -4.285  -3.440 -34.149  1.00  0.00     0.037 A 
HETATM   16  C   UNL     1      -4.705  -2.109 -34.071  1.00  0.00     0.016 A 
BRANCH  14  17
HETATM   17  O   UNL     1      -4.729  -5.709 -34.594  1.00  0.00    -0.361 OA
HETATM   18  H   UNL     1      -4.722  -6.083 -33.697  1.00  0.00     0.217 HD
ENDBRANCH  14  17
ENDBRANCH   9  11
ENDBRANCH   2   5
BRANCH   1  19
HETATM   19  C   UNL     1      -5.141   4.878 -32.235  1.00  0.00     0.030 C 
HETATM   20  C   UNL     1      -6.317   5.864 -32.076  1.00  0.00     0.038 C 
HETATM   21  C   UNL     1      -4.465   4.766 -30.851  1.00  0.00     0.038 C 
BRANCH  19  22
HETATM   22  C   UNL     1      -4.144   5.448 -33.291  1.00  0.00     0.069 C 
BRANCH  22  23
HETATM   23  C   UNL     1      -2.790   5.875 -32.757  1.00  0.00    -0.056 A 
HETATM   24  C   UNL     1      -2.546   7.223 -32.446  1.00  0.00     0.010 A 
HETATM   25  C   UNL     1      -1.296   7.627 -31.974  1.00  0.00     0.043 A 
HETATM   26  C   UNL     1      -0.293   6.684 -31.802  1.00  0.00     0.116 A 
HETATM   27  F   UNL     1       0.907   7.070 -31.350  1.00  0.00    -0.206 F 
HETATM   28  C   UNL     1      -0.516   5.342 -32.090  1.00  0.00     0.043 A 
HETATM   29  C   UNL     1      -1.764   4.937 -32.563  1.00  0.00     0.010 A 
ENDBRANCH  22  23
ENDBRANCH  19  22
ENDBRANCH   1  19
TORSDOF 6
ENDMDL
MODEL 3
REMARK VINA RESULT:      -8.7      6.511      9.205
REMARK  6 active torsions:
REMARK  status: ('A' for Active; 'I' for Inactive)
REMARK    1  A    between atoms: C_2  and  N_3 
REMARK    2  A    between atoms: C_2  and  C_19 
REMARK       I    between atoms: N_3  and  C_4 
REMARK    3  A    between atoms: C_4  and  C_5 
REMARK    4  A    between atoms: C_9  and  C_10 
REMARK    5  A    between atoms: C_13  and  O_14 
REMARK    6  A    between atoms: C_19  and  C_20 
ROOT
HETATM    1  N   UNL     1      -7.535   1.186 -32.233  1.00  0.00    -0.347 N 
HETATM    2  C   UNL     1      -7.973   2.144 -33.119  1.00  0.00     0.270 C 
HETATM    3  O   UNL     1      -7.240   2.979 -33.635  1.00  0.00    -0.266 OA
HETATM    4  H   UNL     1      -8.176   0.428 -32.047  1.00  0.00     0.163 HD
ENDROOT
BRANCH   2   5
HETATM    5  C   UNL     1      -9.373   2.062 -33.444  1.00  0.00     0.120 A 
HETATM    6  N   UNL     1      -9.806   1.656 -34.675  1.00  0.00    -0.272 N 
HETATM    7  H   UNL     1      -9.227   1.397 -35.469  1.00  0.00     0.189 HD
HETATM    8  N   UNL     1     -11.141   1.585 -34.794  1.00  0.00    -0.174 NA
HETATM    9  C   UNL     1     -11.612   1.984 -33.602  1.00  0.00     0.089 A 
HETATM   10  C   UNL     1     -10.531   2.306 -32.735  1.00  0.00     0.071 A 
BRANCH   9  11
HETATM   11  C   UNL     1     -13.050   2.032 -33.310  1.00  0.00    -0.005 A 
HETATM   12  C   UNL     1     -13.947   1.199 -33.999  1.00  0.00     0.016 A 
HETATM   13  C   UNL     1     -15.316   1.220 -33.714  1.00  0.00     0.037 A 
HETATM   14  C   UNL     1     -15.796   2.082 -32.735  1.00  0.00     0.065 A 
HETATM   15  C   UNL     1     -14.933   2.920 -32.043  1.00  0.00     0.037 A 
HETATM   16  C   UNL     1     -13.564   2.897 -32.329  1.00  0.00     0.016 A 
BRANCH  14  17
HETATM   17  O   UNL     1     -17.120   2.133 -32.417  1.00  0.00    -0.361 OA
HETATM   18  H   UNL     1     -17.633   1.845 -33.190  1.00  0.00     0.217 HD
ENDBRANCH  14  17
ENDBRANCH   9  11
ENDBRANCH   2   5
BRANCH   1  19
HETATM   19  C   UNL     1      -6.124   0.911 -31.912  1.00  0.00     0.030 C 
HETATM   20  C   UNL     1      -5.480   2.114 -31.190  1.00  0.00     0.038 C 
HETATM   21  C   UNL     1      -6.098  -0.270 -30.919  1.00  0.00     0.038 C 
BRANCH  19  22
HETATM   22  C   UNL     1      -5.286   0.581 -33.186  1.00  0.00     0.069 C 
BRANCH  22  23
HETATM   23  C   UNL     1      -5.446  -0.823 -33.734  1.00  0.00    -0.056 A 
HETATM   24  C   UNL     1      -4.359  -1.713 -33.728  1.00  0.00     0.010 A 
HETATM   25  C   UNL     1      -4.492  -3.000 -34.249  1.00  0.00     0.043 A 
HETATM   26  C   UNL     1      -5.714  -3.405 -34.769  1.00  0.00     0.116 A 
HETATM   27  F   UNL     1      -5.843  -4.640 -35.270  1.00  0.00    -0.206 F 
HETATM   28  C   UNL     1      -6.808  -2.547 -34.772  1.00  0.00     0.043 A 
HETATM   29  C   UNL     1      -6.676  -1.259 -34.252  1.00  0.00     0.010 A 
ENDBRANCH  22  23
ENDBRANCH  19  22
ENDBRANCH   1  19
TORSDOF 6
ENDMDL
MODEL 4
REMARK VINA RESULT:      -8.7      3.158      3.891
REMARK  6 active torsions:
REMARK  status: ('A' for Active; 'I' for Inactive)
REMARK    1  A    between atoms: C_2  and  N_3 
REMARK    2  A    between atoms: C_2  and  C_19 
REMARK       I    between atoms: N_3  and  C_4 
REMARK    3  A    between atoms: C_4  and  C_5 
REMARK    4  A    between atoms: C_9  and  C_10 
REMARK    5  A    between atoms: C_13  and  O_14 
REMARK    6  A    between atoms: C_19  and  C_20 
ROOT
HETATM    1  N   UNL     1      -6.201   3.205 -32.228  1.00  0.00    -0.347 N 
HETATM    2  C   UNL     1      -7.060   2.955 -33.274  1.00  0.00     0.270 C 
HETATM    3  O   UNL     1      -7.780   3.807 -33.780  1.00  0.00    -0.266 OA
HETATM    4  H   UNL     1      -5.510   2.492 -32.043  1.00  0.00     0.163 HD
ENDROOT
BRANCH   2   5
HETATM    5  C   UNL     1      -7.012   1.607 -33.778  1.00  0.00     0.120 A 
HETATM    6  N   UNL     1      -7.785   1.201 -34.830  1.00  0.00    -0.272 N 
HETATM    7  H   UNL     1      -8.460   1.763 -35.340  1.00  0.00     0.189 HD
HETATM    8  N   UNL     1      -7.580  -0.070 -35.206  1.00  0.00    -0.174 NA
HETATM    9  C   UNL     1      -6.651  -0.533 -34.353  1.00  0.00     0.089 A 
HETATM   10  C   UNL     1      -6.284   0.488 -33.433  1.00  0.00     0.071 A 
BRANCH   9  11
HETATM   11  C   UNL     1      -6.129  -1.903 -34.440  1.00  0.00    -0.005 A 
HETATM   12  C   UNL     1      -4.764  -2.161 -34.230  1.00  0.00     0.016 A 
HETATM   13  C   UNL     1      -4.259  -3.464 -34.287  1.00  0.00     0.037 A 
HETATM   14  C   UNL     1      -5.121  -4.519 -34.559  1.00  0.00     0.065 A 
HETATM   15  C   UNL     1      -6.473  -4.291 -34.777  1.00  0.00     0.037 A 
HETATM   16  C   UNL     1      -6.976  -2.988 -34.718  1.00  0.00     0.016 A 
BRANCH  14  17
HETATM   17  O   UNL     1      -4.677  -5.805 -34.619  1.00  0.00    -0.361 OA
HETATM   18  H   UNL     1      -5.328  -6.377 -34.179  1.00  0.00     0.217 HD
ENDBRANCH  14  17
ENDBRANCH   9  11
ENDBRANCH   2   5
BRANCH   1  19
HETATM   19  C   UNL     1      -5.894   4.539 -31.684  1.00  0.00     0.030 C 
HETATM   20  C   UNL     1      -6.994   5.001 -30.706  1.00  0.00     0.038 C 
HETATM   21  C   UNL     1      -4.592   4.415 -30.864  1.00  0.00     0.038 C 
BRANCH  19  22
HETATM   22  C   UNL     1      -5.738   5.609 -32.809  1.00  0.00     0.069 C 
BRANCH  22  23
HETATM   23  C   UNL     1      -4.340   5.774 -33.373  1.00  0.00    -0.056 A 
HETATM   24  C   UNL     1      -3.917   4.987 -34.456  1.00  0.00     0.010 A 
HETATM   25  C   UNL     1      -2.625   5.119 -34.968  1.00  0.00     0.043 A 
HETATM   26  C   UNL     1      -1.758   6.044 -34.404  1.00  0.00     0.116 A 
HETATM   27  F   UNL     1      -0.518   6.171 -34.894  1.00  0.00    -0.206 F 
HETATM   28  C   UNL     1      -2.159   6.845 -33.341  1.00  0.00     0.043 A 
HETATM   29  C   UNL     1      -3.450   6.713 -32.828  1.00  0.00     0.010 A 
ENDBRANCH  22  23
ENDBRANCH  19  22
ENDBRANCH   1  19
TORSDOF 6
ENDMDL
MODEL 5
REMARK VINA RESULT:      -8.5      1.880      2.982
REMARK  6 active torsions:
REMARK  status: ('A' for Active; 'I' for Inactive)
REMARK    1  A    between atoms: C_2  and  N_3 
REMARK    2  A    between atoms: C_2  and  C_19 
REMARK       I    between atoms: N_3  and  C_4 
REMARK    3  A    between atoms: C_4  and  C_5 
REMARK    4  A    between atoms: C_9  and  C_10 
REMARK    5  A    between atoms: C_13  and  O_14 
REMARK    6  A    between atoms: C_19  and  C_20 
ROOT
HETATM    1  N   UNL     1      -2.566   5.436 -30.597  1.00  0.00    -0.347 N 
HETATM    2  C   UNL     1      -2.232   4.491 -31.541  1.00  0.00     0.270 C 
HETATM    3  O   UNL     1      -1.218   4.546 -32.228  1.00  0.00    -0.266 OA
HETATM    4  H   UNL     1      -3.296   5.177 -29.951  1.00  0.00     0.163 HD
ENDROOT
BRANCH   2   5
HETATM    5  C   UNL     1      -3.148   3.385 -31.631  1.00  0.00     0.120 A 
HETATM    6  N   UNL     1      -4.107   3.162 -30.683  1.00  0.00    -0.272 N 
HETATM    7  H   UNL     1      -4.267   3.707 -29.840  1.00  0.00     0.189 HD
HETATM    8  N   UNL     1      -4.911   2.120 -30.945  1.00  0.00    -0.174 NA
HETATM    9  C   UNL     1      -4.450   1.617 -32.102  1.00  0.00     0.089 A 
HETATM   10  C   UNL     1      -3.335   2.376 -32.553  1.00  0.00     0.071 A 
BRANCH   9  11
HETATM   11  C   UNL     1      -5.078   0.460 -32.752  1.00  0.00    -0.005 A 
HETATM   12  C   UNL     1      -6.465   0.432 -32.976  1.00  0.00     0.016 A 
HETATM   13  C   UNL     1      -7.071  -0.654 -33.614  1.00  0.00     0.037 A 
HETATM   14  C   UNL     1      -6.289  -1.725 -34.030  1.00  0.00     0.065 A 
HETATM   15  C   UNL     1      -4.918  -1.726 -33.816  1.00  0.00     0.037 A 
HETATM   16  C   UNL     1      -4.313  -0.638 -33.178  1.00  0.00     0.016 A 
BRANCH  14  17
HETATM   17  O   UNL     1      -6.833  -2.803 -34.662  1.00  0.00    -0.361 OA
HETATM   18  H   UNL     1      -6.288  -3.583 -34.465  1.00  0.00     0.217 HD
ENDBRANCH  14  17
ENDBRANCH   9  11
ENDBRANCH   2   5
BRANCH   1  19
HETATM   19  C   UNL     1      -1.692   6.536 -30.154  1.00  0.00     0.030 C 
HETATM   20  C   UNL     1      -1.424   7.525 -31.308  1.00  0.00     0.038 C 
HETATM   21  C   UNL     1      -2.453   7.320 -29.063  1.00  0.00     0.038 C 
BRANCH  19  22
HETATM   22  C   UNL     1      -0.326   6.016 -29.609  1.00  0.00     0.069 C 
BRANCH  22  23
HETATM   23  C   UNL     1       0.289   6.829 -28.486  1.00  0.00    -0.056 A 
HETATM   24  C   UNL     1       1.066   7.963 -28.778  1.00  0.00     0.010 A 
HETATM   25  C   UNL     1       1.652   8.705 -27.752  1.00  0.00     0.043 A 
HETATM   26  C   UNL     1       1.454   8.322 -26.433  1.00  0.00     0.116 A 
HETATM   27  F   UNL     1       2.017   9.034 -25.447  1.00  0.00    -0.206 F 
HETATM   28  C   UNL     1       0.677   7.213 -26.119  1.00  0.00     0.043 A 
HETATM   29  C   UNL     1       0.092   6.469 -27.144  1.00  0.00     0.010 A 
ENDBRANCH  22  23
ENDBRANCH  19  22
ENDBRANCH   1  19
TORSDOF 6
ENDMDL
MODEL 6
REMARK VINA RESULT:      -8.4      3.786      9.797
REMARK  6 active torsions:
REMARK  status: ('A' for Active; 'I' for Inactive)
REMARK    1  A    between atoms: C_2  and  N_3 
REMARK    2  A    between atoms: C_2  and  C_19 
REMARK       I    between atoms: N_3  and  C_4 
REMARK    3  A    between atoms: C_4  and  C_5 
REMARK    4  A    between atoms: C_9  and  C_10 
REMARK    5  A    between atoms: C_13  and  O_14 
REMARK    6  A    between atoms: C_19  and  C_20 
ROOT
HETATM    1  N   UNL     1      -4.787   1.642 -32.375  1.00  0.00    -0.347 N 
HETATM    2  C   UNL     1      -4.699   2.888 -32.953  1.00  0.00     0.270 C 
HETATM    3  O   UNL     1      -5.547   3.348 -33.709  1.00  0.00    -0.266 OA
HETATM    4  H   UNL     1      -4.152   1.462 -31.611  1.00  0.00     0.163 HD
ENDROOT
BRANCH   2   5
HETATM    5  C   UNL     1      -3.545   3.651 -32.556  1.00  0.00     0.120 A 
HETATM    6  N   UNL     1      -2.583   4.023 -33.452  1.00  0.00    -0.272 N 
HETATM    7  H   UNL     1      -2.557   3.804 -34.443  1.00  0.00     0.189 HD
HETATM    8  N   UNL     1      -1.603   4.775 -32.927  1.00  0.00    -0.174 NA
HETATM    9  C   UNL     1      -1.915   4.884 -31.626  1.00  0.00     0.089 A 
HETATM   10  C   UNL     1      -3.120   4.178 -31.354  1.00  0.00     0.071 A 
BRANCH   9  11
HETATM   11  C   UNL     1      -1.090   5.657 -30.689  1.00  0.00    -0.005 A 
HETATM   12  C   UNL     1      -1.369   7.012 -30.442  1.00  0.00     0.016 A 
HETATM   13  C   UNL     1      -0.605   7.752 -29.535  1.00  0.00     0.037 A 
HETATM   14  C   UNL     1       0.450   7.138 -28.870  1.00  0.00     0.065 A 
HETATM   15  C   UNL     1       0.751   5.803 -29.100  1.00  0.00     0.037 A 
HETATM   16  C   UNL     1      -0.015   5.064 -30.007  1.00  0.00     0.016 A 
BRANCH  14  17
HETATM   17  O   UNL     1       1.219   7.817 -27.973  1.00  0.00    -0.361 OA
HETATM   18  H   UNL     1       1.641   8.562 -28.431  1.00  0.00     0.217 HD
ENDBRANCH  14  17
ENDBRANCH   9  11
ENDBRANCH   2   5
BRANCH   1  19
HETATM   19  C   UNL     1      -5.967   0.762 -32.435  1.00  0.00     0.030 C 
HETATM   20  C   UNL     1      -5.780  -0.472 -31.527  1.00  0.00     0.038 C 
HETATM   21  C   UNL     1      -7.165   1.554 -31.869  1.00  0.00     0.038 C 
BRANCH  19  22
HETATM   22  C   UNL     1      -6.263   0.277 -33.889  1.00  0.00     0.069 C 
BRANCH  22  23
HETATM   23  C   UNL     1      -5.959  -1.181 -34.172  1.00  0.00    -0.056 A 
HETATM   24  C   UNL     1      -7.000  -2.071 -34.489  1.00  0.00     0.010 A 
HETATM   25  C   UNL     1      -6.731  -3.419 -34.730  1.00  0.00     0.043 A 
HETATM   26  C   UNL     1      -5.423  -3.878 -34.666  1.00  0.00     0.116 A 
HETATM   27  F   UNL     1      -5.165  -5.172 -34.897  1.00  0.00    -0.206 F 
HETATM   28  C   UNL     1      -4.376  -3.014 -34.369  1.00  0.00     0.043 A 
HETATM   29  C   UNL     1      -4.643  -1.666 -34.125  1.00  0.00     0.010 A 
ENDBRANCH  22  23
ENDBRANCH  19  22
ENDBRANCH   1  19
TORSDOF 6
ENDMDL
MODEL 7
REMARK VINA RESULT:      -8.4      4.128      5.245
REMARK  6 active torsions:
REMARK  status: ('A' for Active; 'I' for Inactive)
REMARK    1  A    between atoms: C_2  and  N_3 
REMARK    2  A    between atoms: C_2  and  C_19 
REMARK       I    between atoms: N_3  and  C_4 
REMARK    3  A    between atoms: C_4  and  C_5 
REMARK    4  A    between atoms: C_9  and  C_10 
REMARK    5  A    between atoms: C_13  and  O_14 
REMARK    6  A    between atoms: C_19  and  C_20 
ROOT
HETATM    1  N   UNL     1      -8.405   2.709 -32.107  1.00  0.00    -0.347 N 
HETATM    2  C   UNL     1      -7.738   2.670 -33.310  1.00  0.00     0.270 C 
HETATM    3  O   UNL     1      -7.311   3.666 -33.882  1.00  0.00    -0.266 OA
HETATM    4  H   UNL     1      -8.514   1.824 -31.632  1.00  0.00     0.163 HD
ENDROOT
BRANCH   2   5
HETATM    5  C   UNL     1      -7.527   1.347 -33.835  1.00  0.00     0.120 A 
HETATM    6  N   UNL     1      -8.106   0.930 -35.000  1.00  0.00    -0.272 N 
HETATM    7  H   UNL     1      -8.734   1.466 -35.593  1.00  0.00     0.189 HD
HETATM    8  N   UNL     1      -7.762  -0.313 -35.373  1.00  0.00    -0.174 NA
HETATM    9  C   UNL     1      -6.942  -0.746 -34.402  1.00  0.00     0.089 A 
HETATM   10  C   UNL     1      -6.784   0.263 -33.412  1.00  0.00     0.071 A 
BRANCH   9  11
HETATM   11  C   UNL     1      -6.323  -2.077 -34.443  1.00  0.00    -0.005 A 
HETATM   12  C   UNL     1      -7.083  -3.208 -34.783  1.00  0.00     0.016 A 
HETATM   13  C   UNL     1      -6.499  -4.477 -34.847  1.00  0.00     0.037 A 
HETATM   14  C   UNL     1      -5.146  -4.621 -34.566  1.00  0.00     0.065 A 
HETATM   15  C   UNL     1      -4.373  -3.521 -34.222  1.00  0.00     0.037 A 
HETATM   16  C   UNL     1      -4.958  -2.253 -34.159  1.00  0.00     0.016 A 
BRANCH  14  17
HETATM   17  O   UNL     1      -4.531  -5.836 -34.622  1.00  0.00    -0.361 OA
HETATM   18  H   UNL     1      -5.023  -6.456 -34.059  1.00  0.00     0.217 HD
ENDBRANCH  14  17
ENDBRANCH   9  11
ENDBRANCH   2   5
BRANCH   1  19
HETATM   19  C   UNL     1      -8.549   3.903 -31.257  1.00  0.00     0.030 C 
HETATM   20  C   UNL     1      -8.677   5.178 -32.116  1.00  0.00     0.038 C 
HETATM   21  C   UNL     1      -9.874   3.757 -30.477  1.00  0.00     0.038 C 
BRANCH  19  22
HETATM   22  C   UNL     1      -7.347   4.074 -30.277  1.00  0.00     0.069 C 
BRANCH  22  23
HETATM   23  C   UNL     1      -6.249   3.036 -30.394  1.00  0.00    -0.056 A 
HETATM   24  C   UNL     1      -5.044   3.352 -31.045  1.00  0.00     0.010 A 
HETATM   25  C   UNL     1      -4.036   2.396 -31.175  1.00  0.00     0.043 A 
HETATM   26  C   UNL     1      -4.225   1.126 -30.647  1.00  0.00     0.116 A 
HETATM   27  F   UNL     1      -3.258   0.208 -30.771  1.00  0.00    -0.206 F 
HETATM   28  C   UNL     1      -5.402   0.795 -29.985  1.00  0.00     0.043 A 
HETATM   29  C   UNL     1      -6.412   1.750 -29.855  1.00  0.00     0.010 A 
ENDBRANCH  22  23
ENDBRANCH  19  22
ENDBRANCH   1  19
TORSDOF 6
ENDMDL
MODEL 8
REMARK VINA RESULT:      -8.4      6.631      8.629
REMARK  6 active torsions:
REMARK  status: ('A' for Active; 'I' for Inactive)
REMARK    1  A    between atoms: C_2  and  N_3 
REMARK    2  A    between atoms: C_2  and  C_19 
REMARK       I    between atoms: N_3  and  C_4 
REMARK    3  A    between atoms: C_4  and  C_5 
REMARK    4  A    between atoms: C_9  and  C_10 
REMARK    5  A    between atoms: C_13  and  O_14 
REMARK    6  A    between atoms: C_19  and  C_20 
ROOT
HETATM    1  N   UNL     1      -9.025   3.204 -33.650  1.00  0.00    -0.347 N 
HETATM    2  C   UNL     1      -7.854   2.620 -33.222  1.00  0.00     0.270 C 
HETATM    3  O   UNL     1      -7.099   3.132 -32.404  1.00  0.00    -0.266 OA
HETATM    4  H   UNL     1      -9.664   2.603 -34.150  1.00  0.00     0.163 HD
ENDROOT
BRANCH   2   5
HETATM    5  C   UNL     1      -7.601   1.315 -33.774  1.00  0.00     0.120 A 
HETATM    6  N   UNL     1      -8.137   0.918 -34.966  1.00  0.00    -0.272 N 
HETATM    7  H   UNL     1      -8.759   1.457 -35.563  1.00  0.00     0.189 HD
HETATM    8  N   UNL     1      -7.758  -0.307 -35.361  1.00  0.00    -0.174 NA
HETATM    9  C   UNL     1      -6.957  -0.750 -34.378  1.00  0.00     0.089 A 
HETATM   10  C   UNL     1      -6.849   0.236 -33.358  1.00  0.00     0.071 A 
BRANCH   9  11
HETATM   11  C   UNL     1      -6.310  -2.066 -34.434  1.00  0.00    -0.005 A 
HETATM   12  C   UNL     1      -4.945  -2.204 -34.131  1.00  0.00     0.016 A 
HETATM   13  C   UNL     1      -4.322  -3.456 -34.159  1.00  0.00     0.037 A 
HETATM   14  C   UNL     1      -5.065  -4.581 -34.497  1.00  0.00     0.065 A 
HETATM   15  C   UNL     1      -6.414  -4.472 -34.808  1.00  0.00     0.037 A 
HETATM   16  C   UNL     1      -7.035  -3.219 -34.778  1.00  0.00     0.016 A 
BRANCH  14  17
HETATM   17  O   UNL     1      -4.505  -5.822 -34.533  1.00  0.00    -0.361 OA
HETATM   18  H   UNL     1      -4.854  -6.339 -33.789  1.00  0.00     0.217 HD
ENDBRANCH  14  17
ENDBRANCH   9  11
ENDBRANCH   2   5
BRANCH   1  19
HETATM   19  C   UNL     1      -9.624   4.422 -33.075  1.00  0.00     0.030 C 
HETATM   20  C   UNL     1      -9.741   4.306 -31.541  1.00  0.00     0.038 C 
HETATM   21  C   UNL     1      -8.657   5.591 -33.361  1.00  0.00     0.038 C 
BRANCH  19  22
HETATM   22  C   UNL     1     -11.037   4.716 -33.668  1.00  0.00     0.069 C 
BRANCH  22  23
HETATM   23  C   UNL     1     -11.917   3.504 -33.907  1.00  0.00    -0.056 A 
HETATM   24  C   UNL     1     -11.842   2.805 -35.123  1.00  0.00     0.010 A 
HETATM   25  C   UNL     1     -12.663   1.701 -35.359  1.00  0.00     0.043 A 
HETATM   26  C   UNL     1     -13.552   1.289 -34.376  1.00  0.00     0.116 A 
HETATM   27  F   UNL     1     -14.341   0.229 -34.601  1.00  0.00    -0.206 F 
HETATM   28  C   UNL     1     -13.633   1.955 -33.159  1.00  0.00     0.043 A 
HETATM   29  C   UNL     1     -12.813   3.060 -32.923  1.00  0.00     0.010 A 
ENDBRANCH  22  23
ENDBRANCH  19  22
ENDBRANCH   1  19
TORSDOF 6
ENDMDL
MODEL 9
REMARK VINA RESULT:      -8.4      3.747      9.137
REMARK  6 active torsions:
REMARK  status: ('A' for Active; 'I' for Inactive)
REMARK    1  A    between atoms: C_2  and  N_3 
REMARK    2  A    between atoms: C_2  and  C_19 
REMARK       I    between atoms: N_3  and  C_4 
REMARK    3  A    between atoms: C_4  and  C_5 
REMARK    4  A    between atoms: C_9  and  C_10 
REMARK    5  A    between atoms: C_13  and  O_14 
REMARK    6  A    between atoms: C_19  and  C_20 
ROOT
HETATM    1  N   UNL     1      -6.993   1.773 -33.511  1.00  0.00    -0.347 N 
HETATM    2  C   UNL     1      -7.186   2.218 -32.223  1.00  0.00     0.270 C 
HETATM    3  O   UNL     1      -8.121   1.864 -31.514  1.00  0.00    -0.266 OA
HETATM    4  H   UNL     1      -6.086   1.959 -33.913  1.00  0.00     0.163 HD
ENDROOT
BRANCH   2   5
HETATM    5  C   UNL     1      -6.162   3.106 -31.737  1.00  0.00     0.120 A 
HETATM    6  N   UNL     1      -6.248   3.708 -30.514  1.00  0.00    -0.272 N 
HETATM    7  H   UNL     1      -7.009   3.622 -29.846  1.00  0.00     0.189 HD
HETATM    8  N   UNL     1      -5.185   4.461 -30.194  1.00  0.00    -0.174 NA
HETATM    9  C   UNL     1      -4.373   4.375 -31.260  1.00  0.00     0.089 A 
HETATM   10  C   UNL     1      -4.961   3.545 -32.254  1.00  0.00     0.071 A 
BRANCH   9  11
HETATM   11  C   UNL     1      -3.071   5.054 -31.304  1.00  0.00    -0.005 A 
HETATM   12  C   UNL     1      -2.014   4.523 -32.060  1.00  0.00     0.016 A 
HETATM   13  C   UNL     1      -0.777   5.172 -32.128  1.00  0.00     0.037 A 
HETATM   14  C   UNL     1      -0.591   6.360 -31.432  1.00  0.00     0.065 A 
HETATM   15  C   UNL     1      -1.617   6.904 -30.672  1.00  0.00     0.037 A 
HETATM   16  C   UNL     1      -2.853   6.254 -30.606  1.00  0.00     0.016 A 
BRANCH  14  17
HETATM   17  O   UNL     1       0.593   7.033 -31.472  1.00  0.00    -0.361 OA
HETATM   18  H   UNL     1       0.518   7.822 -30.912  1.00  0.00     0.217 HD
ENDBRANCH  14  17
ENDBRANCH   9  11
ENDBRANCH   2   5
BRANCH   1  19
HETATM   19  C   UNL     1      -7.762   0.697 -34.159  1.00  0.00     0.030 C 
HETATM   20  C   UNL     1      -9.236   1.111 -34.350  1.00  0.00     0.038 C 
HETATM   21  C   UNL     1      -7.171   0.493 -35.571  1.00  0.00     0.038 C 
BRANCH  19  22
HETATM   22  C   UNL     1      -7.713  -0.632 -33.343  1.00  0.00     0.069 C 
BRANCH  22  23
HETATM   23  C   UNL     1      -6.568  -1.568 -33.675  1.00  0.00    -0.056 A 
HETATM   24  C   UNL     1      -6.789  -2.697 -34.482  1.00  0.00     0.010 A 
HETATM   25  C   UNL     1      -5.745  -3.575 -34.775  1.00  0.00     0.043 A 
HETATM   26  C   UNL     1      -4.476  -3.321 -34.272  1.00  0.00     0.116 A 
HETATM   27  F   UNL     1      -3.473  -4.164 -34.553  1.00  0.00    -0.206 F 
HETATM   28  C   UNL     1      -4.230  -2.203 -33.484  1.00  0.00     0.043 A 
HETATM   29  C   UNL     1      -5.274  -1.325 -33.189  1.00  0.00     0.010 A 
ENDBRANCH  22  23
ENDBRANCH  19  22
ENDBRANCH   1  19
TORSDOF 6
ENDMDL
MODEL 10
REMARK VINA RESULT:      -8.0      3.304      4.928
REMARK  6 active torsions:
REMARK  status: ('A' for Active; 'I' for Inactive)
REMARK    1  A    between atoms: C_2  and  N_3 
REMARK    2  A    between atoms: C_2  and  C_19 
REMARK       I    between atoms: N_3  and  C_4 
REMARK    3  A    between atoms: C_4  and  C_5 
REMARK    4  A    between atoms: C_9  and  C_10 
REMARK    5  A    between atoms: C_13  and  O_14 
REMARK    6  A    between atoms: C_19  and  C_20 
ROOT
HETATM    1  N   UNL     1      -3.833   3.399 -32.837  1.00  0.00    -0.347 N 
HETATM    2  C   UNL     1      -3.209   2.512 -31.990  1.00  0.00     0.270 C 
HETATM    3  O   UNL     1      -2.475   2.853 -31.070  1.00  0.00    -0.266 OA
HETATM    4  H   UNL     1      -4.575   3.020 -33.408  1.00  0.00     0.163 HD
ENDROOT
BRANCH   2   5
HETATM    5  C   UNL     1      -3.528   1.130 -32.231  1.00  0.00     0.120 A 
HETATM    6  N   UNL     1      -3.093   0.132 -31.404  1.00  0.00    -0.272 N 
HETATM    7  H   UNL     1      -2.510   0.238 -30.579  1.00  0.00     0.189 HD
HETATM    8  N   UNL     1      -3.524  -1.092 -31.743  1.00  0.00    -0.174 NA
HETATM    9  C   UNL     1      -4.254  -0.902 -32.854  1.00  0.00     0.089 A 
HETATM   10  C   UNL     1      -4.265   0.478 -33.199  1.00  0.00     0.071 A 
BRANCH   9  11
HETATM   11  C   UNL     1      -4.927  -2.011 -33.542  1.00  0.00    -0.005 A 
HETATM   12  C   UNL     1      -6.261  -1.883 -33.967  1.00  0.00     0.016 A 
HETATM   13  C   UNL     1      -6.906  -2.923 -34.643  1.00  0.00     0.037 A 
HETATM   14  C   UNL     1      -6.217  -4.103 -34.895  1.00  0.00     0.065 A 
HETATM   15  C   UNL     1      -4.902  -4.258 -34.482  1.00  0.00     0.037 A 
HETATM   16  C   UNL     1      -4.258  -3.217 -33.807  1.00  0.00     0.016 A 
BRANCH  14  17
HETATM   17  O   UNL     1      -6.801  -5.142 -35.556  1.00  0.00    -0.361 OA
HETATM   18  H   UNL     1      -6.447  -5.170 -36.460  1.00  0.00     0.217 HD
ENDBRANCH  14  17
ENDBRANCH   9  11
ENDBRANCH   2   5
BRANCH   1  19
HETATM   19  C   UNL     1      -3.855   4.862 -32.665  1.00  0.00     0.030 C 
HETATM   20  C   UNL     1      -2.438   5.404 -32.384  1.00  0.00     0.038 C 
HETATM   21  C   UNL     1      -4.309   5.478 -34.006  1.00  0.00     0.038 C 
BRANCH  19  22
HETATM   22  C   UNL     1      -4.802   5.303 -31.506  1.00  0.00     0.069 C 
BRANCH  22  23
HETATM   23  C   UNL     1      -6.030   4.438 -31.294  1.00  0.00    -0.056 A 
HETATM   24  C   UNL     1      -7.093   4.482 -32.213  1.00  0.00     0.010 A 
HETATM   25  C   UNL     1      -8.234   3.705 -32.014  1.00  0.00     0.043 A 
HETATM   26  C   UNL     1      -8.313   2.876 -30.903  1.00  0.00     0.116 A 
HETATM   27  F   UNL     1      -9.409   2.131 -30.711  1.00  0.00    -0.206 F 
HETATM   28  C   UNL     1      -7.269   2.806 -29.989  1.00  0.00     0.043 A 
HETATM   29  C   UNL     1      -6.126   3.583 -30.186  1.00  0.00     0.010 A 
ENDBRANCH  22  23
ENDBRANCH  19  22
ENDBRANCH   1  19
TORSDOF 6
ENDMDL
