MODEL 1
REMARK VINA RESULT:      -8.8      0.000      0.000
REMARK  3 active torsions:
REMARK  status: ('A' for Active; 'I' for Inactive)
REMARK    1  A    between atoms: C_8  and  C_9 
REMARK    2  A    between atoms: C_14  and  C_15 
REMARK    3  A    between atoms: C_16  and  O_17 
ROOT
HETATM    1  C   UNL     1      -6.740   3.906 -29.906  1.00  0.00     0.143 A 
HETATM    2  N   UNL     1      -5.861   4.112 -30.860  1.00  0.00    -0.223 NA
HETATM    3  C   UNL     1      -5.314   2.877 -31.186  1.00  0.00     0.149 A 
HETATM    4  C   UNL     1      -5.915   1.892 -30.416  1.00  0.00     0.046 A 
HETATM    5  C   UNL     1      -5.784   0.415 -30.289  1.00  0.00     0.070 C 
HETATM    6  C   UNL     1      -4.644  -0.274 -31.058  1.00  0.00     0.045 C 
HETATM    7  C   UNL     1      -3.391   0.592 -31.239  1.00  0.00     0.132 C 
HETATM    8  N   UNL     1      -3.501   1.626 -32.247  1.00  0.00    -0.355 N 
HETATM    9  C   UNL     1      -4.282   2.752 -32.220  1.00  0.00     0.272 C 
HETATM   10  O   UNL     1      -4.084   3.614 -33.076  1.00  0.00    -0.266 OA
HETATM   11  N   UNL     1      -6.816   2.571 -29.626  1.00  0.00    -0.341 N 
HETATM   12  H   UNL     1      -7.429   2.158 -28.941  1.00  0.00     0.167 HD
HETATM   13  H   UNL     1      -2.816   1.646 -32.993  1.00  0.00     0.162 HD
ENDROOT
BRANCH   1  14
HETATM   14  C   UNL     1      -7.519   4.981 -29.235  1.00  0.00     0.059 A 
HETATM   15  C   UNL     1      -8.823   5.368 -29.483  1.00  0.00     0.040 A 
HETATM   16  C   UNL     1      -9.871   4.911 -30.424  1.00  0.00     0.071 C 
HETATM   17  N   UNL     1      -9.066   6.386 -28.598  1.00  0.00    -0.281 N 
HETATM   18  H   UNL     1      -9.920   6.921 -28.480  1.00  0.00     0.189 HD
HETATM   19  N   UNL     1      -8.030   6.683 -27.805  1.00  0.00    -0.179 NA
HETATM   20  C   UNL     1      -7.072   5.826 -28.185  1.00  0.00     0.067 A 
HETATM   21  C   UNL     1      -5.745   5.847 -27.520  1.00  0.00     0.073 C 
ENDBRANCH   1  14
BRANCH   6  22
HETATM   22  C   UNL     1      -5.068  -0.971 -32.353  1.00  0.00    -0.019 A 
HETATM   23  C   UNL     1      -4.275  -2.001 -32.906  1.00  0.00     0.074 A 
HETATM   24  C   UNL     1      -4.657  -2.612 -34.106  1.00  0.00     0.037 A 
HETATM   25  C   UNL     1      -5.824  -2.217 -34.761  1.00  0.00     0.003 A 
HETATM   26  C   UNL     1      -6.614  -1.207 -34.223  1.00  0.00     0.001 A 
HETATM   27  C   UNL     1      -6.239  -0.588 -33.029  1.00  0.00     0.010 A 
BRANCH  23  28
HETATM   28  O   UNL     1      -3.131  -2.325 -32.219  1.00  0.00    -0.355 OA
HETATM   29  C   UNL     1      -2.980  -3.684 -31.824  1.00  0.00     0.210 C 
ENDBRANCH  23  28
ENDBRANCH   6  22
TORSDOF 3
ENDMDL
MODEL 2
REMARK VINA RESULT:      -8.6      3.419      5.076
REMARK  3 active torsions:
REMARK  status: ('A' for Active; 'I' for Inactive)
REMARK    1  A    between atoms: C_8  and  C_9 
REMARK    2  A    between atoms: C_14  and  C_15 
REMARK    3  A    between atoms: C_16  and  O_17 
ROOT
HETATM    1  C   UNL     1      -3.056   4.362 -32.420  1.00  0.00     0.143 A 
HETATM    2  N   UNL     1      -2.575   3.344 -31.744  1.00  0.00    -0.223 NA
HETATM    3  C   UNL     1      -3.549   2.354 -31.744  1.00  0.00     0.149 A 
HETATM    4  C   UNL     1      -4.644   2.789 -32.478  1.00  0.00     0.046 A 
HETATM    5  C   UNL     1      -5.968   2.220 -32.849  1.00  0.00     0.070 C 
HETATM    6  C   UNL     1      -6.380   0.884 -32.209  1.00  0.00     0.045 C 
HETATM    7  C   UNL     1      -5.820   0.660 -30.798  1.00  0.00     0.132 C 
HETATM    8  N   UNL     1      -4.419   0.298 -30.747  1.00  0.00    -0.355 N 
HETATM    9  C   UNL     1      -3.334   1.075 -31.060  1.00  0.00     0.272 C 
HETATM   10  O   UNL     1      -2.217   0.660 -30.756  1.00  0.00    -0.266 OA
HETATM   11  N   UNL     1      -4.298   4.054 -32.899  1.00  0.00    -0.341 N 
HETATM   12  H   UNL     1      -4.869   4.665 -33.462  1.00  0.00     0.167 HD
HETATM   13  H   UNL     1      -4.159  -0.556 -30.269  1.00  0.00     0.162 HD
ENDROOT
BRANCH   1  14
HETATM   14  C   UNL     1      -2.344   5.653 -32.617  1.00  0.00     0.059 A 
HETATM   15  C   UNL     1      -2.246   6.714 -31.736  1.00  0.00     0.040 A 
HETATM   16  C   UNL     1      -2.760   6.969 -30.371  1.00  0.00     0.071 C 
HETATM   17  N   UNL     1      -1.482   7.647 -32.387  1.00  0.00    -0.281 N 
HETATM   18  H   UNL     1      -1.193   8.561 -32.054  1.00  0.00     0.189 HD
HETATM   19  N   UNL     1      -1.082   7.274 -33.608  1.00  0.00    -0.179 NA
HETATM   20  C   UNL     1      -1.604   6.049 -33.762  1.00  0.00     0.067 A 
HETATM   21  C   UNL     1      -1.371   5.291 -35.017  1.00  0.00     0.073 C 
ENDBRANCH   1  14
BRANCH   6  22
HETATM   22  C   UNL     1      -6.213  -0.342 -33.109  1.00  0.00    -0.019 A 
HETATM   23  C   UNL     1      -7.336  -0.937 -33.727  1.00  0.00     0.074 A 
HETATM   24  C   UNL     1      -7.174  -2.076 -34.525  1.00  0.00     0.037 A 
HETATM   25  C   UNL     1      -5.907  -2.627 -34.724  1.00  0.00     0.003 A 
HETATM   26  C   UNL     1      -4.796  -2.047 -34.124  1.00  0.00     0.001 A 
HETATM   27  C   UNL     1      -4.947  -0.914 -33.322  1.00  0.00     0.010 A 
BRANCH  23  28
HETATM   28  O   UNL     1      -8.552  -0.355 -33.472  1.00  0.00    -0.355 OA
HETATM   29  C   UNL     1      -9.015   0.608 -34.413  1.00  0.00     0.210 C 
ENDBRANCH  23  28
ENDBRANCH   6  22
TORSDOF 3
ENDMDL
MODEL 3
REMARK VINA RESULT:      -8.4      3.457      4.408
REMARK  3 active torsions:
REMARK  status: ('A' for Active; 'I' for Inactive)
REMARK    1  A    between atoms: C_8  and  C_9 
REMARK    2  A    between atoms: C_14  and  C_15 
REMARK    3  A    between atoms: C_16  and  O_17 
ROOT
HETATM    1  C   UNL     1     -10.583   2.884 -32.938  1.00  0.00     0.143 A 
HETATM    2  N   UNL     1      -9.478   3.423 -33.401  1.00  0.00    -0.223 NA
HETATM    3  C   UNL     1      -8.425   2.618 -32.987  1.00  0.00     0.149 A 
HETATM    4  C   UNL     1      -8.926   1.538 -32.275  1.00  0.00     0.046 A 
HETATM    5  C   UNL     1      -8.341   0.353 -31.589  1.00  0.00     0.070 C 
HETATM    6  C   UNL     1      -6.810   0.278 -31.466  1.00  0.00     0.045 C 
HETATM    7  C   UNL     1      -6.117   1.643 -31.360  1.00  0.00     0.132 C 
HETATM    8  N   UNL     1      -6.021   2.380 -32.604  1.00  0.00    -0.355 N 
HETATM    9  C   UNL     1      -7.037   2.945 -33.330  1.00  0.00     0.272 C 
HETATM   10  O   UNL     1      -6.737   3.706 -34.249  1.00  0.00    -0.266 OA
HETATM   11  N   UNL     1     -10.290   1.729 -32.270  1.00  0.00    -0.341 N 
HETATM   12  H   UNL     1     -10.969   1.123 -31.836  1.00  0.00     0.167 HD
HETATM   13  H   UNL     1      -5.107   2.680 -32.917  1.00  0.00     0.162 HD
ENDROOT
BRANCH   1  14
HETATM   14  C   UNL     1     -11.941   3.464 -33.117  1.00  0.00     0.059 A 
HETATM   15  C   UNL     1     -12.687   3.542 -34.279  1.00  0.00     0.040 A 
HETATM   16  C   UNL     1     -12.458   3.118 -35.679  1.00  0.00     0.071 C 
HETATM   17  N   UNL     1     -13.857   4.151 -33.909  1.00  0.00    -0.281 N 
HETATM   18  H   UNL     1     -14.656   4.379 -34.493  1.00  0.00     0.189 HD
HETATM   19  N   UNL     1     -13.925   4.469 -32.611  1.00  0.00    -0.179 NA
HETATM   20  C   UNL     1     -12.754   4.051 -32.112  1.00  0.00     0.067 A 
HETATM   21  C   UNL     1     -12.450   4.230 -30.670  1.00  0.00     0.073 C 
ENDBRANCH   1  14
BRANCH   6  22
HETATM   22  C   UNL     1      -6.126  -0.650 -32.473  1.00  0.00    -0.019 A 
HETATM   23  C   UNL     1      -4.794  -1.074 -32.267  1.00  0.00     0.074 A 
HETATM   24  C   UNL     1      -4.169  -1.900 -33.210  1.00  0.00     0.037 A 
HETATM   25  C   UNL     1      -4.856  -2.319 -34.350  1.00  0.00     0.003 A 
HETATM   26  C   UNL     1      -6.169  -1.911 -34.559  1.00  0.00     0.001 A 
HETATM   27  C   UNL     1      -6.799  -1.084 -33.628  1.00  0.00     0.010 A 
BRANCH  23  28
HETATM   28  O   UNL     1      -4.173  -0.608 -31.135  1.00  0.00    -0.355 OA
HETATM   29  C   UNL     1      -2.847  -0.113 -31.285  1.00  0.00     0.210 C 
ENDBRANCH  23  28
ENDBRANCH   6  22
TORSDOF 3
ENDMDL
MODEL 4
REMARK VINA RESULT:      -8.1      3.797      8.266
REMARK  3 active torsions:
REMARK  status: ('A' for Active; 'I' for Inactive)
REMARK    1  A    between atoms: C_8  and  C_9 
REMARK    2  A    between atoms: C_14  and  C_15 
REMARK    3  A    between atoms: C_16  and  O_17 
ROOT
HETATM    1  C   UNL     1      -5.653  -2.028 -33.658  1.00  0.00     0.143 A 
HETATM    2  N   UNL     1      -5.848  -1.384 -32.530  1.00  0.00    -0.223 NA
HETATM    3  C   UNL     1      -6.552  -0.226 -32.835  1.00  0.00     0.149 A 
HETATM    4  C   UNL     1      -6.814  -0.195 -34.197  1.00  0.00     0.046 A 
HETATM    5  C   UNL     1      -7.508   0.740 -35.125  1.00  0.00     0.070 C 
HETATM    6  C   UNL     1      -7.969   2.096 -34.565  1.00  0.00     0.045 C 
HETATM    7  C   UNL     1      -7.084   2.650 -33.442  1.00  0.00     0.132 C 
HETATM    8  N   UNL     1      -7.259   2.013 -32.153  1.00  0.00    -0.355 N 
HETATM    9  C   UNL     1      -6.927   0.734 -31.792  1.00  0.00     0.272 C 
HETATM   10  O   UNL     1      -6.963   0.442 -30.597  1.00  0.00    -0.266 OA
HETATM   11  N   UNL     1      -6.244  -1.350 -34.686  1.00  0.00    -0.341 N 
HETATM   12  H   UNL     1      -6.248  -1.648 -35.649  1.00  0.00     0.167 HD
HETATM   13  H   UNL     1      -7.492   2.593 -31.357  1.00  0.00     0.162 HD
ENDROOT
BRANCH   1  14
HETATM   14  C   UNL     1      -4.892  -3.300 -33.779  1.00  0.00     0.059 A 
HETATM   15  C   UNL     1      -5.163  -4.379 -34.600  1.00  0.00     0.040 A 
HETATM   16  C   UNL     1      -6.217  -4.675 -35.596  1.00  0.00     0.071 C 
HETATM   17  N   UNL     1      -4.166  -5.282 -34.340  1.00  0.00    -0.281 N 
HETATM   18  H   UNL     1      -4.027  -6.198 -34.755  1.00  0.00     0.189 HD
HETATM   19  N   UNL     1      -3.280  -4.874 -33.424  1.00  0.00    -0.179 NA
HETATM   20  C   UNL     1      -3.714  -3.656 -33.072  1.00  0.00     0.067 A 
HETATM   21  C   UNL     1      -2.974  -2.865 -32.057  1.00  0.00     0.073 C 
ENDBRANCH   1  14
BRANCH   6  22
HETATM   22  C   UNL     1      -9.461   2.184 -34.235  1.00  0.00    -0.019 A 
HETATM   23  C   UNL     1     -10.137   3.423 -34.297  1.00  0.00     0.074 A 
HETATM   24  C   UNL     1     -11.496   3.496 -33.964  1.00  0.00     0.037 A 
HETATM   25  C   UNL     1     -12.193   2.351 -33.579  1.00  0.00     0.003 A 
HETATM   26  C   UNL     1     -11.537   1.126 -33.518  1.00  0.00     0.001 A 
HETATM   27  C   UNL     1     -10.183   1.043 -33.843  1.00  0.00     0.010 A 
BRANCH  23  28
HETATM   28  O   UNL     1      -9.385   4.510 -34.665  1.00  0.00    -0.355 OA
HETATM   29  C   UNL     1      -9.366   5.614 -33.766  1.00  0.00     0.210 C 
ENDBRANCH  23  28
ENDBRANCH   6  22
TORSDOF 3
ENDMDL
MODEL 5
REMARK VINA RESULT:      -8.0      2.614      3.918
REMARK  3 active torsions:
REMARK  status: ('A' for Active; 'I' for Inactive)
REMARK    1  A    between atoms: C_8  and  C_9 
REMARK    2  A    between atoms: C_14  and  C_15 
REMARK    3  A    between atoms: C_16  and  O_17 
ROOT
HETATM    1  C   UNL     1      -4.337   3.635 -31.348  1.00  0.00     0.143 A 
HETATM    2  N   UNL     1      -4.893   2.847 -30.457  1.00  0.00    -0.223 NA
HETATM    3  C   UNL     1      -5.193   1.651 -31.097  1.00  0.00     0.149 A 
HETATM    4  C   UNL     1      -4.769   1.719 -32.417  1.00  0.00     0.046 A 
HETATM    5  C   UNL     1      -4.792   0.802 -33.589  1.00  0.00     0.070 C 
HETATM    6  C   UNL     1      -5.568  -0.518 -33.453  1.00  0.00     0.045 C 
HETATM    7  C   UNL     1      -6.780  -0.445 -32.516  1.00  0.00     0.132 C 
HETATM    8  N   UNL     1      -6.463  -0.439 -31.103  1.00  0.00    -0.355 N 
HETATM    9  C   UNL     1      -5.839   0.546 -30.382  1.00  0.00     0.272 C 
HETATM   10  O   UNL     1      -5.843   0.456 -29.155  1.00  0.00    -0.266 OA
HETATM   11  N   UNL     1      -4.224   2.978 -32.541  1.00  0.00    -0.341 N 
HETATM   12  H   UNL     1      -3.816   3.365 -33.378  1.00  0.00     0.167 HD
HETATM   13  H   UNL     1      -6.882  -1.145 -30.512  1.00  0.00     0.162 HD
ENDROOT
BRANCH   1  14
HETATM   14  C   UNL     1      -3.908   5.034 -31.082  1.00  0.00     0.059 A 
HETATM   15  C   UNL     1      -4.681   6.092 -30.641  1.00  0.00     0.040 A 
HETATM   16  C   UNL     1      -6.110   6.245 -30.289  1.00  0.00     0.071 C 
HETATM   17  N   UNL     1      -3.815   7.150 -30.548  1.00  0.00    -0.281 N 
HETATM   18  H   UNL     1      -4.017   8.100 -30.254  1.00  0.00     0.189 HD
HETATM   19  N   UNL     1      -2.554   6.859 -30.890  1.00  0.00    -0.179 NA
HETATM   20  C   UNL     1      -2.597   5.561 -31.219  1.00  0.00     0.067 A 
HETATM   21  C   UNL     1      -1.363   4.862 -31.659  1.00  0.00     0.073 C 
ENDBRANCH   1  14
BRANCH   6  22
HETATM   22  C   UNL     1      -4.701  -1.753 -33.195  1.00  0.00    -0.019 A 
HETATM   23  C   UNL     1      -4.851  -2.913 -33.988  1.00  0.00     0.074 A 
HETATM   24  C   UNL     1      -4.072  -4.046 -33.725  1.00  0.00     0.037 A 
HETATM   25  C   UNL     1      -3.139  -4.039 -32.687  1.00  0.00     0.003 A 
HETATM   26  C   UNL     1      -2.981  -2.901 -31.904  1.00  0.00     0.001 A 
HETATM   27  C   UNL     1      -3.756  -1.768 -32.155  1.00  0.00     0.010 A 
BRANCH  23  28
HETATM   28  O   UNL     1      -5.801  -2.856 -34.978  1.00  0.00    -0.355 OA
HETATM   29  C   UNL     1      -6.618  -4.008 -35.152  1.00  0.00     0.210 C 
ENDBRANCH  23  28
ENDBRANCH   6  22
TORSDOF 3
ENDMDL
MODEL 6
REMARK VINA RESULT:      -7.9      3.428      7.985
REMARK  3 active torsions:
REMARK  status: ('A' for Active; 'I' for Inactive)
REMARK    1  A    between atoms: C_8  and  C_9 
REMARK    2  A    between atoms: C_14  and  C_15 
REMARK    3  A    between atoms: C_16  and  O_17 
ROOT
HETATM    1  C   UNL     1      -4.591  -1.709 -33.394  1.00  0.00     0.143 A 
HETATM    2  N   UNL     1      -5.576  -0.992 -33.886  1.00  0.00    -0.223 NA
HETATM    3  C   UNL     1      -5.393   0.313 -33.447  1.00  0.00     0.149 A 
HETATM    4  C   UNL     1      -4.233   0.382 -32.688  1.00  0.00     0.046 A 
HETATM    5  C   UNL     1      -3.503   1.455 -31.959  1.00  0.00     0.070 C 
HETATM    6  C   UNL     1      -4.177   2.832 -31.844  1.00  0.00     0.045 C 
HETATM    7  C   UNL     1      -5.710   2.783 -31.798  1.00  0.00     0.132 C 
HETATM    8  N   UNL     1      -6.353   2.530 -33.070  1.00  0.00    -0.355 N 
HETATM    9  C   UNL     1      -6.333   1.377 -33.812  1.00  0.00     0.272 C 
HETATM   10  O   UNL     1      -7.108   1.287 -34.763  1.00  0.00    -0.266 OA
HETATM   11  N   UNL     1      -3.745  -0.906 -32.682  1.00  0.00    -0.341 N 
HETATM   12  H   UNL     1      -2.906  -1.217 -32.219  1.00  0.00     0.167 HD
HETATM   13  H   UNL     1      -7.044   3.192 -33.401  1.00  0.00     0.162 HD
ENDROOT
BRANCH   1  14
HETATM   14  C   UNL     1      -4.441  -3.176 -33.588  1.00  0.00     0.059 A 
HETATM   15  C   UNL     1      -3.635  -4.050 -32.881  1.00  0.00     0.040 A 
HETATM   16  C   UNL     1      -2.689  -3.893 -31.753  1.00  0.00     0.071 C 
HETATM   17  N   UNL     1      -3.868  -5.278 -33.441  1.00  0.00    -0.281 N 
HETATM   18  H   UNL     1      -3.457  -6.170 -33.184  1.00  0.00     0.189 HD
HETATM   19  N   UNL     1      -4.754  -5.266 -34.443  1.00  0.00    -0.179 NA
HETATM   20  C   UNL     1      -5.115  -3.980 -34.544  1.00  0.00     0.067 A 
HETATM   21  C   UNL     1      -6.107  -3.561 -35.565  1.00  0.00     0.073 C 
ENDBRANCH   1  14
BRANCH   6  22
HETATM   22  C   UNL     1      -3.653   3.891 -32.816  1.00  0.00    -0.019 A 
HETATM   23  C   UNL     1      -2.422   4.541 -32.573  1.00  0.00     0.074 A 
HETATM   24  C   UNL     1      -1.966   5.529 -33.455  1.00  0.00     0.037 A 
HETATM   25  C   UNL     1      -2.715   5.873 -34.580  1.00  0.00     0.003 A 
HETATM   26  C   UNL     1      -3.925   5.237 -34.831  1.00  0.00     0.001 A 
HETATM   27  C   UNL     1      -4.391   4.254 -33.956  1.00  0.00     0.010 A 
BRANCH  23  28
HETATM   28  O   UNL     1      -1.748   4.166 -31.437  1.00  0.00    -0.355 OA
HETATM   29  C   UNL     1      -0.726   5.043 -30.976  1.00  0.00     0.210 C 
ENDBRANCH  23  28
ENDBRANCH   6  22
TORSDOF 3
ENDMDL
MODEL 7
REMARK VINA RESULT:      -7.8      3.521      5.246
REMARK  3 active torsions:
REMARK  status: ('A' for Active; 'I' for Inactive)
REMARK    1  A    between atoms: C_8  and  C_9 
REMARK    2  A    between atoms: C_14  and  C_15 
REMARK    3  A    between atoms: C_16  and  O_17 
ROOT
HETATM    1  C   UNL     1      -3.914   5.461 -32.615  1.00  0.00     0.143 A 
HETATM    2  N   UNL     1      -4.215   4.793 -31.525  1.00  0.00    -0.223 NA
HETATM    3  C   UNL     1      -5.177   3.853 -31.872  1.00  0.00     0.149 A 
HETATM    4  C   UNL     1      -5.437   3.946 -33.232  1.00  0.00     0.046 A 
HETATM    5  C   UNL     1      -6.331   3.244 -34.194  1.00  0.00     0.070 C 
HETATM    6  C   UNL     1      -7.353   2.245 -33.626  1.00  0.00     0.045 C 
HETATM    7  C   UNL     1      -7.863   2.592 -32.221  1.00  0.00     0.132 C 
HETATM    8  N   UNL     1      -6.933   2.314 -31.146  1.00  0.00    -0.355 N 
HETATM    9  C   UNL     1      -5.744   2.939 -30.875  1.00  0.00     0.272 C 
HETATM   10  O   UNL     1      -5.196   2.701 -29.799  1.00  0.00    -0.266 OA
HETATM   11  N   UNL     1      -4.618   4.961 -33.674  1.00  0.00    -0.341 N 
HETATM   12  H   UNL     1      -4.551   5.295 -34.622  1.00  0.00     0.167 HD
HETATM   13  H   UNL     1      -7.238   1.715 -30.389  1.00  0.00     0.162 HD
ENDROOT
BRANCH   1  14
HETATM   14  C   UNL     1      -2.955   6.596 -32.666  1.00  0.00     0.059 A 
HETATM   15  C   UNL     1      -2.954   7.746 -31.898  1.00  0.00     0.040 A 
HETATM   16  C   UNL     1      -3.824   8.262 -30.817  1.00  0.00     0.071 C 
HETATM   17  N   UNL     1      -1.865   8.459 -32.328  1.00  0.00    -0.281 N 
HETATM   18  H   UNL     1      -1.537   9.360 -31.995  1.00  0.00     0.189 HD
HETATM   19  N   UNL     1      -1.169   7.864 -33.303  1.00  0.00    -0.179 NA
HETATM   20  C   UNL     1      -1.827   6.717 -33.520  1.00  0.00     0.067 A 
HETATM   21  C   UNL     1      -1.345   5.764 -34.552  1.00  0.00     0.073 C 
ENDBRANCH   1  14
BRANCH   6  22
HETATM   22  C   UNL     1      -6.959   0.772 -33.759  1.00  0.00    -0.019 A 
HETATM   23  C   UNL     1      -7.950  -0.225 -33.903  1.00  0.00     0.074 A 
HETATM   24  C   UNL     1      -7.579  -1.572 -33.995  1.00  0.00     0.037 A 
HETATM   25  C   UNL     1      -6.234  -1.941 -33.956  1.00  0.00     0.003 A 
HETATM   26  C   UNL     1      -5.251  -0.967 -33.820  1.00  0.00     0.001 A 
HETATM   27  C   UNL     1      -5.610   0.379 -33.722  1.00  0.00     0.010 A 
BRANCH  23  28
HETATM   28  O   UNL     1      -9.253   0.207 -33.914  1.00  0.00    -0.355 OA
HETATM   29  C   UNL     1     -10.068  -0.180 -32.813  1.00  0.00     0.210 C 
ENDBRANCH  23  28
ENDBRANCH   6  22
TORSDOF 3
ENDMDL
MODEL 8
REMARK VINA RESULT:      -7.8      3.313      7.554
REMARK  3 active torsions:
REMARK  status: ('A' for Active; 'I' for Inactive)
REMARK    1  A    between atoms: C_8  and  C_9 
REMARK    2  A    between atoms: C_14  and  C_15 
REMARK    3  A    between atoms: C_16  and  O_17 
ROOT
HETATM    1  C   UNL     1      -5.400   0.725 -33.407  1.00  0.00     0.143 A 
HETATM    2  N   UNL     1      -6.026   1.826 -33.755  1.00  0.00    -0.223 NA
HETATM    3  C   UNL     1      -5.404   2.878 -33.094  1.00  0.00     0.149 A 
HETATM    4  C   UNL     1      -4.343   2.385 -32.347  1.00  0.00     0.046 A 
HETATM    5  C   UNL     1      -3.313   2.974 -31.447  1.00  0.00     0.070 C 
HETATM    6  C   UNL     1      -3.444   4.462 -31.084  1.00  0.00     0.045 C 
HETATM    7  C   UNL     1      -4.889   4.976 -31.031  1.00  0.00     0.132 C 
HETATM    8  N   UNL     1      -5.508   5.196 -32.322  1.00  0.00    -0.355 N 
HETATM    9  C   UNL     1      -5.868   4.259 -33.255  1.00  0.00     0.272 C 
HETATM   10  O   UNL     1      -6.568   4.623 -34.200  1.00  0.00    -0.266 OA
HETATM   11  N   UNL     1      -4.360   1.027 -32.573  1.00  0.00    -0.341 N 
HETATM   12  H   UNL     1      -3.719   0.355 -32.181  1.00  0.00     0.167 HD
HETATM   13  H   UNL     1      -5.889   6.111 -32.524  1.00  0.00     0.162 HD
ENDROOT
BRANCH   1  14
HETATM   14  C   UNL     1      -5.785  -0.639 -33.858  1.00  0.00     0.059 A 
HETATM   15  C   UNL     1      -6.879  -1.006 -34.620  1.00  0.00     0.040 A 
HETATM   16  C   UNL     1      -8.000  -0.262 -35.237  1.00  0.00     0.071 C 
HETATM   17  N   UNL     1      -6.771  -2.365 -34.763  1.00  0.00    -0.281 N 
HETATM   18  H   UNL     1      -7.393  -2.992 -35.263  1.00  0.00     0.189 HD
HETATM   19  N   UNL     1      -5.703  -2.898 -34.159  1.00  0.00    -0.179 NA
HETATM   20  C   UNL     1      -5.087  -1.848 -33.600  1.00  0.00     0.067 A 
HETATM   21  C   UNL     1      -3.833  -2.042 -32.829  1.00  0.00     0.073 C 
ENDBRANCH   1  14
BRANCH   6  22
HETATM   22  C   UNL     1      -2.516   5.400 -31.859  1.00  0.00    -0.019 A 
HETATM   23  C   UNL     1      -2.004   6.568 -31.250  1.00  0.00     0.074 A 
HETATM   24  C   UNL     1      -1.179   7.434 -31.978  1.00  0.00     0.037 A 
HETATM   25  C   UNL     1      -0.848   7.148 -33.303  1.00  0.00     0.003 A 
HETATM   26  C   UNL     1      -1.342   5.998 -33.910  1.00  0.00     0.001 A 
HETATM   27  C   UNL     1      -2.169   5.132 -33.194  1.00  0.00     0.010 A 
BRANCH  23  28
HETATM   28  O   UNL     1      -2.387   6.797 -29.952  1.00  0.00    -0.355 OA
HETATM   29  C   UNL     1      -1.349   7.031 -29.006  1.00  0.00     0.210 C 
ENDBRANCH  23  28
ENDBRANCH   6  22
TORSDOF 3
ENDMDL
MODEL 9
REMARK VINA RESULT:      -7.5      3.614      7.398
REMARK  3 active torsions:
REMARK  status: ('A' for Active; 'I' for Inactive)
REMARK    1  A    between atoms: C_8  and  C_9 
REMARK    2  A    between atoms: C_14  and  C_15 
REMARK    3  A    between atoms: C_16  and  O_17 
ROOT
HETATM    1  C   UNL     1      -5.936   1.862 -33.022  1.00  0.00     0.143 A 
HETATM    2  N   UNL     1      -5.692   2.808 -33.900  1.00  0.00    -0.223 NA
HETATM    3  C   UNL     1      -5.111   3.866 -33.213  1.00  0.00     0.149 A 
HETATM    4  C   UNL     1      -4.976   3.523 -31.875  1.00  0.00     0.046 A 
HETATM    5  C   UNL     1      -4.445   4.192 -30.656  1.00  0.00     0.070 C 
HETATM    6  C   UNL     1      -4.042   5.672 -30.766  1.00  0.00     0.045 C 
HETATM    7  C   UNL     1      -4.863   6.476 -31.782  1.00  0.00     0.132 C 
HETATM    8  N   UNL     1      -4.523   6.239 -33.169  1.00  0.00    -0.355 N 
HETATM    9  C   UNL     1      -4.720   5.099 -33.904  1.00  0.00     0.272 C 
HETATM   10  O   UNL     1      -4.553   5.158 -35.122  1.00  0.00    -0.266 OA
HETATM   11  N   UNL     1      -5.496   2.251 -31.789  1.00  0.00    -0.341 N 
HETATM   12  H   UNL     1      -5.555   1.694 -30.951  1.00  0.00     0.167 HD
HETATM   13  H   UNL     1      -4.266   7.031 -33.745  1.00  0.00     0.162 HD
ENDROOT
BRANCH   1  14
HETATM   14  C   UNL     1      -6.603   0.571 -33.340  1.00  0.00     0.059 A 
HETATM   15  C   UNL     1      -7.956   0.323 -33.477  1.00  0.00     0.040 A 
HETATM   16  C   UNL     1      -9.172   1.161 -33.374  1.00  0.00     0.071 C 
HETATM   17  N   UNL     1      -8.043  -1.011 -33.778  1.00  0.00    -0.281 N 
HETATM   18  H   UNL     1      -8.879  -1.560 -33.953  1.00  0.00     0.189 HD
HETATM   19  N   UNL     1      -6.863  -1.637 -33.847  1.00  0.00    -0.179 NA
HETATM   20  C   UNL     1      -5.968  -0.676 -33.581  1.00  0.00     0.067 A 
HETATM   21  C   UNL     1      -4.517  -0.989 -33.568  1.00  0.00     0.073 C 
ENDBRANCH   1  14
BRANCH   6  22
HETATM   22  C   UNL     1      -2.538   5.924 -30.895  1.00  0.00    -0.019 A 
HETATM   23  C   UNL     1      -1.940   7.034 -30.257  1.00  0.00     0.074 A 
HETATM   24  C   UNL     1      -0.568   7.271 -30.407  1.00  0.00     0.037 A 
HETATM   25  C   UNL     1       0.219   6.413 -31.175  1.00  0.00     0.003 A 
HETATM   26  C   UNL     1      -0.359   5.316 -31.803  1.00  0.00     0.001 A 
HETATM   27  C   UNL     1      -1.727   5.073 -31.665  1.00  0.00     0.010 A 
BRANCH  23  28
HETATM   28  O   UNL     1      -2.777   7.846 -29.534  1.00  0.00    -0.355 OA
HETATM   29  C   UNL     1      -2.553   7.915 -28.130  1.00  0.00     0.210 C 
ENDBRANCH  23  28
ENDBRANCH   6  22
TORSDOF 3
ENDMDL
MODEL 10
REMARK VINA RESULT:      -7.4      1.570      2.579
REMARK  3 active torsions:
REMARK  status: ('A' for Active; 'I' for Inactive)
REMARK    1  A    between atoms: C_8  and  C_9 
REMARK    2  A    between atoms: C_14  and  C_15 
REMARK    3  A    between atoms: C_16  and  O_17 
ROOT
HETATM    1  C   UNL     1      -5.363   5.158 -29.458  1.00  0.00     0.143 A 
HETATM    2  N   UNL     1      -4.577   5.235 -30.508  1.00  0.00    -0.223 NA
HETATM    3  C   UNL     1      -4.529   3.970 -31.078  1.00  0.00     0.149 A 
HETATM    4  C   UNL     1      -5.346   3.111 -30.356  1.00  0.00     0.046 A 
HETATM    5  C   UNL     1      -5.721   1.673 -30.447  1.00  0.00     0.070 C 
HETATM    6  C   UNL     1      -4.980   0.802 -31.475  1.00  0.00     0.045 C 
HETATM    7  C   UNL     1      -3.532   1.233 -31.743  1.00  0.00     0.132 C 
HETATM    8  N   UNL     1      -3.387   2.409 -32.575  1.00  0.00    -0.355 N 
HETATM    9  C   UNL     1      -3.723   3.703 -32.274  1.00  0.00     0.272 C 
HETATM   10  O   UNL     1      -3.334   4.593 -33.029  1.00  0.00    -0.266 OA
HETATM   11  N   UNL     1      -5.865   3.893 -29.347  1.00  0.00    -0.341 N 
HETATM   12  H   UNL     1      -6.505   3.585 -28.632  1.00  0.00     0.167 HD
HETATM   13  H   UNL     1      -2.823   2.340 -33.413  1.00  0.00     0.162 HD
ENDROOT
BRANCH   1  14
HETATM   14  C   UNL     1      -5.645   6.290 -28.535  1.00  0.00     0.059 A 
HETATM   15  C   UNL     1      -4.737   7.104 -27.884  1.00  0.00     0.040 A 
HETATM   16  C   UNL     1      -3.258   7.173 -27.848  1.00  0.00     0.071 C 
HETATM   17  N   UNL     1      -5.501   7.987 -27.168  1.00  0.00    -0.281 N 
HETATM   18  H   UNL     1      -5.187   8.741 -26.565  1.00  0.00     0.189 HD
HETATM   19  N   UNL     1      -6.820   7.809 -27.305  1.00  0.00    -0.179 NA
HETATM   20  C   UNL     1      -6.923   6.769 -28.144  1.00  0.00     0.067 A 
HETATM   21  C   UNL     1      -8.260   6.265 -28.548  1.00  0.00     0.073 C 
ENDBRANCH   1  14
BRANCH   6  22
HETATM   22  C   UNL     1      -5.757   0.523 -32.764  1.00  0.00    -0.019 A 
HETATM   23  C   UNL     1      -5.689  -0.746 -33.382  1.00  0.00     0.074 A 
HETATM   24  C   UNL     1      -6.381  -0.981 -34.576  1.00  0.00     0.037 A 
HETATM   25  C   UNL     1      -7.148   0.027 -35.160  1.00  0.00     0.003 A 
HETATM   26  C   UNL     1      -7.225   1.278 -34.557  1.00  0.00     0.001 A 
HETATM   27  C   UNL     1      -6.535   1.524 -33.370  1.00  0.00     0.010 A 
BRANCH  23  28
HETATM   28  O   UNL     1      -4.900  -1.684 -32.763  1.00  0.00    -0.355 OA
HETATM   29  C   UNL     1      -4.124  -2.529 -33.606  1.00  0.00     0.210 C 
ENDBRANCH  23  28
ENDBRANCH   6  22
TORSDOF 3
ENDMDL
