MODEL 1
REMARK VINA RESULT:     -10.0      0.000      0.000
REMARK  7 active torsions:
REMARK  status: ('A' for Active; 'I' for Inactive)
REMARK    1  A    between atoms: C_2  and  O_3 
REMARK    2  A    between atoms: O_3  and  C_4 
REMARK       I    between atoms: C_4  and  N_5 
REMARK    3  A    between atoms: C_8  and  N_9 
REMARK       I    between atoms: N_9  and  C_10 
REMARK    4  A    between atoms: C_10  and  C_11 
REMARK    5  A    between atoms: C_13  and  N_14 
REMARK       I    between atoms: N_14  and  C_15 
REMARK    6  A    between atoms: C_15  and  C_16 
REMARK    7  A    between atoms: C_22  and  N_23 
ROOT
HETATM    1  C   UNL     1      -5.019   5.235 -33.609  1.00  0.00     0.034 A 
HETATM    2  C   UNL     1      -6.198   5.853 -33.185  1.00  0.00     0.049 A 
HETATM    3  C   UNL     1      -7.389   5.116 -33.026  1.00  0.00     0.062 A 
HETATM    4  C   UNL     1      -7.436   3.734 -33.328  1.00  0.00     0.057 A 
HETATM    5  C   UNL     1      -6.232   3.145 -33.759  1.00  0.00     0.033 A 
HETATM    6  C   UNL     1      -5.045   3.874 -33.896  1.00  0.00     0.019 A 
ENDROOT
BRANCH   1   7
HETATM    7  C   UNL     1      -3.740   5.981 -33.810  1.00  0.00     0.252 C 
HETATM    8  N   UNL     1      -3.207   6.615 -32.705  1.00  0.00    -0.352 N 
HETATM    9  H   UNL     1      -3.558   6.366 -31.792  1.00  0.00     0.163 HD
HETATM   10  O   UNL     1      -3.202   5.997 -34.912  1.00  0.00    -0.268 OA
BRANCH   8  11
HETATM   11  C   UNL     1      -1.923   7.307 -32.757  1.00  0.00     0.087 C 
HETATM   12  C   UNL     1      -1.769   8.269 -31.579  1.00  0.00     0.045 C 
HETATM   13  C   UNL     1      -1.594   7.540 -30.253  1.00  0.00     0.130 C 
HETATM   14  N   UNL     1      -0.573   6.500 -30.311  1.00  0.00    -0.328 N 
HETATM   15  C   UNL     1       0.050   6.046 -29.153  1.00  0.00     0.362 C 
HETATM   16  C   UNL     1      -0.604   5.590 -31.451  1.00  0.00     0.130 C 
HETATM   17  O   UNL     1       0.730   5.026 -29.095  1.00  0.00    -0.238 OA
HETATM   18  C   UNL     1      -0.759   6.316 -32.783  1.00  0.00     0.045 C 
BRANCH  15  19
HETATM   19  O   UNL     1      -0.182   6.859 -28.086  1.00  0.00    -0.304 OA
BRANCH  19  20
HETATM   20  C   UNL     1       0.966   7.242 -27.318  1.00  0.00     0.176 C 
HETATM   21  C   UNL     1       1.538   8.541 -27.855  1.00  0.00     0.034 C 
ENDBRANCH  19  20
ENDBRANCH  15  19
ENDBRANCH   8  11
ENDBRANCH   1   7
BRANCH   3  22
HETATM   22  N   UNL     1      -8.544   5.792 -32.564  1.00  0.00    -0.320 N 
HETATM   23  C   UNL     1      -8.610   6.713 -31.540  1.00  0.00     0.263 C 
HETATM   24  O   UNL     1      -9.349   7.687 -31.681  1.00  0.00    -0.267 OA
HETATM   25  H   UNL     1      -9.275   5.913 -33.246  1.00  0.00     0.169 HD
BRANCH  23  26
HETATM   26  C   UNL     1      -7.884   6.401 -30.314  1.00  0.00     0.072 A 
HETATM   27  S   UNL     1      -6.688   7.483 -29.734  1.00  0.00    -0.097 SA
HETATM   28  C   UNL     1      -6.392   6.522 -28.351  1.00  0.00     0.050 A 
HETATM   29  C   UNL     1      -7.185   5.396 -28.323  1.00  0.00     0.009 A 
HETATM   30  C   UNL     1      -8.044   5.326 -29.455  1.00  0.00     0.025 A 
ENDBRANCH  23  26
ENDBRANCH   3  22
BRANCH   4  31
HETATM   31  N   UNL     1      -8.566   2.941 -33.168  1.00  0.00    -0.378 N 
HETATM   32  C   UNL     1      -9.234   2.297 -34.301  1.00  0.00     0.134 C 
HETATM   33  C   UNL     1      -9.466   0.794 -34.031  1.00  0.00     0.054 C 
HETATM   34  C   UNL     1     -10.248   0.619 -32.732  1.00  0.00     0.020 C 
HETATM   35  C   UNL     1      -8.127   0.079 -33.975  1.00  0.00     0.020 A 
HETATM   36  C   UNL     1      -9.391   1.179 -31.604  1.00  0.00     0.023 C 
HETATM   37  C   UNL     1      -8.111   0.342 -31.492  1.00  0.00     0.138 C 
HETATM   38  C   UNL     1      -9.107   2.675 -31.830  1.00  0.00     0.129 C 
HETATM   39  N   UNL     1      -7.469  -0.045 -32.749  1.00  0.00    -0.317 N 
HETATM   40  C   UNL     1      -6.202  -0.628 -32.640  1.00  0.00     0.247 A 
HETATM   41  O   UNL     1      -5.596  -0.784 -31.583  1.00  0.00    -0.268 OA
HETATM   42  C   UNL     1      -5.573  -1.081 -33.908  1.00  0.00     0.074 A 
HETATM   43  C   UNL     1      -6.235  -0.967 -35.064  1.00  0.00     0.007 A 
HETATM   44  C   UNL     1      -7.546  -0.379 -35.099  1.00  0.00     0.026 A 
ENDBRANCH   4  31
TORSDOF 7
ENDMDL
MODEL 2
REMARK VINA RESULT:      -9.7      1.560      2.039
REMARK  7 active torsions:
REMARK  status: ('A' for Active; 'I' for Inactive)
REMARK    1  A    between atoms: C_2  and  O_3 
REMARK    2  A    between atoms: O_3  and  C_4 
REMARK       I    between atoms: C_4  and  N_5 
REMARK    3  A    between atoms: C_8  and  N_9 
REMARK       I    between atoms: N_9  and  C_10 
REMARK    4  A    between atoms: C_10  and  C_11 
REMARK    5  A    between atoms: C_13  and  N_14 
REMARK       I    between atoms: N_14  and  C_15 
REMARK    6  A    between atoms: C_15  and  C_16 
REMARK    7  A    between atoms: C_22  and  N_23 
ROOT
HETATM    1  C   UNL     1      -3.315   4.805 -32.564  1.00  0.00     0.034 A 
HETATM    2  C   UNL     1      -4.267   5.822 -32.674  1.00  0.00     0.049 A 
HETATM    3  C   UNL     1      -5.646   5.533 -32.670  1.00  0.00     0.062 A 
HETATM    4  C   UNL     1      -6.110   4.198 -32.594  1.00  0.00     0.057 A 
HETATM    5  C   UNL     1      -5.124   3.197 -32.490  1.00  0.00     0.033 A 
HETATM    6  C   UNL     1      -3.756   3.488 -32.473  1.00  0.00     0.019 A 
ENDROOT
BRANCH   1   7
HETATM    7  C   UNL     1      -1.845   5.064 -32.583  1.00  0.00     0.252 C 
HETATM    8  N   UNL     1      -1.220   5.210 -31.360  1.00  0.00    -0.352 N 
HETATM    9  H   UNL     1      -1.713   4.915 -30.531  1.00  0.00     0.163 HD
HETATM   10  O   UNL     1      -1.243   5.122 -33.650  1.00  0.00    -0.268 OA
BRANCH   8  11
HETATM   11  C   UNL     1       0.224   5.387 -31.246  1.00  0.00     0.087 C 
HETATM   12  C   UNL     1       0.599   6.869 -31.267  1.00  0.00     0.045 C 
HETATM   13  C   UNL     1       0.169   7.595 -29.999  1.00  0.00     0.130 C 
HETATM   14  N   UNL     1       0.572   6.894 -28.784  1.00  0.00    -0.328 N 
HETATM   15  C   UNL     1       0.688   7.573 -27.575  1.00  0.00     0.362 C 
HETATM   16  C   UNL     1       0.320   5.458 -28.721  1.00  0.00     0.130 C 
HETATM   17  O   UNL     1       0.784   7.018 -26.484  1.00  0.00    -0.238 OA
HETATM   18  C   UNL     1       0.767   4.724 -29.980  1.00  0.00     0.045 C 
BRANCH  15  19
HETATM   19  O   UNL     1       0.680   8.924 -27.735  1.00  0.00    -0.304 OA
BRANCH  19  20
HETATM   20  C   UNL     1      -0.256   9.653 -26.931  1.00  0.00     0.176 C 
HETATM   21  C   UNL     1      -1.331  10.263 -27.813  1.00  0.00     0.034 C 
ENDBRANCH  19  20
ENDBRANCH  15  19
ENDBRANCH   8  11
ENDBRANCH   1   7
BRANCH   3  22
HETATM   22  N   UNL     1      -6.562   6.609 -32.754  1.00  0.00    -0.320 N 
HETATM   23  C   UNL     1      -6.857   7.523 -31.765  1.00  0.00     0.263 C 
HETATM   24  O   UNL     1      -7.026   8.698 -32.090  1.00  0.00    -0.267 OA
HETATM   25  H   UNL     1      -6.718   6.972 -33.681  1.00  0.00     0.169 HD
BRANCH  23  26
HETATM   26  C   UNL     1      -7.062   7.005 -30.417  1.00  0.00     0.072 A 
HETATM   27  S   UNL     1      -8.645   6.920 -29.769  1.00  0.00    -0.097 SA
HETATM   28  C   UNL     1      -8.087   6.202 -28.320  1.00  0.00     0.050 A 
HETATM   29  C   UNL     1      -6.722   6.027 -28.321  1.00  0.00     0.009 A 
HETATM   30  C   UNL     1      -6.130   6.490 -29.530  1.00  0.00     0.025 A 
ENDBRANCH  23  26
ENDBRANCH   3  22
BRANCH   4  31
HETATM   31  N   UNL     1      -7.453   3.842 -32.556  1.00  0.00    -0.378 N 
HETATM   32  C   UNL     1      -8.242   3.648 -33.775  1.00  0.00     0.134 C 
HETATM   33  C   UNL     1      -9.000   2.302 -33.741  1.00  0.00     0.054 C 
HETATM   34  C   UNL     1      -9.862   2.230 -32.484  1.00  0.00     0.020 C 
HETATM   35  C   UNL     1      -8.001   1.160 -33.797  1.00  0.00     0.020 A 
HETATM   36  C   UNL     1      -8.924   2.280 -31.283  1.00  0.00     0.023 C 
HETATM   37  C   UNL     1      -8.027   1.037 -31.303  1.00  0.00     0.138 C 
HETATM   38  C   UNL     1      -8.123   3.594 -31.276  1.00  0.00     0.129 C 
HETATM   39  N   UNL     1      -7.494   0.634 -32.606  1.00  0.00    -0.317 N 
HETATM   40  C   UNL     1      -6.520  -0.369 -32.590  1.00  0.00     0.247 A 
HETATM   41  O   UNL     1      -6.064  -0.881 -31.571  1.00  0.00    -0.268 OA
HETATM   42  C   UNL     1      -6.022  -0.826 -33.913  1.00  0.00     0.074 A 
HETATM   43  C   UNL     1      -6.539  -0.319 -35.037  1.00  0.00     0.007 A 
HETATM   44  C   UNL     1      -7.557   0.694 -34.979  1.00  0.00     0.026 A 
ENDBRANCH   4  31
TORSDOF 7
ENDMDL
MODEL 3
REMARK VINA RESULT:      -9.5      2.421      5.031
REMARK  7 active torsions:
REMARK  status: ('A' for Active; 'I' for Inactive)
REMARK    1  A    between atoms: C_2  and  O_3 
REMARK    2  A    between atoms: O_3  and  C_4 
REMARK       I    between atoms: C_4  and  N_5 
REMARK    3  A    between atoms: C_8  and  N_9 
REMARK       I    between atoms: N_9  and  C_10 
REMARK    4  A    between atoms: C_10  and  C_11 
REMARK    5  A    between atoms: C_13  and  N_14 
REMARK       I    between atoms: N_14  and  C_15 
REMARK    6  A    between atoms: C_15  and  C_16 
REMARK    7  A    between atoms: C_22  and  N_23 
ROOT
HETATM    1  C   UNL     1      -4.409   4.299 -33.282  1.00  0.00     0.034 A 
HETATM    2  C   UNL     1      -4.678   3.416 -32.234  1.00  0.00     0.049 A 
HETATM    3  C   UNL     1      -5.954   2.840 -32.075  1.00  0.00     0.062 A 
HETATM    4  C   UNL     1      -7.016   3.170 -32.952  1.00  0.00     0.057 A 
HETATM    5  C   UNL     1      -6.713   4.068 -33.993  1.00  0.00     0.033 A 
HETATM    6  C   UNL     1      -5.439   4.623 -34.161  1.00  0.00     0.019 A 
ENDROOT
BRANCH   1   7
HETATM    7  C   UNL     1      -3.078   4.948 -33.476  1.00  0.00     0.252 C 
HETATM    8  N   UNL     1      -2.546   5.617 -32.391  1.00  0.00    -0.352 N 
HETATM    9  H   UNL     1      -2.947   5.450 -31.480  1.00  0.00     0.163 HD
HETATM   10  O   UNL     1      -2.500   4.859 -34.554  1.00  0.00    -0.268 OA
BRANCH   8  11
HETATM   11  C   UNL     1      -1.218   6.222 -32.432  1.00  0.00     0.087 C 
HETATM   12  C   UNL     1      -1.222   7.600 -31.769  1.00  0.00     0.045 C 
HETATM   13  C   UNL     1      -1.400   7.517 -30.259  1.00  0.00     0.130 C 
HETATM   14  N   UNL     1      -0.494   6.556 -29.636  1.00  0.00    -0.328 N 
HETATM   15  C   UNL     1      -0.175   6.650 -28.285  1.00  0.00     0.362 C 
HETATM   16  C   UNL     1      -0.375   5.242 -30.259  1.00  0.00     0.130 C 
HETATM   17  O   UNL     1       0.375   5.757 -27.647  1.00  0.00    -0.238 OA
HETATM   18  C   UNL     1      -0.177   5.321 -31.769  1.00  0.00     0.045 C 
BRANCH  15  19
HETATM   19  O   UNL     1      -0.544   7.844 -27.746  1.00  0.00    -0.304 OA
BRANCH  19  20
HETATM   20  C   UNL     1       0.389   8.448 -26.840  1.00  0.00     0.176 C 
HETATM   21  C   UNL     1       1.654   8.835 -27.583  1.00  0.00     0.034 C 
ENDBRANCH  19  20
ENDBRANCH  15  19
ENDBRANCH   8  11
ENDBRANCH   1   7
BRANCH   3  22
HETATM   22  N   UNL     1      -6.157   1.928 -31.012  1.00  0.00    -0.320 N 
HETATM   23  C   UNL     1      -5.557   0.697 -30.853  1.00  0.00     0.263 C 
HETATM   24  O   UNL     1      -5.218   0.358 -29.719  1.00  0.00    -0.267 OA
HETATM   25  H   UNL     1      -6.442   2.340 -30.139  1.00  0.00     0.169 HD
BRANCH  23  26
HETATM   26  C   UNL     1      -5.473  -0.162 -32.028  1.00  0.00     0.072 A 
HETATM   27  S   UNL     1      -3.941  -0.651 -32.619  1.00  0.00    -0.097 SA
HETATM   28  C   UNL     1      -4.644  -1.608 -33.850  1.00  0.00     0.050 A 
HETATM   29  C   UNL     1      -6.020  -1.562 -33.819  1.00  0.00     0.009 A 
HETATM   30  C   UNL     1      -6.498  -0.728 -32.769  1.00  0.00     0.025 A 
ENDBRANCH  23  26
ENDBRANCH   3  22
BRANCH   4  31
HETATM   31  N   UNL     1      -8.290   2.620 -32.873  1.00  0.00    -0.378 N 
HETATM   32  C   UNL     1      -9.146   2.803 -31.699  1.00  0.00     0.134 C 
HETATM   33  C   UNL     1     -10.556   3.286 -32.107  1.00  0.00     0.054 C 
HETATM   34  C   UNL     1     -11.163   2.309 -33.111  1.00  0.00     0.020 C 
HETATM   35  C   UNL     1     -10.462   4.688 -32.683  1.00  0.00     0.020 A 
HETATM   36  C   UNL     1     -10.278   2.320 -34.351  1.00  0.00     0.023 C 
HETATM   37  C   UNL     1     -10.321   3.718 -34.979  1.00  0.00     0.138 C 
HETATM   38  C   UNL     1      -8.849   1.868 -34.001  1.00  0.00     0.129 C 
HETATM   39  N   UNL     1     -10.267   4.853 -34.055  1.00  0.00    -0.317 N 
HETATM   40  C   UNL     1     -10.101   6.114 -34.638  1.00  0.00     0.247 A 
HETATM   41  O   UNL     1      -9.954   6.312 -35.841  1.00  0.00    -0.268 OA
HETATM   42  C   UNL     1     -10.109   7.275 -33.710  1.00  0.00     0.074 A 
HETATM   43  C   UNL     1     -10.317   7.089 -32.403  1.00  0.00     0.007 A 
HETATM   44  C   UNL     1     -10.505   5.765 -31.876  1.00  0.00     0.026 A 
ENDBRANCH   4  31
TORSDOF 7
ENDMDL
MODEL 4
REMARK VINA RESULT:      -9.2      2.276      4.978
REMARK  7 active torsions:
REMARK  status: ('A' for Active; 'I' for Inactive)
REMARK    1  A    between atoms: C_2  and  O_3 
REMARK    2  A    between atoms: O_3  and  C_4 
REMARK       I    between atoms: C_4  and  N_5 
REMARK    3  A    between atoms: C_8  and  N_9 
REMARK       I    between atoms: N_9  and  C_10 
REMARK    4  A    between atoms: C_10  and  C_11 
REMARK    5  A    between atoms: C_13  and  N_14 
REMARK       I    between atoms: N_14  and  C_15 
REMARK    6  A    between atoms: C_15  and  C_16 
REMARK    7  A    between atoms: C_22  and  N_23 
ROOT
HETATM    1  C   UNL     1      -5.448   4.868 -34.057  1.00  0.00     0.034 A 
HETATM    2  C   UNL     1      -5.685   3.517 -34.320  1.00  0.00     0.049 A 
HETATM    3  C   UNL     1      -6.933   2.927 -34.036  1.00  0.00     0.062 A 
HETATM    4  C   UNL     1      -7.974   3.679 -33.438  1.00  0.00     0.057 A 
HETATM    5  C   UNL     1      -7.699   5.036 -33.181  1.00  0.00     0.033 A 
HETATM    6  C   UNL     1      -6.466   5.624 -33.483  1.00  0.00     0.019 A 
ENDROOT
BRANCH   1   7
HETATM    7  C   UNL     1      -4.135   5.528 -34.323  1.00  0.00     0.252 C 
HETATM    8  N   UNL     1      -3.559   6.218 -33.274  1.00  0.00    -0.352 N 
HETATM    9  H   UNL     1      -3.913   6.060 -32.343  1.00  0.00     0.163 HD
HETATM   10  O   UNL     1      -3.608   5.430 -35.426  1.00  0.00    -0.268 OA
BRANCH   8  11
HETATM   11  C   UNL     1      -2.242   6.837 -33.388  1.00  0.00     0.087 C 
HETATM   12  C   UNL     1      -1.996   7.818 -32.242  1.00  0.00     0.045 C 
HETATM   13  C   UNL     1      -1.815   7.115 -30.903  1.00  0.00     0.130 C 
HETATM   14  N   UNL     1      -0.854   6.018 -30.967  1.00  0.00    -0.328 N 
HETATM   15  C   UNL     1      -0.217   5.560 -29.818  1.00  0.00     0.362 C 
HETATM   16  C   UNL     1      -0.974   5.083 -32.080  1.00  0.00     0.130 C 
HETATM   17  O   UNL     1       0.408   4.506 -29.755  1.00  0.00    -0.238 OA
HETATM   18  C   UNL     1      -1.135   5.782 -33.425  1.00  0.00     0.045 C 
BRANCH  15  19
HETATM   19  O   UNL     1      -0.367   6.412 -28.767  1.00  0.00    -0.304 OA
BRANCH  19  20
HETATM   20  C   UNL     1       0.820   6.720 -28.024  1.00  0.00     0.176 C 
HETATM   21  C   UNL     1       1.155   8.192 -28.172  1.00  0.00     0.034 C 
ENDBRANCH  19  20
ENDBRANCH  15  19
ENDBRANCH   8  11
ENDBRANCH   1   7
BRANCH   3  22
HETATM   22  N   UNL     1      -7.124   1.561 -34.354  1.00  0.00    -0.320 N 
HETATM   23  C   UNL     1      -7.313   0.525 -33.465  1.00  0.00     0.263 C 
HETATM   24  O   UNL     1      -8.125  -0.353 -33.760  1.00  0.00    -0.267 OA
HETATM   25  H   UNL     1      -7.529   1.381 -35.257  1.00  0.00     0.169 HD
BRANCH  23  26
HETATM   26  C   UNL     1      -6.450   0.485 -32.291  1.00  0.00     0.072 A 
HETATM   27  S   UNL     1      -4.798   0.065 -32.462  1.00  0.00    -0.097 SA
HETATM   28  C   UNL     1      -4.494   0.301 -30.796  1.00  0.00     0.050 A 
HETATM   29  C   UNL     1      -5.623   0.693 -30.113  1.00  0.00     0.009 A 
HETATM   30  C   UNL     1      -6.751   0.798 -30.975  1.00  0.00     0.025 A 
ENDBRANCH  23  26
ENDBRANCH   3  22
BRANCH   4  31
HETATM   31  N   UNL     1      -9.237   3.172 -33.157  1.00  0.00    -0.378 N 
HETATM   32  C   UNL     1      -9.737   3.040 -31.786  1.00  0.00     0.134 C 
HETATM   33  C   UNL     1     -11.142   3.666 -31.643  1.00  0.00     0.054 C 
HETATM   34  C   UNL     1     -12.091   3.038 -32.661  1.00  0.00     0.020 C 
HETATM   35  C   UNL     1     -11.045   5.171 -31.828  1.00  0.00     0.020 A 
HETATM   36  C   UNL     1     -11.559   3.374 -34.049  1.00  0.00     0.023 C 
HETATM   37  C   UNL     1     -11.608   4.893 -34.244  1.00  0.00     0.138 C 
HETATM   38  C   UNL     1     -10.147   2.793 -34.243  1.00  0.00     0.129 C 
HETATM   39  N   UNL     1     -11.193   5.715 -33.106  1.00  0.00    -0.317 N 
HETATM   40  C   UNL     1     -11.044   7.083 -33.354  1.00  0.00     0.247 A 
HETATM   41  O   UNL     1     -11.191   7.611 -34.454  1.00  0.00    -0.268 OA
HETATM   42  C   UNL     1     -10.685   7.930 -32.187  1.00  0.00     0.074 A 
HETATM   43  C   UNL     1     -10.569   7.385 -30.972  1.00  0.00     0.007 A 
HETATM   44  C   UNL     1     -10.760   5.973 -30.785  1.00  0.00     0.026 A 
ENDBRANCH   4  31
TORSDOF 7
ENDMDL
MODEL 5
REMARK VINA RESULT:      -8.9      3.001      9.318
REMARK  7 active torsions:
REMARK  status: ('A' for Active; 'I' for Inactive)
REMARK    1  A    between atoms: C_2  and  O_3 
REMARK    2  A    between atoms: O_3  and  C_4 
REMARK       I    between atoms: C_4  and  N_5 
REMARK    3  A    between atoms: C_8  and  N_9 
REMARK       I    between atoms: N_9  and  C_10 
REMARK    4  A    between atoms: C_10  and  C_11 
REMARK    5  A    between atoms: C_13  and  N_14 
REMARK       I    between atoms: N_14  and  C_15 
REMARK    6  A    between atoms: C_15  and  C_16 
REMARK    7  A    between atoms: C_22  and  N_23 
ROOT
HETATM    1  C   UNL     1      -5.933   4.611 -30.360  1.00  0.00     0.034 A 
HETATM    2  C   UNL     1      -5.400   5.178 -31.520  1.00  0.00     0.049 A 
HETATM    3  C   UNL     1      -4.612   6.345 -31.465  1.00  0.00     0.062 A 
HETATM    4  C   UNL     1      -4.369   7.002 -30.235  1.00  0.00     0.057 A 
HETATM    5  C   UNL     1      -4.925   6.408 -29.086  1.00  0.00     0.033 A 
HETATM    6  C   UNL     1      -5.690   5.237 -29.140  1.00  0.00     0.019 A 
ENDROOT
BRANCH   1   7
HETATM    7  C   UNL     1      -6.789   3.388 -30.374  1.00  0.00     0.252 C 
HETATM    8  N   UNL     1      -6.402   2.365 -31.218  1.00  0.00    -0.352 N 
HETATM    9  H   UNL     1      -5.468   2.384 -31.599  1.00  0.00     0.163 HD
HETATM   10  O   UNL     1      -7.774   3.316 -29.647  1.00  0.00    -0.268 OA
BRANCH   8  11
HETATM   11  C   UNL     1      -7.111   1.090 -31.261  1.00  0.00     0.087 C 
HETATM   12  C   UNL     1      -7.201   0.560 -32.692  1.00  0.00     0.045 C 
HETATM   13  C   UNL     1      -5.851   0.101 -33.228  1.00  0.00     0.130 C 
HETATM   14  N   UNL     1      -5.150  -0.787 -32.305  1.00  0.00    -0.328 N 
HETATM   15  C   UNL     1      -4.162  -1.654 -32.762  1.00  0.00     0.362 C 
HETATM   16  C   UNL     1      -5.091  -0.388 -30.903  1.00  0.00     0.130 C 
HETATM   17  O   UNL     1      -3.376  -2.244 -32.028  1.00  0.00    -0.238 OA
HETATM   18  C   UNL     1      -6.444   0.053 -30.357  1.00  0.00     0.045 C 
BRANCH  15  19
HETATM   19  O   UNL     1      -4.162  -1.772 -34.118  1.00  0.00    -0.304 OA
BRANCH  19  20
HETATM   20  C   UNL     1      -4.430  -3.080 -34.642  1.00  0.00     0.176 C 
HETATM   21  C   UNL     1      -5.918  -3.241 -34.892  1.00  0.00     0.034 C 
ENDBRANCH  19  20
ENDBRANCH  15  19
ENDBRANCH   8  11
ENDBRANCH   1   7
BRANCH   3  22
HETATM   22  N   UNL     1      -4.075   6.855 -32.671  1.00  0.00    -0.320 N 
HETATM   23  C   UNL     1      -2.908   6.458 -33.290  1.00  0.00     0.263 C 
HETATM   24  O   UNL     1      -2.899   6.379 -34.518  1.00  0.00    -0.267 OA
HETATM   25  H   UNL     1      -4.747   7.240 -33.315  1.00  0.00     0.169 HD
BRANCH  23  26
HETATM   26  C   UNL     1      -1.734   6.272 -32.445  1.00  0.00     0.072 A 
HETATM   27  S   UNL     1      -1.519   4.799 -31.597  1.00  0.00    -0.097 SA
HETATM   28  C   UNL     1      -0.014   5.304 -30.962  1.00  0.00     0.050 A 
HETATM   29  C   UNL     1       0.327   6.570 -31.383  1.00  0.00     0.009 A 
HETATM   30  C   UNL     1      -0.665   7.128 -32.237  1.00  0.00     0.025 A 
ENDBRANCH  23  26
ENDBRANCH   3  22
BRANCH   4  31
HETATM   31  N   UNL     1      -3.579   8.138 -30.103  1.00  0.00    -0.378 N 
HETATM   32  C   UNL     1      -3.963   9.426 -30.685  1.00  0.00     0.134 C 
HETATM   33  C   UNL     1      -3.872  10.560 -29.640  1.00  0.00     0.054 C 
HETATM   34  C   UNL     1      -2.468  10.598 -29.043  1.00  0.00     0.020 C 
HETATM   35  C   UNL     1      -4.926  10.344 -28.568  1.00  0.00     0.020 A 
HETATM   36  C   UNL     1      -2.239   9.272 -28.329  1.00  0.00     0.023 C 
HETATM   37  C   UNL     1      -3.234   9.156 -27.168  1.00  0.00     0.138 C 
HETATM   38  C   UNL     1      -2.340   8.098 -29.319  1.00  0.00     0.129 C 
HETATM   39  N   UNL     1      -4.606   9.594 -27.434  1.00  0.00    -0.317 N 
HETATM   40  C   UNL     1      -5.550   9.298 -26.446  1.00  0.00     0.247 A 
HETATM   41  O   UNL     1      -5.310   8.668 -25.419  1.00  0.00    -0.268 OA
HETATM   42  C   UNL     1      -6.930   9.796 -26.682  1.00  0.00     0.074 A 
HETATM   43  C   UNL     1      -7.204  10.527 -27.767  1.00  0.00     0.007 A 
HETATM   44  C   UNL     1      -6.176  10.814 -28.731  1.00  0.00     0.026 A 
ENDBRANCH   4  31
TORSDOF 7
ENDMDL
MODEL 6
REMARK VINA RESULT:      -8.6      2.686      9.225
REMARK  7 active torsions:
REMARK  status: ('A' for Active; 'I' for Inactive)
REMARK    1  A    between atoms: C_2  and  O_3 
REMARK    2  A    between atoms: O_3  and  C_4 
REMARK       I    between atoms: C_4  and  N_5 
REMARK    3  A    between atoms: C_8  and  N_9 
REMARK       I    between atoms: N_9  and  C_10 
REMARK    4  A    between atoms: C_10  and  C_11 
REMARK    5  A    between atoms: C_13  and  N_14 
REMARK       I    between atoms: N_14  and  C_15 
REMARK    6  A    between atoms: C_15  and  C_16 
REMARK    7  A    between atoms: C_22  and  N_23 
ROOT
HETATM    1  C   UNL     1      -5.651   3.568 -30.740  1.00  0.00     0.034 A 
HETATM    2  C   UNL     1      -6.340   4.337 -29.798  1.00  0.00     0.049 A 
HETATM    3  C   UNL     1      -5.842   5.584 -29.372  1.00  0.00     0.062 A 
HETATM    4  C   UNL     1      -4.608   6.080 -29.856  1.00  0.00     0.057 A 
HETATM    5  C   UNL     1      -3.937   5.278 -30.800  1.00  0.00     0.033 A 
HETATM    6  C   UNL     1      -4.443   4.049 -31.237  1.00  0.00     0.019 A 
ENDROOT
BRANCH   1   7
HETATM    7  C   UNL     1      -6.131   2.233 -31.205  1.00  0.00     0.252 C 
HETATM    8  N   UNL     1      -7.136   2.225 -32.152  1.00  0.00    -0.352 N 
HETATM    9  H   UNL     1      -7.336   3.082 -32.647  1.00  0.00     0.163 HD
HETATM   10  O   UNL     1      -5.626   1.207 -30.761  1.00  0.00    -0.268 OA
BRANCH   8  11
HETATM   11  C   UNL     1      -7.633   0.986 -32.742  1.00  0.00     0.087 C 
HETATM   12  C   UNL     1      -8.889   0.499 -32.019  1.00  0.00     0.045 C 
HETATM   13  C   UNL     1     -10.095   1.390 -32.285  1.00  0.00     0.130 C 
HETATM   14  N   UNL     1     -10.291   1.664 -33.706  1.00  0.00    -0.328 N 
HETATM   15  C   UNL     1     -11.536   2.051 -34.191  1.00  0.00     0.362 C 
HETATM   16  C   UNL     1      -9.121   2.058 -34.483  1.00  0.00     0.130 C 
HETATM   17  O   UNL     1     -11.718   2.524 -35.309  1.00  0.00    -0.238 OA
HETATM   18  C   UNL     1      -7.917   1.156 -34.235  1.00  0.00     0.045 C 
BRANCH  15  19
HETATM   19  O   UNL     1     -12.532   1.850 -33.286  1.00  0.00    -0.304 OA
BRANCH  19  20
HETATM   20  C   UNL     1     -13.640   1.054 -33.726  1.00  0.00     0.176 C 
HETATM   21  C   UNL     1     -13.307  -0.420 -33.581  1.00  0.00     0.034 C 
ENDBRANCH  19  20
ENDBRANCH  15  19
ENDBRANCH   8  11
ENDBRANCH   1   7
BRANCH   3  22
HETATM   22  N   UNL     1      -6.601   6.330 -28.438  1.00  0.00    -0.320 N 
HETATM   23  C   UNL     1      -7.893   6.783 -28.597  1.00  0.00     0.263 C 
HETATM   24  O   UNL     1      -8.648   6.739 -27.625  1.00  0.00    -0.267 OA
HETATM   25  H   UNL     1      -6.349   6.197 -27.473  1.00  0.00     0.169 HD
BRANCH  23  26
HETATM   26  C   UNL     1      -8.237   7.390 -29.877  1.00  0.00     0.072 A 
HETATM   27  S   UNL     1      -9.277   6.564 -30.960  1.00  0.00    -0.097 SA
HETATM   28  C   UNL     1      -9.242   7.853 -32.084  1.00  0.00     0.050 A 
HETATM   29  C   UNL     1      -8.456   8.897 -31.651  1.00  0.00     0.009 A 
HETATM   30  C   UNL     1      -7.876   8.630 -30.379  1.00  0.00     0.025 A 
ENDBRANCH  23  26
ENDBRANCH   3  22
BRANCH   4  31
HETATM   31  N   UNL     1      -4.072   7.313 -29.502  1.00  0.00    -0.378 N 
HETATM   32  C   UNL     1      -3.223   7.483 -28.321  1.00  0.00     0.134 C 
HETATM   33  C   UNL     1      -1.919   8.233 -28.674  1.00  0.00     0.054 C 
HETATM   34  C   UNL     1      -2.257   9.568 -29.333  1.00  0.00     0.020 C 
HETATM   35  C   UNL     1      -1.068   7.364 -29.583  1.00  0.00     0.020 A 
HETATM   36  C   UNL     1      -2.998   9.263 -30.629  1.00  0.00     0.023 C 
HETATM   37  C   UNL     1      -2.056   8.505 -31.572  1.00  0.00     0.138 C 
HETATM   38  C   UNL     1      -4.300   8.494 -30.341  1.00  0.00     0.129 C 
HETATM   39  N   UNL     1      -1.222   7.464 -30.967  1.00  0.00    -0.317 N 
HETATM   40  C   UNL     1      -0.520   6.643 -31.856  1.00  0.00     0.247 A 
HETATM   41  O   UNL     1      -0.601   6.712 -33.080  1.00  0.00    -0.268 OA
HETATM   42  C   UNL     1       0.377   5.627 -31.247  1.00  0.00     0.074 A 
HETATM   43  C   UNL     1       0.519   5.566 -29.919  1.00  0.00     0.007 A 
HETATM   44  C   UNL     1      -0.216   6.460 -29.066  1.00  0.00     0.026 A 
ENDBRANCH   4  31
TORSDOF 7
ENDMDL
MODEL 7
REMARK VINA RESULT:      -8.5     18.552     20.663
REMARK  7 active torsions:
REMARK  status: ('A' for Active; 'I' for Inactive)
REMARK    1  A    between atoms: C_2  and  O_3 
REMARK    2  A    between atoms: O_3  and  C_4 
REMARK       I    between atoms: C_4  and  N_5 
REMARK    3  A    between atoms: C_8  and  N_9 
REMARK       I    between atoms: N_9  and  C_10 
REMARK    4  A    between atoms: C_10  and  C_11 
REMARK    5  A    between atoms: C_13  and  N_14 
REMARK       I    between atoms: N_14  and  C_15 
REMARK    6  A    between atoms: C_15  and  C_16 
REMARK    7  A    between atoms: C_22  and  N_23 
ROOT
HETATM    1  C   UNL     1      -6.397 -15.001 -35.061  1.00  0.00     0.034 A 
HETATM    2  C   UNL     1      -5.394 -14.064 -35.321  1.00  0.00     0.049 A 
HETATM    3  C   UNL     1      -5.163 -13.587 -36.627  1.00  0.00     0.062 A 
HETATM    4  C   UNL     1      -5.916 -14.074 -37.723  1.00  0.00     0.057 A 
HETATM    5  C   UNL     1      -6.914 -15.022 -37.426  1.00  0.00     0.033 A 
HETATM    6  C   UNL     1      -7.156 -15.478 -36.126  1.00  0.00     0.019 A 
ENDROOT
BRANCH   1   7
HETATM    7  C   UNL     1      -6.662 -15.548 -33.697  1.00  0.00     0.252 C 
HETATM    8  N   UNL     1      -5.712 -16.401 -33.170  1.00  0.00    -0.352 N 
HETATM    9  H   UNL     1      -4.802 -16.434 -33.606  1.00  0.00     0.163 HD
HETATM   10  O   UNL     1      -7.678 -15.224 -33.089  1.00  0.00    -0.268 OA
BRANCH   8  11
HETATM   11  C   UNL     1      -5.820 -16.935 -31.816  1.00  0.00     0.087 C 
HETATM   12  C   UNL     1      -4.840 -18.089 -31.602  1.00  0.00     0.045 C 
HETATM   13  C   UNL     1      -3.391 -17.621 -31.559  1.00  0.00     0.130 C 
HETATM   14  N   UNL     1      -3.190 -16.491 -30.657  1.00  0.00    -0.328 N 
HETATM   15  C   UNL     1      -1.932 -16.212 -30.132  1.00  0.00     0.362 C 
HETATM   16  C   UNL     1      -4.135 -15.383 -30.746  1.00  0.00     0.130 C 
HETATM   17  O   UNL     1      -1.641 -15.159 -29.573  1.00  0.00    -0.238 OA
HETATM   18  C   UNL     1      -5.588 -15.846 -30.769  1.00  0.00     0.045 C 
BRANCH  15  19
HETATM   19  O   UNL     1      -1.055 -17.238 -30.313  1.00  0.00    -0.304 OA
BRANCH  19  20
HETATM   20  C   UNL     1       0.226 -16.890 -30.855  1.00  0.00     0.176 C 
HETATM   21  C   UNL     1       0.168 -16.906 -32.371  1.00  0.00     0.034 C 
ENDBRANCH  19  20
ENDBRANCH  15  19
ENDBRANCH   8  11
ENDBRANCH   1   7
BRANCH   3  22
HETATM   22  N   UNL     1      -4.153 -12.616 -36.822  1.00  0.00    -0.320 N 
HETATM   23  C   UNL     1      -2.952 -12.791 -37.477  1.00  0.00     0.263 C 
HETATM   24  O   UNL     1      -2.539 -11.876 -38.188  1.00  0.00    -0.267 OA
HETATM   25  H   UNL     1      -4.471 -11.660 -36.838  1.00  0.00     0.169 HD
BRANCH  23  26
HETATM   26  C   UNL     1      -2.203 -14.007 -37.182  1.00  0.00     0.072 A 
HETATM   27  S   UNL     1      -2.042 -15.220 -38.382  1.00  0.00    -0.097 SA
HETATM   28  C   UNL     1      -1.058 -16.187 -37.371  1.00  0.00     0.050 A 
HETATM   29  C   UNL     1      -0.851 -15.605 -36.140  1.00  0.00     0.009 A 
HETATM   30  C   UNL     1      -1.511 -14.349 -36.031  1.00  0.00     0.025 A 
ENDBRANCH  23  26
ENDBRANCH   3  22
BRANCH   4  31
HETATM   31  N   UNL     1      -5.763 -13.628 -39.030  1.00  0.00    -0.378 N 
HETATM   32  C   UNL     1      -5.338 -14.520 -40.113  1.00  0.00     0.134 C 
HETATM   33  C   UNL     1      -6.282 -14.407 -41.331  1.00  0.00     0.054 C 
HETATM   34  C   UNL     1      -6.362 -12.952 -41.786  1.00  0.00     0.020 C 
HETATM   35  C   UNL     1      -7.651 -14.949 -40.959  1.00  0.00     0.020 A 
HETATM   36  C   UNL     1      -6.964 -12.148 -40.640  1.00  0.00     0.023 C 
HETATM   37  C   UNL     1      -8.395 -12.635 -40.390  1.00  0.00     0.138 C 
HETATM   38  C   UNL     1      -6.075 -12.240 -39.387  1.00  0.00     0.129 C 
HETATM   39  N   UNL     1      -8.612 -14.083 -40.434  1.00  0.00    -0.317 N 
HETATM   40  C   UNL     1      -9.866 -14.531 -40.006  1.00  0.00     0.247 A 
HETATM   41  O   UNL     1     -10.752 -13.805 -39.564  1.00  0.00    -0.268 OA
HETATM   42  C   UNL     1     -10.113 -15.993 -40.108  1.00  0.00     0.074 A 
HETATM   43  C   UNL     1      -9.182 -16.797 -40.633  1.00  0.00     0.007 A 
HETATM   44  C   UNL     1      -7.923 -16.262 -41.076  1.00  0.00     0.026 A 
ENDBRANCH   4  31
TORSDOF 7
ENDMDL
MODEL 8
REMARK VINA RESULT:      -8.3      1.603      2.275
REMARK  7 active torsions:
REMARK  status: ('A' for Active; 'I' for Inactive)
REMARK    1  A    between atoms: C_2  and  O_3 
REMARK    2  A    between atoms: O_3  and  C_4 
REMARK       I    between atoms: C_4  and  N_5 
REMARK    3  A    between atoms: C_8  and  N_9 
REMARK       I    between atoms: N_9  and  C_10 
REMARK    4  A    between atoms: C_10  and  C_11 
REMARK    5  A    between atoms: C_13  and  N_14 
REMARK       I    between atoms: N_14  and  C_15 
REMARK    6  A    between atoms: C_15  and  C_16 
REMARK    7  A    between atoms: C_22  and  N_23 
ROOT
HETATM    1  C   UNL     1      -5.314   5.735 -33.381  1.00  0.00     0.034 A 
HETATM    2  C   UNL     1      -5.938   6.721 -32.612  1.00  0.00     0.049 A 
HETATM    3  C   UNL     1      -7.288   6.599 -32.227  1.00  0.00     0.062 A 
HETATM    4  C   UNL     1      -8.065   5.490 -32.640  1.00  0.00     0.057 A 
HETATM    5  C   UNL     1      -7.407   4.518 -33.419  1.00  0.00     0.033 A 
HETATM    6  C   UNL     1      -6.061   4.631 -33.782  1.00  0.00     0.019 A 
ENDROOT
BRANCH   1   7
HETATM    7  C   UNL     1      -3.892   5.834 -33.828  1.00  0.00     0.252 C 
HETATM    8  N   UNL     1      -2.950   6.115 -32.857  1.00  0.00    -0.352 N 
HETATM    9  H   UNL     1      -3.214   6.014 -31.888  1.00  0.00     0.163 HD
HETATM   10  O   UNL     1      -3.602   5.651 -35.005  1.00  0.00    -0.268 OA
BRANCH   8  11
HETATM   11  C   UNL     1      -1.523   6.158 -33.156  1.00  0.00     0.087 C 
HETATM   12  C   UNL     1      -0.910   7.489 -32.721  1.00  0.00     0.045 C 
HETATM   13  C   UNL     1      -0.841   7.629 -31.206  1.00  0.00     0.130 C 
HETATM   14  N   UNL     1      -0.254   6.460 -30.557  1.00  0.00    -0.328 N 
HETATM   15  C   UNL     1       0.307   6.557 -29.287  1.00  0.00     0.362 C 
HETATM   16  C   UNL     1      -0.731   5.147 -30.978  1.00  0.00     0.130 C 
HETATM   17  O   UNL     1       0.596   5.588 -28.591  1.00  0.00    -0.238 OA
HETATM   18  C   UNL     1      -0.782   4.995 -32.494  1.00  0.00     0.045 C 
BRANCH  15  19
HETATM   19  O   UNL     1       0.496   7.847 -28.899  1.00  0.00    -0.304 OA
BRANCH  19  20
HETATM   20  C   UNL     1       0.431   8.103 -27.490  1.00  0.00     0.176 C 
HETATM   21  C   UNL     1       1.784   8.571 -26.986  1.00  0.00     0.034 C 
ENDBRANCH  19  20
ENDBRANCH  15  19
ENDBRANCH   8  11
ENDBRANCH   1   7
BRANCH   3  22
HETATM   22  N   UNL     1      -7.855   7.616 -31.423  1.00  0.00    -0.320 N 
HETATM   23  C   UNL     1      -7.274   8.230 -30.334  1.00  0.00     0.263 C 
HETATM   24  O   UNL     1      -7.448   9.440 -30.188  1.00  0.00    -0.267 OA
HETATM   25  H   UNL     1      -8.539   8.196 -31.880  1.00  0.00     0.169 HD
BRANCH  23  26
HETATM   26  C   UNL     1      -6.591   7.375 -29.370  1.00  0.00     0.072 A 
HETATM   27  S   UNL     1      -4.975   7.720 -28.919  1.00  0.00    -0.097 SA
HETATM   28  C   UNL     1      -4.935   6.422 -27.807  1.00  0.00     0.050 A 
HETATM   29  C   UNL     1      -6.127   5.733 -27.772  1.00  0.00     0.009 A 
HETATM   30  C   UNL     1      -7.081   6.281 -28.674  1.00  0.00     0.025 A 
ENDBRANCH  23  26
ENDBRANCH   3  22
BRANCH   4  31
HETATM   31  N   UNL     1      -9.391   5.291 -32.275  1.00  0.00    -0.378 N 
HETATM   32  C   UNL     1     -10.450   5.085 -33.266  1.00  0.00     0.134 C 
HETATM   33  C   UNL     1     -11.298   3.839 -32.925  1.00  0.00     0.054 C 
HETATM   34  C   UNL     1     -11.856   3.969 -31.510  1.00  0.00     0.020 C 
HETATM   35  C   UNL     1     -10.445   2.592 -33.074  1.00  0.00     0.020 A 
HETATM   36  C   UNL     1     -10.670   4.014 -30.554  1.00  0.00     0.023 C 
HETATM   37  C   UNL     1      -9.916   2.682 -30.636  1.00  0.00     0.138 C 
HETATM   38  C   UNL     1      -9.773   5.227 -30.860  1.00  0.00     0.129 C 
HETATM   39  N   UNL     1      -9.731   2.115 -31.973  1.00  0.00    -0.317 N 
HETATM   40  C   UNL     1      -8.873   1.014 -32.061  1.00  0.00     0.247 A 
HETATM   41  O   UNL     1      -8.246   0.541 -31.116  1.00  0.00    -0.268 OA
HETATM   42  C   UNL     1      -8.731   0.395 -33.405  1.00  0.00     0.074 A 
HETATM   43  C   UNL     1      -9.441   0.861 -34.437  1.00  0.00     0.007 A 
HETATM   44  C   UNL     1     -10.325   1.982 -34.267  1.00  0.00     0.026 A 
ENDBRANCH   4  31
TORSDOF 7
ENDMDL
MODEL 9
REMARK VINA RESULT:      -8.3      3.244      5.951
REMARK  7 active torsions:
REMARK  status: ('A' for Active; 'I' for Inactive)
REMARK    1  A    between atoms: C_2  and  O_3 
REMARK    2  A    between atoms: O_3  and  C_4 
REMARK       I    between atoms: C_4  and  N_5 
REMARK    3  A    between atoms: C_8  and  N_9 
REMARK       I    between atoms: N_9  and  C_10 
REMARK    4  A    between atoms: C_10  and  C_11 
REMARK    5  A    between atoms: C_13  and  N_14 
REMARK       I    between atoms: N_14  and  C_15 
REMARK    6  A    between atoms: C_15  and  C_16 
REMARK    7  A    between atoms: C_22  and  N_23 
ROOT
HETATM    1  C   UNL     1      -8.279   5.000 -30.801  1.00  0.00     0.034 A 
HETATM    2  C   UNL     1      -7.619   4.315 -31.824  1.00  0.00     0.049 A 
HETATM    3  C   UNL     1      -8.337   3.601 -32.804  1.00  0.00     0.062 A 
HETATM    4  C   UNL     1      -9.750   3.524 -32.760  1.00  0.00     0.057 A 
HETATM    5  C   UNL     1     -10.383   4.221 -31.713  1.00  0.00     0.033 A 
HETATM    6  C   UNL     1      -9.669   4.947 -30.752  1.00  0.00     0.019 A 
ENDROOT
BRANCH   1   7
HETATM    7  C   UNL     1      -7.558   5.753 -29.731  1.00  0.00     0.252 C 
HETATM    8  N   UNL     1      -6.537   6.590 -30.137  1.00  0.00    -0.352 N 
HETATM    9  H   UNL     1      -6.475   6.834 -31.114  1.00  0.00     0.163 HD
HETATM   10  O   UNL     1      -7.889   5.625 -28.557  1.00  0.00    -0.268 OA
BRANCH   8  11
HETATM   11  C   UNL     1      -5.813   7.437 -29.194  1.00  0.00     0.087 C 
HETATM   12  C   UNL     1      -4.502   6.779 -28.762  1.00  0.00     0.045 C 
HETATM   13  C   UNL     1      -3.474   6.738 -29.885  1.00  0.00     0.130 C 
HETATM   14  N   UNL     1      -3.306   8.030 -30.543  1.00  0.00    -0.328 N 
HETATM   15  C   UNL     1      -2.143   8.324 -31.249  1.00  0.00     0.362 C 
HETATM   16  C   UNL     1      -4.514   8.758 -30.915  1.00  0.00     0.130 C 
HETATM   17  O   UNL     1      -2.031   9.276 -32.016  1.00  0.00    -0.238 OA
HETATM   18  C   UNL     1      -5.538   8.819 -29.787  1.00  0.00     0.045 C 
BRANCH  15  19
HETATM   19  O   UNL     1      -1.144   7.436 -30.998  1.00  0.00    -0.304 OA
BRANCH  19  20
HETATM   20  C   UNL     1      -0.489   6.875 -32.143  1.00  0.00     0.176 C 
HETATM   21  C   UNL     1      -0.988   5.462 -32.385  1.00  0.00     0.034 C 
ENDBRANCH  19  20
ENDBRANCH  15  19
ENDBRANCH   8  11
ENDBRANCH   1   7
BRANCH   3  22
HETATM   22  N   UNL     1      -7.613   2.952 -33.833  1.00  0.00    -0.320 N 
HETATM   23  C   UNL     1      -7.240   1.626 -33.871  1.00  0.00     0.263 C 
HETATM   24  O   UNL     1      -7.303   1.035 -34.949  1.00  0.00    -0.267 OA
HETATM   25  H   UNL     1      -7.708   3.358 -34.749  1.00  0.00     0.169 HD
BRANCH  23  26
HETATM   26  C   UNL     1      -6.686   1.052 -32.650  1.00  0.00     0.072 A 
HETATM   27  S   UNL     1      -5.019   1.243 -32.300  1.00  0.00    -0.097 SA
HETATM   28  C   UNL     1      -5.171   0.427 -30.804  1.00  0.00     0.050 A 
HETATM   29  C   UNL     1      -6.463   0.013 -30.568  1.00  0.00     0.009 A 
HETATM   30  C   UNL     1      -7.336   0.373 -31.632  1.00  0.00     0.025 A 
ENDBRANCH  23  26
ENDBRANCH   3  22
BRANCH   4  31
HETATM   31  N   UNL     1     -10.523   2.864 -33.707  1.00  0.00    -0.378 N 
HETATM   32  C   UNL     1     -11.389   1.735 -33.357  1.00  0.00     0.134 C 
HETATM   33  C   UNL     1     -12.817   1.935 -33.912  1.00  0.00     0.054 C 
HETATM   34  C   UNL     1     -12.755   2.162 -35.420  1.00  0.00     0.020 C 
HETATM   35  C   UNL     1     -13.476   3.104 -33.201  1.00  0.00     0.020 A 
HETATM   36  C   UNL     1     -11.967   3.445 -35.657  1.00  0.00     0.023 C 
HETATM   37  C   UNL     1     -12.737   4.619 -35.042  1.00  0.00     0.138 C 
HETATM   38  C   UNL     1     -10.538   3.313 -35.103  1.00  0.00     0.129 C 
HETATM   39  N   UNL     1     -13.345   4.390 -33.730  1.00  0.00    -0.317 N 
HETATM   40  C   UNL     1     -13.866   5.517 -33.087  1.00  0.00     0.247 A 
HETATM   41  O   UNL     1     -13.801   6.663 -33.526  1.00  0.00    -0.268 OA
HETATM   42  C   UNL     1     -14.541   5.280 -31.785  1.00  0.00     0.074 A 
HETATM   43  C   UNL     1     -14.668   4.036 -31.311  1.00  0.00     0.007 A 
HETATM   44  C   UNL     1     -14.129   2.920 -32.039  1.00  0.00     0.026 A 
ENDBRANCH   4  31
TORSDOF 7
ENDMDL
MODEL 10
REMARK VINA RESULT:      -8.3      3.149      9.978
REMARK  7 active torsions:
REMARK  status: ('A' for Active; 'I' for Inactive)
REMARK    1  A    between atoms: C_2  and  O_3 
REMARK    2  A    between atoms: O_3  and  C_4 
REMARK       I    between atoms: C_4  and  N_5 
REMARK    3  A    between atoms: C_8  and  N_9 
REMARK       I    between atoms: N_9  and  C_10 
REMARK    4  A    between atoms: C_10  and  C_11 
REMARK    5  A    between atoms: C_13  and  N_14 
REMARK       I    between atoms: N_14  and  C_15 
REMARK    6  A    between atoms: C_15  and  C_16 
REMARK    7  A    between atoms: C_22  and  N_23 
ROOT
HETATM    1  C   UNL     1      -4.920   6.586 -30.233  1.00  0.00     0.034 A 
HETATM    2  C   UNL     1      -3.617   6.112 -30.405  1.00  0.00     0.049 A 
HETATM    3  C   UNL     1      -2.541   6.661 -29.679  1.00  0.00     0.062 A 
HETATM    4  C   UNL     1      -2.742   7.737 -28.781  1.00  0.00     0.057 A 
HETATM    5  C   UNL     1      -4.066   8.194 -28.636  1.00  0.00     0.033 A 
HETATM    6  C   UNL     1      -5.137   7.633 -29.342  1.00  0.00     0.019 A 
ENDROOT
BRANCH   1   7
HETATM    7  C   UNL     1      -6.087   6.047 -30.995  1.00  0.00     0.252 C 
HETATM    8  N   UNL     1      -5.930   4.806 -31.581  1.00  0.00    -0.352 N 
HETATM    9  H   UNL     1      -5.154   4.231 -31.288  1.00  0.00     0.163 HD
HETATM   10  O   UNL     1      -7.128   6.691 -31.066  1.00  0.00    -0.268 OA
BRANCH   8  11
HETATM   11  C   UNL     1      -7.023   4.141 -32.283  1.00  0.00     0.087 C 
HETATM   12  C   UNL     1      -6.513   3.409 -33.525  1.00  0.00     0.045 C 
HETATM   13  C   UNL     1      -5.674   2.187 -33.175  1.00  0.00     0.130 C 
HETATM   14  N   UNL     1      -6.321   1.320 -32.195  1.00  0.00    -0.328 N 
HETATM   15  C   UNL     1      -5.965  -0.020 -32.083  1.00  0.00     0.362 C 
HETATM   16  C   UNL     1      -6.904   1.955 -31.018  1.00  0.00     0.130 C 
HETATM   17  O   UNL     1      -6.284  -0.737 -31.140  1.00  0.00    -0.238 OA
HETATM   18  C   UNL     1      -7.762   3.167 -31.365  1.00  0.00     0.045 C 
BRANCH  15  19
HETATM   19  O   UNL     1      -5.218  -0.449 -33.138  1.00  0.00    -0.304 OA
BRANCH  19  20
HETATM   20  C   UNL     1      -5.791  -1.488 -33.941  1.00  0.00     0.176 C 
HETATM   21  C   UNL     1      -6.744  -0.890 -34.960  1.00  0.00     0.034 C 
ENDBRANCH  19  20
ENDBRANCH  15  19
ENDBRANCH   8  11
ENDBRANCH   1   7
BRANCH   3  22
HETATM   22  N   UNL     1      -1.249   6.119 -29.875  1.00  0.00    -0.320 N 
HETATM   23  C   UNL     1      -0.478   6.207 -31.015  1.00  0.00     0.263 C 
HETATM   24  O   UNL     1       0.734   6.381 -30.885  1.00  0.00    -0.267 OA
HETATM   25  H   UNL     1      -0.699   6.002 -29.039  1.00  0.00     0.169 HD
BRANCH  23  26
HETATM   26  C   UNL     1      -1.144   5.970 -32.290  1.00  0.00     0.072 A 
HETATM   27  S   UNL     1      -1.486   7.288 -33.330  1.00  0.00    -0.097 SA
HETATM   28  C   UNL     1      -2.140   6.261 -34.530  1.00  0.00     0.050 A 
HETATM   29  C   UNL     1      -2.103   4.936 -34.155  1.00  0.00     0.009 A 
HETATM   30  C   UNL     1      -1.529   4.769 -32.863  1.00  0.00     0.025 A 
ENDBRANCH  23  26
ENDBRANCH   3  22
BRANCH   4  31
HETATM   31  N   UNL     1      -1.734   8.307 -28.013  1.00  0.00    -0.378 N 
HETATM   32  C   UNL     1      -1.347   9.713 -28.155  1.00  0.00     0.134 C 
HETATM   33  C   UNL     1      -1.308  10.422 -26.782  1.00  0.00     0.054 C 
HETATM   34  C   UNL     1      -0.377   9.664 -25.839  1.00  0.00     0.020 C 
HETATM   35  C   UNL     1      -2.716  10.511 -26.221  1.00  0.00     0.020 A 
HETATM   36  C   UNL     1      -0.963   8.272 -25.640  1.00  0.00     0.023 C 
HETATM   37  C   UNL     1      -2.323   8.401 -24.945  1.00  0.00     0.138 C 
HETATM   38  C   UNL     1      -1.048   7.522 -26.982  1.00  0.00     0.129 C 
HETATM   39  N   UNL     1      -3.196   9.481 -25.410  1.00  0.00    -0.317 N 
HETATM   40  C   UNL     1      -4.506   9.468 -24.919  1.00  0.00     0.247 A 
HETATM   41  O   UNL     1      -4.966   8.600 -24.182  1.00  0.00    -0.268 OA
HETATM   42  C   UNL     1      -5.377  10.597 -25.337  1.00  0.00     0.074 A 
HETATM   43  C   UNL     1      -4.885  11.579 -26.099  1.00  0.00     0.007 A 
HETATM   44  C   UNL     1      -3.520  11.540 -26.546  1.00  0.00     0.026 A 
ENDBRANCH   4  31
TORSDOF 7
ENDMDL
