MODEL 1
REMARK VINA RESULT:      -8.1      0.000      0.000
REMARK  8 active torsions:
REMARK  status: ('A' for Active; 'I' for Inactive)
REMARK    1  A    between atoms: C_2  and  C_3 
REMARK    2  A    between atoms: C_3  and  O_4 
REMARK    3  A    between atoms: O_4  and  C_5 
REMARK    4  A    between atoms: C_8  and  C_9 
REMARK    5  A    between atoms: C_13  and  C_14 
REMARK       I    between atoms: C_14  and  N_15 
REMARK    6  A    between atoms: N_15  and  N_16 
REMARK    7  A    between atoms: C_17  and  C_18 
REMARK    8  A    between atoms: C_19  and  O_20 
ROOT
HETATM    1  C   UNL     1      -4.564   2.149 -32.211  1.00  0.00     0.089 A 
HETATM    2  N   UNL     1      -5.233   2.851 -31.285  1.00  0.00    -0.174 NA
HETATM    3  N   UNL     1      -4.359   3.778 -30.865  1.00  0.00    -0.272 N 
HETATM    4  H   UNL     1      -4.644   4.436 -30.145  1.00  0.00     0.189 HD
HETATM    5  C   UNL     1      -3.153   3.744 -31.509  1.00  0.00     0.121 A 
HETATM    6  C   UNL     1      -3.251   2.672 -32.373  1.00  0.00     0.071 A 
ENDROOT
BRANCH   5   7
HETATM    7  C   UNL     1      -2.122   4.712 -31.228  1.00  0.00     0.289 C 
HETATM    8  N   UNL     1      -2.512   5.742 -30.384  1.00  0.00    -0.242 N 
HETATM    9  H   UNL     1      -3.449   5.765 -30.007  1.00  0.00     0.192 HD
HETATM   10  O   UNL     1      -0.992   4.597 -31.695  1.00  0.00    -0.264 OA
BRANCH   8  11
HETATM   11  N   UNL     1      -1.604   6.675 -29.978  1.00  0.00    -0.183 NA
HETATM   12  C   UNL     1      -1.593   6.928 -28.707  1.00  0.00     0.153 C 
BRANCH  12  13
HETATM   13  C   UNL     1      -0.645   7.899 -28.130  1.00  0.00     0.016 A 
HETATM   14  C   UNL     1      -1.068   8.999 -27.376  1.00  0.00     0.077 A 
HETATM   15  C   UNL     1      -0.135   9.896 -26.861  1.00  0.00     0.037 A 
HETATM   16  C   UNL     1       1.226   9.697 -27.099  1.00  0.00     0.003 A 
HETATM   17  C   UNL     1       1.654   8.603 -27.851  1.00  0.00     0.001 A 
HETATM   18  C   UNL     1       0.721   7.702 -28.368  1.00  0.00     0.016 A 
BRANCH  14  19
HETATM   19  O   UNL     1      -2.382   9.264 -27.101  1.00  0.00    -0.360 OA
HETATM   20  H   UNL     1      -2.659   8.707 -26.339  1.00  0.00     0.217 HD
ENDBRANCH  14  19
ENDBRANCH  12  13
ENDBRANCH   8  11
ENDBRANCH   5   7
BRANCH   1  21
HETATM   21  C   UNL     1      -5.181   1.043 -32.946  1.00  0.00    -0.005 A 
HETATM   22  C   UNL     1      -6.195   1.291 -33.881  1.00  0.00     0.016 A 
HETATM   23  C   UNL     1      -6.743   0.250 -34.639  1.00  0.00     0.037 A 
HETATM   24  C   UNL     1      -6.284  -1.055 -34.468  1.00  0.00     0.068 A 
HETATM   25  C   UNL     1      -5.309  -1.316 -33.504  1.00  0.00     0.037 A 
HETATM   26  C   UNL     1      -4.754  -0.277 -32.753  1.00  0.00     0.016 A 
BRANCH  24  27
HETATM   27  O   UNL     1      -6.725  -2.147 -35.161  1.00  0.00    -0.351 OA
BRANCH  27  28
HETATM   28  C   UNL     1      -6.956  -3.323 -34.383  1.00  0.00     0.175 C 
BRANCH  28  29
HETATM   29  C   UNL     1      -6.328  -4.500 -35.124  1.00  0.00     0.022 C 
HETATM   30  C   UNL     1      -5.013  -4.928 -34.497  1.00  0.00     0.007 C 
ENDBRANCH  28  29
ENDBRANCH  27  28
ENDBRANCH  24  27
ENDBRANCH   1  21
TORSDOF 8
ENDMDL
MODEL 2
REMARK VINA RESULT:      -8.1      1.977     11.322
REMARK  8 active torsions:
REMARK  status: ('A' for Active; 'I' for Inactive)
REMARK    1  A    between atoms: C_2  and  C_3 
REMARK    2  A    between atoms: C_3  and  O_4 
REMARK    3  A    between atoms: O_4  and  C_5 
REMARK    4  A    between atoms: C_8  and  C_9 
REMARK    5  A    between atoms: C_13  and  C_14 
REMARK       I    between atoms: C_14  and  N_15 
REMARK    6  A    between atoms: N_15  and  N_16 
REMARK    7  A    between atoms: C_17  and  C_18 
REMARK    8  A    between atoms: C_19  and  O_20 
ROOT
HETATM    1  C   UNL     1      -2.961   4.849 -31.598  1.00  0.00     0.089 A 
HETATM    2  N   UNL     1      -3.970   5.476 -32.221  1.00  0.00    -0.174 NA
HETATM    3  N   UNL     1      -4.717   4.487 -32.736  1.00  0.00    -0.272 N 
HETATM    4  H   UNL     1      -5.550   4.723 -33.267  1.00  0.00     0.189 HD
HETATM    5  C   UNL     1      -4.265   3.231 -32.439  1.00  0.00     0.121 A 
HETATM    6  C   UNL     1      -3.105   3.439 -31.721  1.00  0.00     0.071 A 
ENDROOT
BRANCH   5   7
HETATM    7  C   UNL     1      -4.987   2.054 -32.856  1.00  0.00     0.289 C 
HETATM    8  N   UNL     1      -4.337   0.857 -32.595  1.00  0.00    -0.242 N 
HETATM    9  H   UNL     1      -3.437   0.854 -32.134  1.00  0.00     0.192 HD
HETATM   10  O   UNL     1      -6.096   2.134 -33.376  1.00  0.00    -0.264 OA
BRANCH   8  11
HETATM   11  N   UNL     1      -4.952  -0.330 -32.866  1.00  0.00    -0.183 NA
HETATM   12  C   UNL     1      -4.367  -1.073 -33.751  1.00  0.00     0.153 C 
BRANCH  12  13
HETATM   13  C   UNL     1      -4.913  -2.393 -34.122  1.00  0.00     0.016 A 
HETATM   14  C   UNL     1      -6.205  -2.549 -34.635  1.00  0.00     0.077 A 
HETATM   15  C   UNL     1      -6.680  -3.817 -34.960  1.00  0.00     0.037 A 
HETATM   16  C   UNL     1      -5.866  -4.935 -34.772  1.00  0.00     0.003 A 
HETATM   17  C   UNL     1      -4.577  -4.786 -34.260  1.00  0.00     0.001 A 
HETATM   18  C   UNL     1      -4.097  -3.516 -33.934  1.00  0.00     0.016 A 
BRANCH  14  19
HETATM   19  O   UNL     1      -7.064  -1.505 -34.845  1.00  0.00    -0.360 OA
HETATM   20  H   UNL     1      -7.487  -1.272 -33.987  1.00  0.00     0.217 HD
ENDBRANCH  14  19
ENDBRANCH  12  13
ENDBRANCH   8  11
ENDBRANCH   5   7
BRANCH   1  21
HETATM   21  C   UNL     1      -1.921   5.580 -30.872  1.00  0.00    -0.005 A 
HETATM   22  C   UNL     1      -0.574   5.217 -31.005  1.00  0.00     0.016 A 
HETATM   23  C   UNL     1       0.434   5.952 -30.371  1.00  0.00     0.037 A 
HETATM   24  C   UNL     1       0.106   7.060 -29.593  1.00  0.00     0.068 A 
HETATM   25  C   UNL     1      -1.236   7.399 -29.416  1.00  0.00     0.037 A 
HETATM   26  C   UNL     1      -2.244   6.672 -30.056  1.00  0.00     0.016 A 
BRANCH  24  27
HETATM   27  O   UNL     1       1.000   7.865 -28.944  1.00  0.00    -0.351 OA
BRANCH  27  28
HETATM   28  C   UNL     1       1.150   7.622 -27.544  1.00  0.00     0.175 C 
BRANCH  28  29
HETATM   29  C   UNL     1       1.811   8.851 -26.927  1.00  0.00     0.022 C 
HETATM   30  C   UNL     1       2.328   8.573 -25.526  1.00  0.00     0.007 C 
ENDBRANCH  28  29
ENDBRANCH  27  28
ENDBRANCH  24  27
ENDBRANCH   1  21
TORSDOF 8
ENDMDL
MODEL 3
REMARK VINA RESULT:      -8.0      2.317     11.641
REMARK  8 active torsions:
REMARK  status: ('A' for Active; 'I' for Inactive)
REMARK    1  A    between atoms: C_2  and  C_3 
REMARK    2  A    between atoms: C_3  and  O_4 
REMARK    3  A    between atoms: O_4  and  C_5 
REMARK    4  A    between atoms: C_8  and  C_9 
REMARK    5  A    between atoms: C_13  and  C_14 
REMARK       I    between atoms: C_14  and  N_15 
REMARK    6  A    between atoms: N_15  and  N_16 
REMARK    7  A    between atoms: C_17  and  C_18 
REMARK    8  A    between atoms: C_19  and  O_20 
ROOT
HETATM    1  C   UNL     1      -0.747   6.615 -29.141  1.00  0.00     0.089 A 
HETATM    2  N   UNL     1      -2.029   7.003 -29.216  1.00  0.00    -0.174 NA
HETATM    3  N   UNL     1      -2.565   6.220 -30.165  1.00  0.00    -0.272 N 
HETATM    4  H   UNL     1      -3.545   6.336 -30.406  1.00  0.00     0.189 HD
HETATM    5  C   UNL     1      -1.698   5.301 -30.689  1.00  0.00     0.121 A 
HETATM    6  C   UNL     1      -0.497   5.556 -30.058  1.00  0.00     0.071 A 
ENDROOT
BRANCH   5   7
HETATM    7  C   UNL     1      -2.126   4.337 -31.671  1.00  0.00     0.289 C 
HETATM    8  N   UNL     1      -2.940   3.329 -31.174  1.00  0.00    -0.242 N 
HETATM    9  H   UNL     1      -3.199   3.318 -30.197  1.00  0.00     0.192 HD
HETATM   10  O   UNL     1      -1.801   4.436 -32.852  1.00  0.00    -0.264 OA
BRANCH   8  11
HETATM   11  N   UNL     1      -3.477   2.403 -32.018  1.00  0.00    -0.183 NA
HETATM   12  C   UNL     1      -3.469   1.181 -31.587  1.00  0.00     0.153 C 
BRANCH  12  13
HETATM   13  C   UNL     1      -4.041   0.084 -32.390  1.00  0.00     0.016 A 
HETATM   14  C   UNL     1      -3.512  -1.211 -32.369  1.00  0.00     0.077 A 
HETATM   15  C   UNL     1      -4.080  -2.212 -33.154  1.00  0.00     0.037 A 
HETATM   16  C   UNL     1      -5.180  -1.923 -33.963  1.00  0.00     0.003 A 
HETATM   17  C   UNL     1      -5.711  -0.634 -33.988  1.00  0.00     0.001 A 
HETATM   18  C   UNL     1      -5.145   0.373 -33.202  1.00  0.00     0.016 A 
BRANCH  14  19
HETATM   19  O   UNL     1      -2.435  -1.574 -31.606  1.00  0.00    -0.360 OA
HETATM   20  H   UNL     1      -1.773  -0.847 -31.637  1.00  0.00     0.217 HD
ENDBRANCH  14  19
ENDBRANCH  12  13
ENDBRANCH   8  11
ENDBRANCH   5   7
BRANCH   1  21
HETATM   21  C   UNL     1       0.191   7.212 -28.190  1.00  0.00    -0.005 A 
HETATM   22  C   UNL     1       1.020   8.272 -28.581  1.00  0.00     0.016 A 
HETATM   23  C   UNL     1       1.871   8.896 -27.661  1.00  0.00     0.037 A 
HETATM   24  C   UNL     1       1.904   8.464 -26.336  1.00  0.00     0.068 A 
HETATM   25  C   UNL     1       1.118   7.378 -25.951  1.00  0.00     0.037 A 
HETATM   26  C   UNL     1       0.261   6.759 -26.866  1.00  0.00     0.016 A 
BRANCH  24  27
HETATM   27  O   UNL     1       2.675   9.006 -25.346  1.00  0.00    -0.351 OA
BRANCH  27  28
HETATM   28  C   UNL     1       2.087  10.091 -24.626  1.00  0.00     0.175 C 
BRANCH  28  29
HETATM   29  C   UNL     1       1.982   9.675 -23.162  1.00  0.00     0.022 C 
HETATM   30  C   UNL     1       3.063   8.680 -22.776  1.00  0.00     0.007 C 
ENDBRANCH  28  29
ENDBRANCH  27  28
ENDBRANCH  24  27
ENDBRANCH   1  21
TORSDOF 8
ENDMDL
MODEL 4
REMARK VINA RESULT:      -7.9      2.076     11.677
REMARK  8 active torsions:
REMARK  status: ('A' for Active; 'I' for Inactive)
REMARK    1  A    between atoms: C_2  and  C_3 
REMARK    2  A    between atoms: C_3  and  O_4 
REMARK    3  A    between atoms: O_4  and  C_5 
REMARK    4  A    between atoms: C_8  and  C_9 
REMARK    5  A    between atoms: C_13  and  C_14 
REMARK       I    between atoms: C_14  and  N_15 
REMARK    6  A    between atoms: N_15  and  N_16 
REMARK    7  A    between atoms: C_17  and  C_18 
REMARK    8  A    between atoms: C_19  and  O_20 
ROOT
HETATM    1  C   UNL     1      -0.225   6.814 -29.137  1.00  0.00     0.089 A 
HETATM    2  N   UNL     1       0.439   5.662 -28.966  1.00  0.00    -0.174 NA
HETATM    3  N   UNL     1      -0.113   4.816 -29.850  1.00  0.00    -0.272 N 
HETATM    4  H   UNL     1       0.230   3.862 -29.901  1.00  0.00     0.189 HD
HETATM    5  C   UNL     1      -1.087   5.378 -30.628  1.00  0.00     0.121 A 
HETATM    6  C   UNL     1      -1.199   6.673 -30.165  1.00  0.00     0.071 A 
ENDROOT
BRANCH   5   7
HETATM    7  C   UNL     1      -1.738   4.630 -31.675  1.00  0.00     0.289 C 
HETATM    8  N   UNL     1      -2.623   3.661 -31.227  1.00  0.00    -0.242 N 
HETATM    9  H   UNL     1      -2.781   3.531 -30.237  1.00  0.00     0.192 HD
HETATM   10  O   UNL     1      -1.525   4.869 -32.861  1.00  0.00    -0.264 OA
BRANCH   8  11
HETATM   11  N   UNL     1      -3.363   2.942 -32.120  1.00  0.00    -0.183 NA
HETATM   12  C   UNL     1      -3.661   1.736 -31.756  1.00  0.00     0.153 C 
BRANCH  12  13
HETATM   13  C   UNL     1      -4.476   0.858 -32.617  1.00  0.00     0.016 A 
HETATM   14  C   UNL     1      -5.700   1.269 -33.156  1.00  0.00     0.077 A 
HETATM   15  C   UNL     1      -6.440   0.400 -33.955  1.00  0.00     0.037 A 
HETATM   16  C   UNL     1      -5.960  -0.884 -34.217  1.00  0.00     0.003 A 
HETATM   17  C   UNL     1      -4.741  -1.299 -33.682  1.00  0.00     0.001 A 
HETATM   18  C   UNL     1      -3.996  -0.431 -32.881  1.00  0.00     0.016 A 
BRANCH  14  19
HETATM   19  O   UNL     1      -6.240   2.508 -32.944  1.00  0.00    -0.360 OA
HETATM   20  H   UNL     1      -5.795   3.149 -33.545  1.00  0.00     0.217 HD
ENDBRANCH  14  19
ENDBRANCH  12  13
ENDBRANCH   8  11
ENDBRANCH   5   7
BRANCH   1  21
HETATM   21  C   UNL     1       0.096   8.019 -28.371  1.00  0.00    -0.005 A 
HETATM   22  C   UNL     1      -0.882   8.995 -28.141  1.00  0.00     0.016 A 
HETATM   23  C   UNL     1      -0.606  10.117 -27.351  1.00  0.00     0.037 A 
HETATM   24  C   UNL     1       0.656  10.276 -26.782  1.00  0.00     0.068 A 
HETATM   25  C   UNL     1       1.650   9.333 -27.046  1.00  0.00     0.037 A 
HETATM   26  C   UNL     1       1.374   8.207 -27.827  1.00  0.00     0.016 A 
BRANCH  24  27
HETATM   27  O   UNL     1       1.038  11.314 -25.979  1.00  0.00    -0.351 OA
BRANCH  27  28
HETATM   28  C   UNL     1       1.892  10.972 -24.886  1.00  0.00     0.175 C 
BRANCH  28  29
HETATM   29  C   UNL     1       1.006  10.681 -23.677  1.00  0.00     0.022 C 
HETATM   30  C   UNL     1       1.697   9.776 -22.673  1.00  0.00     0.007 C 
ENDBRANCH  28  29
ENDBRANCH  27  28
ENDBRANCH  24  27
ENDBRANCH   1  21
TORSDOF 8
ENDMDL
MODEL 5
REMARK VINA RESULT:      -7.8      8.223     11.666
REMARK  8 active torsions:
REMARK  status: ('A' for Active; 'I' for Inactive)
REMARK    1  A    between atoms: C_2  and  C_3 
REMARK    2  A    between atoms: C_3  and  O_4 
REMARK    3  A    between atoms: O_4  and  C_5 
REMARK    4  A    between atoms: C_8  and  C_9 
REMARK    5  A    between atoms: C_13  and  C_14 
REMARK       I    between atoms: C_14  and  N_15 
REMARK    6  A    between atoms: N_15  and  N_16 
REMARK    7  A    between atoms: C_17  and  C_18 
REMARK    8  A    between atoms: C_19  and  O_20 
ROOT
HETATM    1  C   UNL     1     -11.247   3.703 -34.193  1.00  0.00     0.089 A 
HETATM    2  N   UNL     1     -12.032   3.221 -33.218  1.00  0.00    -0.174 NA
HETATM    3  N   UNL     1     -11.485   2.038 -32.896  1.00  0.00    -0.272 N 
HETATM    4  H   UNL     1     -11.919   1.475 -32.170  1.00  0.00     0.189 HD
HETATM    5  C   UNL     1     -10.345   1.741 -33.590  1.00  0.00     0.121 A 
HETATM    6  C   UNL     1     -10.183   2.798 -34.462  1.00  0.00     0.071 A 
ENDROOT
BRANCH   5   7
HETATM    7  C   UNL     1      -9.592   0.542 -33.321  1.00  0.00     0.289 C 
HETATM    8  N   UNL     1      -8.316   0.527 -33.864  1.00  0.00    -0.242 N 
HETATM    9  H   UNL     1      -7.975   1.321 -34.389  1.00  0.00     0.192 HD
HETATM   10  O   UNL     1     -10.059  -0.369 -32.641  1.00  0.00    -0.264 OA
BRANCH   8  11
HETATM   11  N   UNL     1      -7.475  -0.517 -33.612  1.00  0.00    -0.183 NA
HETATM   12  C   UNL     1      -7.178  -1.256 -34.633  1.00  0.00     0.153 C 
BRANCH  12  13
HETATM   13  C   UNL     1      -6.259  -2.403 -34.505  1.00  0.00     0.016 A 
HETATM   14  C   UNL     1      -4.946  -2.261 -34.043  1.00  0.00     0.077 A 
HETATM   15  C   UNL     1      -4.113  -3.372 -33.950  1.00  0.00     0.037 A 
HETATM   16  C   UNL     1      -4.588  -4.632 -34.318  1.00  0.00     0.003 A 
HETATM   17  C   UNL     1      -5.896  -4.780 -34.779  1.00  0.00     0.001 A 
HETATM   18  C   UNL     1      -6.735  -3.667 -34.874  1.00  0.00     0.016 A 
BRANCH  14  19
HETATM   19  O   UNL     1      -4.405  -1.061 -33.666  1.00  0.00    -0.360 OA
HETATM   20  H   UNL     1      -5.104  -0.531 -33.220  1.00  0.00     0.217 HD
ENDBRANCH  14  19
ENDBRANCH  12  13
ENDBRANCH   8  11
ENDBRANCH   5   7
BRANCH   1  21
HETATM   21  C   UNL     1     -11.488   5.008 -34.811  1.00  0.00    -0.005 A 
HETATM   22  C   UNL     1     -10.416   5.860 -35.108  1.00  0.00     0.016 A 
HETATM   23  C   UNL     1     -10.628   7.080 -35.763  1.00  0.00     0.037 A 
HETATM   24  C   UNL     1     -11.918   7.461 -36.126  1.00  0.00     0.068 A 
HETATM   25  C   UNL     1     -12.995   6.640 -35.790  1.00  0.00     0.037 A 
HETATM   26  C   UNL     1     -12.785   5.418 -35.145  1.00  0.00     0.016 A 
BRANCH  24  27
HETATM   27  O   UNL     1     -12.247   8.613 -36.784  1.00  0.00    -0.351 OA
BRANCH  27  28
HETATM   28  C   UNL     1     -13.410   8.544 -37.611  1.00  0.00     0.175 C 
BRANCH  28  29
HETATM   29  C   UNL     1     -12.959   8.686 -39.062  1.00  0.00     0.022 C 
HETATM   30  C   UNL     1     -11.678   9.493 -39.181  1.00  0.00     0.007 C 
ENDBRANCH  28  29
ENDBRANCH  27  28
ENDBRANCH  24  27
ENDBRANCH   1  21
TORSDOF 8
ENDMDL
MODEL 6
REMARK VINA RESULT:      -7.7      7.387     10.860
REMARK  8 active torsions:
REMARK  status: ('A' for Active; 'I' for Inactive)
REMARK    1  A    between atoms: C_2  and  C_3 
REMARK    2  A    between atoms: C_3  and  O_4 
REMARK    3  A    between atoms: O_4  and  C_5 
REMARK    4  A    between atoms: C_8  and  C_9 
REMARK    5  A    between atoms: C_13  and  C_14 
REMARK       I    between atoms: C_14  and  N_15 
REMARK    6  A    between atoms: N_15  and  N_16 
REMARK    7  A    between atoms: C_17  and  C_18 
REMARK    8  A    between atoms: C_19  and  O_20 
ROOT
HETATM    1  C   UNL     1      -8.297   0.849 -32.777  1.00  0.00     0.089 A 
HETATM    2  N   UNL     1      -8.600   1.008 -31.481  1.00  0.00    -0.174 NA
HETATM    3  N   UNL     1      -9.645   1.850 -31.477  1.00  0.00    -0.272 N 
HETATM    4  H   UNL     1     -10.052   2.128 -30.589  1.00  0.00     0.189 HD
HETATM    5  C   UNL     1     -10.071   2.219 -32.723  1.00  0.00     0.121 A 
HETATM    6  C   UNL     1      -9.191   1.602 -33.589  1.00  0.00     0.071 A 
ENDROOT
BRANCH   5   7
HETATM    7  C   UNL     1     -11.224   3.066 -32.904  1.00  0.00     0.289 C 
HETATM    8  N   UNL     1     -12.441   2.441 -32.672  1.00  0.00    -0.242 N 
HETATM    9  H   UNL     1     -12.471   1.472 -32.387  1.00  0.00     0.192 HD
HETATM   10  O   UNL     1     -11.108   4.248 -33.216  1.00  0.00    -0.264 OA
BRANCH   8  11
HETATM   11  N   UNL     1     -13.600   3.157 -32.730  1.00  0.00    -0.183 NA
HETATM   12  C   UNL     1     -14.592   2.669 -32.055  1.00  0.00     0.153 C 
BRANCH  12  13
HETATM   13  C   UNL     1     -15.897   3.355 -32.011  1.00  0.00     0.016 A 
HETATM   14  C   UNL     1     -16.010   4.734 -31.800  1.00  0.00     0.077 A 
HETATM   15  C   UNL     1     -17.265   5.335 -31.756  1.00  0.00     0.037 A 
HETATM   16  C   UNL     1     -18.415   4.561 -31.922  1.00  0.00     0.003 A 
HETATM   17  C   UNL     1     -18.309   3.186 -32.133  1.00  0.00     0.001 A 
HETATM   18  C   UNL     1     -17.052   2.580 -32.179  1.00  0.00     0.016 A 
BRANCH  14  19
HETATM   19  O   UNL     1     -14.933   5.560 -31.625  1.00  0.00    -0.360 OA
HETATM   20  H   UNL     1     -14.457   5.283 -30.809  1.00  0.00     0.217 HD
ENDBRANCH  14  19
ENDBRANCH  12  13
ENDBRANCH   8  11
ENDBRANCH   5   7
BRANCH   1  21
HETATM   21  C   UNL     1      -7.215  -0.031 -33.221  1.00  0.00    -0.005 A 
HETATM   22  C   UNL     1      -6.067  -0.195 -32.435  1.00  0.00     0.016 A 
HETATM   23  C   UNL     1      -5.057  -1.087 -32.816  1.00  0.00     0.037 A 
HETATM   24  C   UNL     1      -5.184  -1.825 -33.991  1.00  0.00     0.068 A 
HETATM   25  C   UNL     1      -6.301  -1.630 -34.804  1.00  0.00     0.037 A 
HETATM   26  C   UNL     1      -7.315  -0.747 -34.421  1.00  0.00     0.016 A 
BRANCH  24  27
HETATM   27  O   UNL     1      -4.278  -2.737 -34.455  1.00  0.00    -0.351 OA
BRANCH  27  28
HETATM   28  C   UNL     1      -4.637  -4.109 -34.283  1.00  0.00     0.175 C 
BRANCH  28  29
HETATM   29  C   UNL     1      -3.497  -4.798 -33.538  1.00  0.00     0.022 C 
HETATM   30  C   UNL     1      -3.131  -4.064 -32.260  1.00  0.00     0.007 C 
ENDBRANCH  28  29
ENDBRANCH  27  28
ENDBRANCH  24  27
ENDBRANCH   1  21
TORSDOF 8
ENDMDL
MODEL 7
REMARK VINA RESULT:      -7.7      7.797     11.825
REMARK  8 active torsions:
REMARK  status: ('A' for Active; 'I' for Inactive)
REMARK    1  A    between atoms: C_2  and  C_3 
REMARK    2  A    between atoms: C_3  and  O_4 
REMARK    3  A    between atoms: O_4  and  C_5 
REMARK    4  A    between atoms: C_8  and  C_9 
REMARK    5  A    between atoms: C_13  and  C_14 
REMARK       I    between atoms: C_14  and  N_15 
REMARK    6  A    between atoms: N_15  and  N_16 
REMARK    7  A    between atoms: C_17  and  C_18 
REMARK    8  A    between atoms: C_19  and  O_20 
ROOT
HETATM    1  C   UNL     1      -9.523   0.982 -33.265  1.00  0.00     0.089 A 
HETATM    2  N   UNL     1      -9.637   1.943 -32.338  1.00  0.00    -0.174 NA
HETATM    3  N   UNL     1     -10.902   2.377 -32.452  1.00  0.00    -0.272 N 
HETATM    4  H   UNL     1     -11.225   3.123 -31.843  1.00  0.00     0.189 HD
HETATM    5  C   UNL     1     -11.641   1.709 -33.389  1.00  0.00     0.121 A 
HETATM    6  C   UNL     1     -10.757   0.812 -33.954  1.00  0.00     0.071 A 
ENDROOT
BRANCH   5   7
HETATM    7  C   UNL     1     -13.038   2.001 -33.594  1.00  0.00     0.289 C 
HETATM    8  N   UNL     1     -13.812   1.953 -32.444  1.00  0.00    -0.242 N 
HETATM    9  H   UNL     1     -13.388   1.740 -31.552  1.00  0.00     0.192 HD
HETATM   10  O   UNL     1     -13.476   2.289 -34.705  1.00  0.00    -0.264 OA
BRANCH   8  11
HETATM   11  N   UNL     1     -15.133   2.290 -32.493  1.00  0.00    -0.183 NA
HETATM   12  C   UNL     1     -15.436   3.439 -31.976  1.00  0.00     0.153 C 
BRANCH  12  13
HETATM   13  C   UNL     1     -16.824   3.937 -31.984  1.00  0.00     0.016 A 
HETATM   14  C   UNL     1     -17.841   3.304 -32.707  1.00  0.00     0.077 A 
HETATM   15  C   UNL     1     -19.135   3.818 -32.693  1.00  0.00     0.037 A 
HETATM   16  C   UNL     1     -19.419   4.969 -31.955  1.00  0.00     0.003 A 
HETATM   17  C   UNL     1     -18.410   5.604 -31.233  1.00  0.00     0.001 A 
HETATM   18  C   UNL     1     -17.111   5.091 -31.244  1.00  0.00     0.016 A 
BRANCH  14  19
HETATM   19  O   UNL     1     -17.644   2.175 -33.456  1.00  0.00    -0.360 OA
HETATM   20  H   UNL     1     -16.763   1.801 -33.228  1.00  0.00     0.217 HD
ENDBRANCH  14  19
ENDBRANCH  12  13
ENDBRANCH   8  11
ENDBRANCH   5   7
BRANCH   1  21
HETATM   21  C   UNL     1      -8.285   0.223 -33.452  1.00  0.00    -0.005 A 
HETATM   22  C   UNL     1      -7.907  -0.214 -34.728  1.00  0.00     0.016 A 
HETATM   23  C   UNL     1      -6.692  -0.879 -34.929  1.00  0.00     0.037 A 
HETATM   24  C   UNL     1      -5.840  -1.116 -33.851  1.00  0.00     0.068 A 
HETATM   25  C   UNL     1      -6.232  -0.727 -32.570  1.00  0.00     0.037 A 
HETATM   26  C   UNL     1      -7.441  -0.055 -32.369  1.00  0.00     0.016 A 
BRANCH  24  27
HETATM   27  O   UNL     1      -4.624  -1.735 -33.925  1.00  0.00    -0.351 OA
BRANCH  27  28
HETATM   28  C   UNL     1      -4.512  -2.768 -34.906  1.00  0.00     0.175 C 
BRANCH  28  29
HETATM   29  C   UNL     1      -4.748  -4.102 -34.206  1.00  0.00     0.022 C 
HETATM   30  C   UNL     1      -3.520  -4.569 -33.445  1.00  0.00     0.007 C 
ENDBRANCH  28  29
ENDBRANCH  27  28
ENDBRANCH  24  27
ENDBRANCH   1  21
TORSDOF 8
ENDMDL
MODEL 8
REMARK VINA RESULT:      -7.5     18.371     19.284
REMARK  8 active torsions:
REMARK  status: ('A' for Active; 'I' for Inactive)
REMARK    1  A    between atoms: C_2  and  C_3 
REMARK    2  A    between atoms: C_3  and  O_4 
REMARK    3  A    between atoms: O_4  and  C_5 
REMARK    4  A    between atoms: C_8  and  C_9 
REMARK    5  A    between atoms: C_13  and  C_14 
REMARK       I    between atoms: C_14  and  N_15 
REMARK    6  A    between atoms: N_15  and  N_16 
REMARK    7  A    between atoms: C_17  and  C_18 
REMARK    8  A    between atoms: C_19  and  O_20 
ROOT
HETATM    1  C   UNL     1      -6.789 -15.020 -34.211  1.00  0.00     0.089 A 
HETATM    2  N   UNL     1      -7.729 -15.253 -33.283  1.00  0.00    -0.174 NA
HETATM    3  N   UNL     1      -7.044 -15.438 -32.145  1.00  0.00    -0.272 N 
HETATM    4  H   UNL     1      -7.552 -15.638 -31.289  1.00  0.00     0.189 HD
HETATM    5  C   UNL     1      -5.690 -15.293 -32.276  1.00  0.00     0.121 A 
HETATM    6  C   UNL     1      -5.495 -15.048 -33.621  1.00  0.00     0.071 A 
ENDROOT
BRANCH   5   7
HETATM    7  C   UNL     1      -4.809 -15.392 -31.140  1.00  0.00     0.289 C 
HETATM    8  N   UNL     1      -3.460 -15.454 -31.458  1.00  0.00    -0.242 N 
HETATM    9  H   UNL     1      -3.161 -15.416 -32.423  1.00  0.00     0.192 HD
HETATM   10  O   UNL     1      -5.243 -15.395 -29.991  1.00  0.00    -0.264 OA
BRANCH   8  11
HETATM   11  N   UNL     1      -2.522 -15.467 -30.469  1.00  0.00    -0.183 NA
HETATM   12  C   UNL     1      -1.296 -15.613 -30.862  1.00  0.00     0.153 C 
BRANCH  12  13
HETATM   13  C   UNL     1      -0.180 -15.619 -29.897  1.00  0.00     0.016 A 
HETATM   14  C   UNL     1      -0.024 -14.621 -28.929  1.00  0.00     0.077 A 
HETATM   15  C   UNL     1       1.053 -14.664 -28.047  1.00  0.00     0.037 A 
HETATM   16  C   UNL     1       1.979 -15.706 -28.129  1.00  0.00     0.003 A 
HETATM   17  C   UNL     1       1.828 -16.703 -29.092  1.00  0.00     0.001 A 
HETATM   18  C   UNL     1       0.749 -16.664 -29.978  1.00  0.00     0.016 A 
BRANCH  14  19
HETATM   19  O   UNL     1      -0.885 -13.567 -28.786  1.00  0.00    -0.360 OA
HETATM   20  H   UNL     1      -0.948 -13.098 -29.649  1.00  0.00     0.217 HD
ENDBRANCH  14  19
ENDBRANCH  12  13
ENDBRANCH   8  11
ENDBRANCH   5   7
BRANCH   1  21
HETATM   21  C   UNL     1      -7.127 -14.737 -35.607  1.00  0.00    -0.005 A 
HETATM   22  C   UNL     1      -7.506 -15.775 -36.469  1.00  0.00     0.016 A 
HETATM   23  C   UNL     1      -7.899 -15.507 -37.786  1.00  0.00     0.037 A 
HETATM   24  C   UNL     1      -7.914 -14.195 -38.257  1.00  0.00     0.068 A 
HETATM   25  C   UNL     1      -7.491 -13.163 -37.420  1.00  0.00     0.037 A 
HETATM   26  C   UNL     1      -7.108 -13.426 -36.101  1.00  0.00     0.016 A 
BRANCH  24  27
HETATM   27  O   UNL     1      -8.295 -13.809 -39.511  1.00  0.00    -0.351 OA
BRANCH  27  28
HETATM   28  C   UNL     1      -9.533 -14.350 -39.977  1.00  0.00     0.175 C 
BRANCH  28  29
HETATM   29  C   UNL     1     -10.631 -13.338 -39.664  1.00  0.00     0.022 C 
HETATM   30  C   UNL     1     -10.423 -12.028 -40.404  1.00  0.00     0.007 C 
ENDBRANCH  28  29
ENDBRANCH  27  28
ENDBRANCH  24  27
ENDBRANCH   1  21
TORSDOF 8
ENDMDL
MODEL 9
REMARK VINA RESULT:      -7.4      2.693      3.185
REMARK  8 active torsions:
REMARK  status: ('A' for Active; 'I' for Inactive)
REMARK    1  A    between atoms: C_2  and  C_3 
REMARK    2  A    between atoms: C_3  and  O_4 
REMARK    3  A    between atoms: O_4  and  C_5 
REMARK    4  A    between atoms: C_8  and  C_9 
REMARK    5  A    between atoms: C_13  and  C_14 
REMARK       I    between atoms: C_14  and  N_15 
REMARK    6  A    between atoms: N_15  and  N_16 
REMARK    7  A    between atoms: C_17  and  C_18 
REMARK    8  A    between atoms: C_19  and  O_20 
ROOT
HETATM    1  C   UNL     1      -6.068   2.433 -30.604  1.00  0.00     0.089 A 
HETATM    2  N   UNL     1      -7.283   2.625 -30.068  1.00  0.00    -0.174 NA
HETATM    3  N   UNL     1      -7.152   3.732 -29.320  1.00  0.00    -0.272 N 
HETATM    4  H   UNL     1      -7.955   4.077 -28.803  1.00  0.00     0.189 HD
HETATM    5  C   UNL     1      -5.910   4.302 -29.376  1.00  0.00     0.121 A 
HETATM    6  C   UNL     1      -5.176   3.458 -30.185  1.00  0.00     0.071 A 
ENDROOT
BRANCH   5   7
HETATM    7  C   UNL     1      -5.615   5.533 -28.686  1.00  0.00     0.289 C 
HETATM    8  N   UNL     1      -5.018   5.372 -27.445  1.00  0.00    -0.242 N 
HETATM    9  H   UNL     1      -4.810   4.446 -27.095  1.00  0.00     0.192 HD
HETATM   10  O   UNL     1      -5.863   6.625 -29.191  1.00  0.00    -0.264 OA
BRANCH   8  11
HETATM   11  N   UNL     1      -4.616   6.461 -26.730  1.00  0.00    -0.183 NA
HETATM   12  C   UNL     1      -3.343   6.543 -26.503  1.00  0.00     0.153 C 
BRANCH  12  13
HETATM   13  C   UNL     1      -2.771   7.683 -25.763  1.00  0.00     0.016 A 
HETATM   14  C   UNL     1      -3.504   8.397 -24.808  1.00  0.00     0.077 A 
HETATM   15  C   UNL     1      -2.924   9.474 -24.143  1.00  0.00     0.037 A 
HETATM   16  C   UNL     1      -1.608   9.843 -24.429  1.00  0.00     0.003 A 
HETATM   17  C   UNL     1      -0.873   9.136 -25.380  1.00  0.00     0.001 A 
HETATM   18  C   UNL     1      -1.451   8.055 -26.049  1.00  0.00     0.016 A 
BRANCH  14  19
HETATM   19  O   UNL     1      -4.797   8.100 -24.473  1.00  0.00    -0.360 OA
HETATM   20  H   UNL     1      -4.829   7.888 -23.512  1.00  0.00     0.217 HD
ENDBRANCH  14  19
ENDBRANCH  12  13
ENDBRANCH   8  11
ENDBRANCH   5   7
BRANCH   1  21
HETATM   21  C   UNL     1      -5.790   1.327 -31.521  1.00  0.00    -0.005 A 
HETATM   22  C   UNL     1      -5.137   0.174 -31.065  1.00  0.00     0.016 A 
HETATM   23  C   UNL     1      -4.927  -0.918 -31.916  1.00  0.00     0.037 A 
HETATM   24  C   UNL     1      -5.368  -0.867 -33.237  1.00  0.00     0.068 A 
HETATM   25  C   UNL     1      -5.975   0.296 -33.712  1.00  0.00     0.037 A 
HETATM   26  C   UNL     1      -6.193   1.384 -32.862  1.00  0.00     0.016 A 
BRANCH  24  27
HETATM   27  O   UNL     1      -5.240  -1.872 -34.154  1.00  0.00    -0.351 OA
BRANCH  27  28
HETATM   28  C   UNL     1      -6.407  -2.161 -34.925  1.00  0.00     0.175 C 
BRANCH  28  29
HETATM   29  C   UNL     1      -6.872  -3.567 -34.556  1.00  0.00     0.022 C 
HETATM   30  C   UNL     1      -6.286  -4.619 -35.482  1.00  0.00     0.007 C 
ENDBRANCH  28  29
ENDBRANCH  27  28
ENDBRANCH  24  27
ENDBRANCH   1  21
TORSDOF 8
ENDMDL
MODEL 10
REMARK VINA RESULT:      -7.3      1.619      2.268
REMARK  8 active torsions:
REMARK  status: ('A' for Active; 'I' for Inactive)
REMARK    1  A    between atoms: C_2  and  C_3 
REMARK    2  A    between atoms: C_3  and  O_4 
REMARK    3  A    between atoms: O_4  and  C_5 
REMARK    4  A    between atoms: C_8  and  C_9 
REMARK    5  A    between atoms: C_13  and  C_14 
REMARK       I    between atoms: C_14  and  N_15 
REMARK    6  A    between atoms: N_15  and  N_16 
REMARK    7  A    between atoms: C_17  and  C_18 
REMARK    8  A    between atoms: C_19  and  O_20 
ROOT
HETATM    1  C   UNL     1      -3.278   3.656 -32.404  1.00  0.00     0.089 A 
HETATM    2  N   UNL     1      -2.291   4.006 -33.241  1.00  0.00    -0.174 NA
HETATM    3  N   UNL     1      -1.710   5.065 -32.658  1.00  0.00    -0.272 N 
HETATM    4  H   UNL     1      -0.925   5.514 -33.119  1.00  0.00     0.189 HD
HETATM    5  C   UNL     1      -2.247   5.402 -31.446  1.00  0.00     0.121 A 
HETATM    6  C   UNL     1      -3.290   4.515 -31.269  1.00  0.00     0.071 A 
ENDROOT
BRANCH   5   7
HETATM    7  C   UNL     1      -1.699   6.472 -30.651  1.00  0.00     0.289 C 
HETATM    8  N   UNL     1      -2.006   6.404 -29.300  1.00  0.00    -0.242 N 
HETATM    9  H   UNL     1      -2.562   5.640 -28.941  1.00  0.00     0.192 HD
HETATM   10  O   UNL     1      -0.999   7.349 -31.152  1.00  0.00    -0.264 OA
BRANCH   8  11
HETATM   11  N   UNL     1      -1.479   7.313 -28.431  1.00  0.00    -0.183 NA
HETATM   12  C   UNL     1      -0.222   7.160 -28.156  1.00  0.00     0.153 C 
BRANCH  12  13
HETATM   13  C   UNL     1       0.480   8.088 -27.249  1.00  0.00     0.016 A 
HETATM   14  C   UNL     1       0.109   9.431 -27.121  1.00  0.00     0.077 A 
HETATM   15  C   UNL     1       0.809  10.271 -26.259  1.00  0.00     0.037 A 
HETATM   16  C   UNL     1       1.885   9.773 -25.522  1.00  0.00     0.003 A 
HETATM   17  C   UNL     1       2.260   8.435 -25.646  1.00  0.00     0.001 A 
HETATM   18  C   UNL     1       1.559   7.589 -26.509  1.00  0.00     0.016 A 
BRANCH  14  19
HETATM   19  O   UNL     1      -0.930   9.996 -27.809  1.00  0.00    -0.360 OA
HETATM   20  H   UNL     1      -1.324  10.705 -27.252  1.00  0.00     0.217 HD
ENDBRANCH  14  19
ENDBRANCH  12  13
ENDBRANCH   8  11
ENDBRANCH   5   7
BRANCH   1  21
HETATM   21  C   UNL     1      -4.150   2.509 -32.664  1.00  0.00    -0.005 A 
HETATM   22  C   UNL     1      -3.678   1.203 -32.481  1.00  0.00     0.016 A 
HETATM   23  C   UNL     1      -4.523   0.102 -32.660  1.00  0.00     0.037 A 
HETATM   24  C   UNL     1      -5.854   0.296 -33.026  1.00  0.00     0.068 A 
HETATM   25  C   UNL     1      -6.318   1.591 -33.257  1.00  0.00     0.037 A 
HETATM   26  C   UNL     1      -5.478   2.692 -33.070  1.00  0.00     0.016 A 
BRANCH  24  27
HETATM   27  O   UNL     1      -6.777  -0.695 -33.209  1.00  0.00    -0.351 OA
BRANCH  27  28
HETATM   28  C   UNL     1      -6.933  -1.156 -34.553  1.00  0.00     0.175 C 
BRANCH  28  29
HETATM   29  C   UNL     1      -6.667  -2.658 -34.564  1.00  0.00     0.022 C 
HETATM   30  C   UNL     1      -5.234  -2.977 -34.953  1.00  0.00     0.007 C 
ENDBRANCH  28  29
ENDBRANCH  27  28
ENDBRANCH  24  27
ENDBRANCH   1  21
TORSDOF 8
ENDMDL
