MODEL 1
REMARK VINA RESULT:      -8.9      0.000      0.000
REMARK  8 active torsions:
REMARK  status: ('A' for Active; 'I' for Inactive)
REMARK    1  A    between atoms: C_3  and  N_4 
REMARK    2  A    between atoms: C_5  and  S_6 
REMARK    3  A    between atoms: S_6  and  C_7 
REMARK    4  A    between atoms: C_7  and  C_8 
REMARK       I    between atoms: C_8  and  N_9 
REMARK    5  A    between atoms: N_9  and  C_10 
REMARK    6  A    between atoms: C_10  and  C_11 
REMARK    7  A    between atoms: C_11  and  C_12 
REMARK    8  A    between atoms: C_22  and  N_23 
ROOT
HETATM    1  N   UNL     1      -3.878   4.018 -32.476  1.00  0.00    -0.275 N 
HETATM    2  C   UNL     1      -4.480   4.598 -33.623  1.00  0.00     0.177 A 
HETATM    3  N   UNL     1      -4.043   5.651 -34.272  1.00  0.00    -0.204 NA
HETATM    4  C   UNL     1      -2.887   6.150 -33.779  1.00  0.00     0.162 A 
HETATM    5  C   UNL     1      -2.145   5.729 -32.709  1.00  0.00     0.081 A 
HETATM    6  C   UNL     1      -2.643   4.602 -31.979  1.00  0.00     0.124 A 
HETATM    7  N   UNL     1      -2.204   7.211 -34.292  1.00  0.00    -0.260 N 
HETATM    8  H   UNL     1      -2.449   7.774 -35.099  1.00  0.00     0.191 HD
HETATM    9  N   UNL     1      -1.076   7.498 -33.605  1.00  0.00    -0.177 NA
HETATM   10  C   UNL     1      -1.031   6.578 -32.629  1.00  0.00     0.068 A 
HETATM   11  C   UNL     1       0.101   6.583 -31.673  1.00  0.00     0.073 C 
ENDROOT
BRANCH   2  12
HETATM   12  S   UNL     1      -5.993   3.913 -34.251  1.00  0.00    -0.082 SA
BRANCH  12  13
HETATM   13  C   UNL     1      -7.205   5.006 -33.470  1.00  0.00     0.185 C 
BRANCH  13  14
HETATM   14  C   UNL     1      -8.623   4.778 -33.983  1.00  0.00     0.227 C 
HETATM   15  N   UNL     1      -9.360   3.796 -33.365  1.00  0.00    -0.360 N 
HETATM   16  H   UNL     1     -10.277   3.652 -33.776  1.00  0.00     0.162 HD
HETATM   17  O   UNL     1      -9.146   5.431 -34.887  1.00  0.00    -0.273 OA
BRANCH  15  18
HETATM   18  C   UNL     1      -8.873   2.864 -32.362  1.00  0.00     0.127 C 
BRANCH  18  19
HETATM   19  C   UNL     1      -9.395   1.440 -32.556  1.00  0.00     0.058 C 
BRANCH  19  20
HETATM   20  C   UNL     1      -8.429   0.624 -33.380  1.00  0.00    -0.057 A 
HETATM   21  C   UNL     1      -8.002   1.079 -34.635  1.00  0.00     0.007 A 
HETATM   22  C   UNL     1      -7.146   0.300 -35.416  1.00  0.00     0.001 A 
HETATM   23  C   UNL     1      -6.713  -0.941 -34.953  1.00  0.00     0.000 A 
HETATM   24  C   UNL     1      -7.131  -1.403 -33.707  1.00  0.00     0.001 A 
HETATM   25  C   UNL     1      -7.984  -0.625 -32.923  1.00  0.00     0.007 A 
ENDBRANCH  19  20
ENDBRANCH  18  19
ENDBRANCH  15  18
ENDBRANCH  13  14
ENDBRANCH  12  13
ENDBRANCH   2  12
BRANCH   1  26
HETATM   26  C   UNL     1      -4.425   2.856 -31.851  1.00  0.00     0.051 A 
HETATM   27  C   UNL     1      -5.284   2.944 -30.733  1.00  0.00    -0.035 A 
HETATM   28  C   UNL     1      -5.776   4.258 -30.188  1.00  0.00     0.050 C 
HETATM   29  C   UNL     1      -5.750   1.761 -30.137  1.00  0.00     0.011 A 
HETATM   30  C   UNL     1      -5.341   0.512 -30.607  1.00  0.00     0.024 A 
HETATM   31  C   UNL     1      -4.476   0.433 -31.692  1.00  0.00     0.036 A 
HETATM   32  C   UNL     1      -4.020   1.592 -32.317  1.00  0.00     0.054 A 
HETATM   33 CL   UNL     1      -3.947  -1.103 -32.256  1.00  0.00    -0.084 Cl
ENDBRANCH   1  26
BRANCH   6  34
HETATM   34  N   UNL     1      -2.021   4.150 -30.906  1.00  0.00    -0.384 N 
HETATM   35  H   UNL     1      -1.106   4.484 -30.641  1.00  0.00     0.157 HD
HETATM   36  H   UNL     1      -2.468   3.456 -30.322  1.00  0.00     0.157 HD
ENDBRANCH   6  34
TORSDOF 8
ENDMDL
MODEL 2
REMARK VINA RESULT:      -8.4      2.633      4.303
REMARK  8 active torsions:
REMARK  status: ('A' for Active; 'I' for Inactive)
REMARK    1  A    between atoms: C_3  and  N_4 
REMARK    2  A    between atoms: C_5  and  S_6 
REMARK    3  A    between atoms: S_6  and  C_7 
REMARK    4  A    between atoms: C_7  and  C_8 
REMARK       I    between atoms: C_8  and  N_9 
REMARK    5  A    between atoms: N_9  and  C_10 
REMARK    6  A    between atoms: C_10  and  C_11 
REMARK    7  A    between atoms: C_11  and  C_12 
REMARK    8  A    between atoms: C_22  and  N_23 
ROOT
HETATM    1  N   UNL     1      -5.407   3.798 -32.726  1.00  0.00    -0.275 N 
HETATM    2  C   UNL     1      -5.127   3.568 -31.354  1.00  0.00     0.177 A 
HETATM    3  N   UNL     1      -3.976   3.770 -30.759  1.00  0.00    -0.204 NA
HETATM    4  C   UNL     1      -3.029   4.287 -31.573  1.00  0.00     0.162 A 
HETATM    5  C   UNL     1      -3.102   4.598 -32.903  1.00  0.00     0.081 A 
HETATM    6  C   UNL     1      -4.349   4.343 -33.561  1.00  0.00     0.124 A 
HETATM    7  N   UNL     1      -1.764   4.624 -31.196  1.00  0.00    -0.260 N 
HETATM    8  H   UNL     1      -1.350   4.543 -30.274  1.00  0.00     0.191 HD
HETATM    9  N   UNL     1      -1.023   5.122 -32.211  1.00  0.00    -0.177 NA
HETATM   10  C   UNL     1      -1.850   5.116 -33.268  1.00  0.00     0.068 A 
HETATM   11  C   UNL     1      -1.366   5.616 -34.576  1.00  0.00     0.073 C 
ENDROOT
BRANCH   2  12
HETATM   12  S   UNL     1      -6.397   2.897 -30.309  1.00  0.00    -0.082 SA
BRANCH  12  13
HETATM   13  C   UNL     1      -5.905   1.156 -30.261  1.00  0.00     0.185 C 
BRANCH  13  14
HETATM   14  C   UNL     1      -6.816   0.261 -31.094  1.00  0.00     0.227 C 
HETATM   15  N   UNL     1      -6.208  -0.689 -31.881  1.00  0.00    -0.360 N 
HETATM   16  H   UNL     1      -6.856  -1.224 -32.451  1.00  0.00     0.162 HD
HETATM   17  O   UNL     1      -8.046   0.322 -31.083  1.00  0.00    -0.273 OA
BRANCH  15  18
HETATM   18  C   UNL     1      -4.778  -0.833 -32.098  1.00  0.00     0.127 C 
BRANCH  18  19
HETATM   19  C   UNL     1      -4.408  -1.030 -33.568  1.00  0.00     0.058 C 
BRANCH  19  20
HETATM   20  C   UNL     1      -4.889  -2.372 -34.064  1.00  0.00    -0.057 A 
HETATM   21  C   UNL     1      -6.140  -2.496 -34.681  1.00  0.00     0.007 A 
HETATM   22  C   UNL     1      -6.603  -3.747 -35.097  1.00  0.00     0.001 A 
HETATM   23  C   UNL     1      -5.823  -4.883 -34.894  1.00  0.00     0.000 A 
HETATM   24  C   UNL     1      -4.577  -4.771 -34.282  1.00  0.00     0.001 A 
HETATM   25  C   UNL     1      -4.110  -3.522 -33.870  1.00  0.00     0.007 A 
ENDBRANCH  19  20
ENDBRANCH  18  19
ENDBRANCH  15  18
ENDBRANCH  13  14
ENDBRANCH  12  13
ENDBRANCH   2  12
BRANCH   1  26
HETATM   26  C   UNL     1      -6.704   3.563 -33.275  1.00  0.00     0.051 A 
HETATM   27  C   UNL     1      -7.720   4.544 -33.237  1.00  0.00    -0.035 A 
HETATM   28  C   UNL     1      -7.483   5.939 -32.722  1.00  0.00     0.050 C 
HETATM   29  C   UNL     1      -8.988   4.233 -33.753  1.00  0.00     0.011 A 
HETATM   30  C   UNL     1      -9.265   2.961 -34.258  1.00  0.00     0.024 A 
HETATM   31  C   UNL     1      -8.268   1.993 -34.270  1.00  0.00     0.036 A 
HETATM   32  C   UNL     1      -6.994   2.286 -33.787  1.00  0.00     0.054 A 
HETATM   33 CL   UNL     1      -8.612   0.417 -34.863  1.00  0.00    -0.084 Cl
ENDBRANCH   1  26
BRANCH   6  34
HETATM   34  N   UNL     1      -4.502   4.569 -34.852  1.00  0.00    -0.384 N 
HETATM   35  H   UNL     1      -4.258   3.879 -35.547  1.00  0.00     0.157 HD
HETATM   36  H   UNL     1      -4.881   5.453 -35.165  1.00  0.00     0.157 HD
ENDBRANCH   6  34
TORSDOF 8
ENDMDL
MODEL 3
REMARK VINA RESULT:      -8.4      2.529      3.428
REMARK  8 active torsions:
REMARK  status: ('A' for Active; 'I' for Inactive)
REMARK    1  A    between atoms: C_3  and  N_4 
REMARK    2  A    between atoms: C_5  and  S_6 
REMARK    3  A    between atoms: S_6  and  C_7 
REMARK    4  A    between atoms: C_7  and  C_8 
REMARK       I    between atoms: C_8  and  N_9 
REMARK    5  A    between atoms: N_9  and  C_10 
REMARK    6  A    between atoms: C_10  and  C_11 
REMARK    7  A    between atoms: C_11  and  C_12 
REMARK    8  A    between atoms: C_22  and  N_23 
ROOT
HETATM    1  N   UNL     1      -4.667   5.239 -31.977  1.00  0.00    -0.275 N 
HETATM    2  C   UNL     1      -4.976   5.302 -33.361  1.00  0.00     0.177 A 
HETATM    3  N   UNL     1      -4.188   5.755 -34.305  1.00  0.00    -0.204 NA
HETATM    4  C   UNL     1      -2.970   6.135 -33.859  1.00  0.00     0.162 A 
HETATM    5  C   UNL     1      -2.472   6.134 -32.585  1.00  0.00     0.081 A 
HETATM    6  C   UNL     1      -3.347   5.673 -31.548  1.00  0.00     0.124 A 
HETATM    7  N   UNL     1      -1.956   6.604 -34.638  1.00  0.00    -0.260 N 
HETATM    8  H   UNL     1      -1.956   6.735 -35.644  1.00  0.00     0.191 HD
HETATM    9  N   UNL     1      -0.844   6.911 -33.934  1.00  0.00    -0.177 NA
HETATM   10  C   UNL     1      -1.156   6.613 -32.663  1.00  0.00     0.068 A 
HETATM   11  C   UNL     1      -0.147   6.817 -31.597  1.00  0.00     0.073 C 
ENDROOT
BRANCH   2  12
HETATM   12  S   UNL     1      -6.582   4.784 -33.916  1.00  0.00    -0.082 SA
BRANCH  12  13
HETATM   13  C   UNL     1      -6.320   3.001 -34.083  1.00  0.00     0.185 C 
BRANCH  13  14
HETATM   14  C   UNL     1      -7.452   2.179 -33.478  1.00  0.00     0.227 C 
HETATM   15  N   UNL     1      -7.443   0.826 -33.726  1.00  0.00    -0.360 N 
HETATM   16  H   UNL     1      -8.243   0.334 -33.343  1.00  0.00     0.162 HD
HETATM   17  O   UNL     1      -8.345   2.644 -32.769  1.00  0.00    -0.273 OA
BRANCH  15  18
HETATM   18  C   UNL     1      -6.535   0.127 -34.621  1.00  0.00     0.127 C 
BRANCH  18  19
HETATM   19  C   UNL     1      -5.421  -0.619 -33.888  1.00  0.00     0.058 C 
BRANCH  19  20
HETATM   20  C   UNL     1      -5.501  -2.102 -34.161  1.00  0.00    -0.057 A 
HETATM   21  C   UNL     1      -4.372  -2.916 -34.007  1.00  0.00     0.007 A 
HETATM   22  C   UNL     1      -4.436  -4.279 -34.307  1.00  0.00     0.001 A 
HETATM   23  C   UNL     1      -5.627  -4.837 -34.766  1.00  0.00     0.000 A 
HETATM   24  C   UNL     1      -6.756  -4.037 -34.922  1.00  0.00     0.001 A 
HETATM   25  C   UNL     1      -6.695  -2.676 -34.620  1.00  0.00     0.007 A 
ENDBRANCH  19  20
ENDBRANCH  18  19
ENDBRANCH  15  18
ENDBRANCH  13  14
ENDBRANCH  12  13
ENDBRANCH   2  12
BRANCH   1  26
HETATM   26  C   UNL     1      -5.591   4.709 -31.026  1.00  0.00     0.051 A 
HETATM   27  C   UNL     1      -5.546   3.359 -30.613  1.00  0.00    -0.035 A 
HETATM   28  C   UNL     1      -4.461   2.411 -31.051  1.00  0.00     0.050 C 
HETATM   29  C   UNL     1      -6.513   2.890 -29.710  1.00  0.00     0.011 A 
HETATM   30  C   UNL     1      -7.536   3.725 -29.256  1.00  0.00     0.024 A 
HETATM   31  C   UNL     1      -7.589   5.045 -29.686  1.00  0.00     0.036 A 
HETATM   32  C   UNL     1      -6.625   5.541 -30.562  1.00  0.00     0.054 A 
HETATM   33 CL   UNL     1      -8.863   6.069 -29.153  1.00  0.00    -0.084 Cl
ENDBRANCH   1  26
BRANCH   6  34
HETATM   34  N   UNL     1      -2.972   5.676 -30.283  1.00  0.00    -0.384 N 
HETATM   35  H   UNL     1      -3.594   5.965 -29.543  1.00  0.00     0.157 HD
HETATM   36  H   UNL     1      -2.039   5.375 -30.036  1.00  0.00     0.157 HD
ENDBRANCH   6  34
TORSDOF 8
ENDMDL
MODEL 4
REMARK VINA RESULT:      -8.2      3.719      6.526
REMARK  8 active torsions:
REMARK  status: ('A' for Active; 'I' for Inactive)
REMARK    1  A    between atoms: C_3  and  N_4 
REMARK    2  A    between atoms: C_5  and  S_6 
REMARK    3  A    between atoms: S_6  and  C_7 
REMARK    4  A    between atoms: C_7  and  C_8 
REMARK       I    between atoms: C_8  and  N_9 
REMARK    5  A    between atoms: N_9  and  C_10 
REMARK    6  A    between atoms: C_10  and  C_11 
REMARK    7  A    between atoms: C_11  and  C_12 
REMARK    8  A    between atoms: C_22  and  N_23 
ROOT
HETATM    1  N   UNL     1      -5.406  -0.613 -33.196  1.00  0.00    -0.275 N 
HETATM    2  C   UNL     1      -6.591  -0.667 -33.977  1.00  0.00     0.177 A 
HETATM    3  N   UNL     1      -6.989  -1.684 -34.702  1.00  0.00    -0.204 NA
HETATM    4  C   UNL     1      -6.177  -2.762 -34.617  1.00  0.00     0.162 A 
HETATM    5  C   UNL     1      -5.015  -2.920 -33.913  1.00  0.00     0.081 A 
HETATM    6  C   UNL     1      -4.561  -1.795 -33.150  1.00  0.00     0.124 A 
HETATM    7  N   UNL     1      -6.384  -3.956 -35.239  1.00  0.00    -0.260 N 
HETATM    8  H   UNL     1      -7.156  -4.214 -35.843  1.00  0.00     0.191 HD
HETATM    9  N   UNL     1      -5.416  -4.863 -34.980  1.00  0.00    -0.177 NA
HETATM   10  C   UNL     1      -4.571  -4.229 -34.153  1.00  0.00     0.068 A 
HETATM   11  C   UNL     1      -3.375  -4.941 -33.646  1.00  0.00     0.073 C 
ENDROOT
BRANCH   2  12
HETATM   12  S   UNL     1      -7.641   0.763 -34.060  1.00  0.00    -0.082 SA
BRANCH  12  13
HETATM   13  C   UNL     1      -9.041   0.209 -33.055  1.00  0.00     0.185 C 
BRANCH  13  14
HETATM   14  C   UNL     1     -10.195   1.205 -33.050  1.00  0.00     0.227 C 
HETATM   15  N   UNL     1     -10.111   2.255 -32.166  1.00  0.00    -0.360 N 
HETATM   16  H   UNL     1     -10.926   2.860 -32.169  1.00  0.00     0.162 HD
HETATM   17  O   UNL     1     -11.171   1.139 -33.799  1.00  0.00    -0.273 OA
BRANCH  15  18
HETATM   18  C   UNL     1      -9.093   2.432 -31.144  1.00  0.00     0.127 C 
BRANCH  18  19
HETATM   19  C   UNL     1      -8.925   3.887 -30.705  1.00  0.00     0.058 C 
BRANCH  19  20
HETATM   20  C   UNL     1      -7.823   4.558 -31.490  1.00  0.00    -0.057 A 
HETATM   21  C   UNL     1      -7.052   5.573 -30.909  1.00  0.00     0.007 A 
HETATM   22  C   UNL     1      -6.065   6.224 -31.653  1.00  0.00     0.001 A 
HETATM   23  C   UNL     1      -5.845   5.871 -32.982  1.00  0.00     0.000 A 
HETATM   24  C   UNL     1      -6.606   4.863 -33.570  1.00  0.00     0.001 A 
HETATM   25  C   UNL     1      -7.590   4.208 -32.828  1.00  0.00     0.007 A 
ENDBRANCH  19  20
ENDBRANCH  18  19
ENDBRANCH  15  18
ENDBRANCH  13  14
ENDBRANCH  12  13
ENDBRANCH   2  12
BRANCH   1  26
HETATM   26  C   UNL     1      -5.070   0.540 -32.424  1.00  0.00     0.051 A 
HETATM   27  C   UNL     1      -5.640   0.780 -31.154  1.00  0.00    -0.035 A 
HETATM   28  C   UNL     1      -6.551  -0.207 -30.473  1.00  0.00     0.050 C 
HETATM   29  C   UNL     1      -5.302   1.956 -30.466  1.00  0.00     0.011 A 
HETATM   30  C   UNL     1      -4.451   2.902 -31.040  1.00  0.00     0.024 A 
HETATM   31  C   UNL     1      -3.913   2.671 -32.300  1.00  0.00     0.036 A 
HETATM   32  C   UNL     1      -4.213   1.499 -32.991  1.00  0.00     0.054 A 
HETATM   33 CL   UNL     1      -2.888   3.848 -33.022  1.00  0.00    -0.084 Cl
ENDBRANCH   1  26
BRANCH   6  34
HETATM   34  N   UNL     1      -3.429  -1.838 -32.473  1.00  0.00    -0.384 N 
HETATM   35  H   UNL     1      -2.535  -1.918 -32.935  1.00  0.00     0.157 HD
HETATM   36  H   UNL     1      -3.445  -1.780 -31.464  1.00  0.00     0.157 HD
ENDBRANCH   6  34
TORSDOF 8
ENDMDL
MODEL 5
REMARK VINA RESULT:      -8.2      3.764      7.013
REMARK  8 active torsions:
REMARK  status: ('A' for Active; 'I' for Inactive)
REMARK    1  A    between atoms: C_3  and  N_4 
REMARK    2  A    between atoms: C_5  and  S_6 
REMARK    3  A    between atoms: S_6  and  C_7 
REMARK    4  A    between atoms: C_7  and  C_8 
REMARK       I    between atoms: C_8  and  N_9 
REMARK    5  A    between atoms: N_9  and  C_10 
REMARK    6  A    between atoms: C_10  and  C_11 
REMARK    7  A    between atoms: C_11  and  C_12 
REMARK    8  A    between atoms: C_22  and  N_23 
ROOT
HETATM    1  N   UNL     1      -8.275   2.993 -32.757  1.00  0.00    -0.275 N 
HETATM    2  C   UNL     1      -8.094   1.850 -31.934  1.00  0.00     0.177 A 
HETATM    3  N   UNL     1      -8.905   0.823 -31.854  1.00  0.00    -0.204 NA
HETATM    4  C   UNL     1      -9.963   0.901 -32.692  1.00  0.00     0.162 A 
HETATM    5  C   UNL     1     -10.304   1.894 -33.570  1.00  0.00     0.081 A 
HETATM    6  C   UNL     1      -9.438   3.033 -33.629  1.00  0.00     0.124 A 
HETATM    7  N   UNL     1     -10.929  -0.048 -32.833  1.00  0.00    -0.260 N 
HETATM    8  H   UNL     1     -11.002  -0.935 -32.347  1.00  0.00     0.191 HD
HETATM    9  N   UNL     1     -11.872   0.285 -33.742  1.00  0.00    -0.177 NA
HETATM   10  C   UNL     1     -11.485   1.483 -34.207  1.00  0.00     0.068 A 
HETATM   11  C   UNL     1     -12.294   2.157 -35.249  1.00  0.00     0.073 C 
ENDROOT
BRANCH   2  12
HETATM   12  S   UNL     1      -6.687   1.774 -30.853  1.00  0.00    -0.082 SA
BRANCH  12  13
HETATM   13  C   UNL     1      -5.527   0.837 -31.878  1.00  0.00     0.185 C 
BRANCH  13  14
HETATM   14  C   UNL     1      -4.077   1.010 -31.438  1.00  0.00     0.227 C 
HETATM   15  N   UNL     1      -3.224  -0.043 -31.671  1.00  0.00    -0.360 N 
HETATM   16  H   UNL     1      -2.285   0.105 -31.315  1.00  0.00     0.162 HD
HETATM   17  O   UNL     1      -3.628   2.032 -30.919  1.00  0.00    -0.273 OA
BRANCH  15  18
HETATM   18  C   UNL     1      -3.601  -1.354 -32.172  1.00  0.00     0.127 C 
BRANCH  18  19
HETATM   19  C   UNL     1      -3.708  -1.410 -33.695  1.00  0.00     0.058 C 
BRANCH  19  20
HETATM   20  C   UNL     1      -4.624  -2.531 -34.126  1.00  0.00    -0.057 A 
HETATM   21  C   UNL     1      -5.950  -2.266 -34.489  1.00  0.00     0.007 A 
HETATM   22  C   UNL     1      -6.809  -3.310 -34.840  1.00  0.00     0.001 A 
HETATM   23  C   UNL     1      -6.352  -4.626 -34.826  1.00  0.00     0.000 A 
HETATM   24  C   UNL     1      -5.034  -4.901 -34.468  1.00  0.00     0.001 A 
HETATM   25  C   UNL     1      -4.173  -3.859 -34.119  1.00  0.00     0.007 A 
ENDBRANCH  19  20
ENDBRANCH  18  19
ENDBRANCH  15  18
ENDBRANCH  13  14
ENDBRANCH  12  13
ENDBRANCH   2  12
BRANCH   1  26
HETATM   26  C   UNL     1      -7.320   4.054 -32.785  1.00  0.00     0.051 A 
HETATM   27  C   UNL     1      -7.413   5.165 -31.918  1.00  0.00    -0.035 A 
HETATM   28  C   UNL     1      -8.450   5.261 -30.830  1.00  0.00     0.050 C 
HETATM   29  C   UNL     1      -6.468   6.197 -32.028  1.00  0.00     0.011 A 
HETATM   30  C   UNL     1      -5.473   6.157 -33.007  1.00  0.00     0.024 A 
HETATM   31  C   UNL     1      -5.403   5.073 -33.874  1.00  0.00     0.036 A 
HETATM   32  C   UNL     1      -6.314   4.024 -33.767  1.00  0.00     0.054 A 
HETATM   33 CL   UNL     1      -4.199   5.035 -35.100  1.00  0.00    -0.084 Cl
ENDBRANCH   1  26
BRANCH   6  34
HETATM   34  N   UNL     1      -9.708   4.059 -34.413  1.00  0.00    -0.384 N 
HETATM   35  H   UNL     1      -9.501   4.045 -35.401  1.00  0.00     0.157 HD
HETATM   36  H   UNL     1     -10.141   4.887 -34.025  1.00  0.00     0.157 HD
ENDBRANCH   6  34
TORSDOF 8
ENDMDL
MODEL 6
REMARK VINA RESULT:      -8.2      4.179      6.651
REMARK  8 active torsions:
REMARK  status: ('A' for Active; 'I' for Inactive)
REMARK    1  A    between atoms: C_3  and  N_4 
REMARK    2  A    between atoms: C_5  and  S_6 
REMARK    3  A    between atoms: S_6  and  C_7 
REMARK    4  A    between atoms: C_7  and  C_8 
REMARK       I    between atoms: C_8  and  N_9 
REMARK    5  A    between atoms: N_9  and  C_10 
REMARK    6  A    between atoms: C_10  and  C_11 
REMARK    7  A    between atoms: C_11  and  C_12 
REMARK    8  A    between atoms: C_22  and  N_23 
ROOT
HETATM    1  N   UNL     1      -5.140  -0.223 -33.164  1.00  0.00    -0.275 N 
HETATM    2  C   UNL     1      -6.242  -0.184 -34.058  1.00  0.00     0.177 A 
HETATM    3  N   UNL     1      -6.645  -1.167 -34.826  1.00  0.00    -0.204 NA
HETATM    4  C   UNL     1      -5.933  -2.305 -34.668  1.00  0.00     0.162 A 
HETATM    5  C   UNL     1      -4.862  -2.554 -33.854  1.00  0.00     0.081 A 
HETATM    6  C   UNL     1      -4.399  -1.468 -33.042  1.00  0.00     0.124 A 
HETATM    7  N   UNL     1      -6.171  -3.480 -35.315  1.00  0.00    -0.260 N 
HETATM    8  H   UNL     1      -6.897  -3.678 -35.994  1.00  0.00     0.191 HD
HETATM    9  N   UNL     1      -5.307  -4.461 -34.968  1.00  0.00    -0.177 NA
HETATM   10  C   UNL     1      -4.501  -3.894 -34.057  1.00  0.00     0.068 A 
HETATM   11  C   UNL     1      -3.421  -4.698 -33.439  1.00  0.00     0.073 C 
ENDROOT
BRANCH   2  12
HETATM   12  S   UNL     1      -7.163   1.324 -34.235  1.00  0.00    -0.082 SA
BRANCH  12  13
HETATM   13  C   UNL     1      -8.834   0.670 -34.474  1.00  0.00     0.185 C 
BRANCH  13  14
HETATM   14  C   UNL     1      -9.641   0.627 -33.181  1.00  0.00     0.227 C 
HETATM   15  N   UNL     1     -10.525   1.657 -32.961  1.00  0.00    -0.360 N 
HETATM   16  H   UNL     1     -11.000   1.605 -32.066  1.00  0.00     0.162 HD
HETATM   17  O   UNL     1      -9.567  -0.278 -32.348  1.00  0.00    -0.273 OA
BRANCH  15  18
HETATM   18  C   UNL     1     -10.665   2.852 -33.777  1.00  0.00     0.127 C 
BRANCH  18  19
HETATM   19  C   UNL     1     -11.795   2.754 -34.802  1.00  0.00     0.058 C 
BRANCH  19  20
HETATM   20  C   UNL     1     -13.104   2.427 -34.124  1.00  0.00    -0.057 A 
HETATM   21  C   UNL     1     -13.571   3.213 -33.062  1.00  0.00     0.007 A 
HETATM   22  C   UNL     1     -14.758   2.881 -32.406  1.00  0.00     0.001 A 
HETATM   23  C   UNL     1     -15.485   1.759 -32.801  1.00  0.00     0.000 A 
HETATM   24  C   UNL     1     -15.031   0.972 -33.856  1.00  0.00     0.001 A 
HETATM   25  C   UNL     1     -13.846   1.304 -34.516  1.00  0.00     0.007 A 
ENDBRANCH  19  20
ENDBRANCH  18  19
ENDBRANCH  15  18
ENDBRANCH  13  14
ENDBRANCH  12  13
ENDBRANCH   2  12
BRANCH   1  26
HETATM   26  C   UNL     1      -4.792   0.901 -32.355  1.00  0.00     0.051 A 
HETATM   27  C   UNL     1      -5.437   1.165 -31.127  1.00  0.00    -0.035 A 
HETATM   28  C   UNL     1      -6.453   0.230 -30.525  1.00  0.00     0.050 C 
HETATM   29  C   UNL     1      -5.080   2.313 -30.401  1.00  0.00     0.011 A 
HETATM   30  C   UNL     1      -4.134   3.210 -30.900  1.00  0.00     0.024 A 
HETATM   31  C   UNL     1      -3.521   2.957 -32.121  1.00  0.00     0.036 A 
HETATM   32  C   UNL     1      -3.840   1.812 -32.847  1.00  0.00     0.054 A 
HETATM   33 CL   UNL     1      -2.378   4.075 -32.753  1.00  0.00    -0.084 Cl
ENDBRANCH   1  26
BRANCH   6  34
HETATM   34  N   UNL     1      -3.346  -1.599 -32.258  1.00  0.00    -0.384 N 
HETATM   35  H   UNL     1      -3.204  -1.006 -31.453  1.00  0.00     0.157 HD
HETATM   36  H   UNL     1      -2.660  -2.315 -32.455  1.00  0.00     0.157 HD
ENDBRANCH   6  34
TORSDOF 8
ENDMDL
MODEL 7
REMARK VINA RESULT:      -8.0      2.766      5.065
REMARK  8 active torsions:
REMARK  status: ('A' for Active; 'I' for Inactive)
REMARK    1  A    between atoms: C_3  and  N_4 
REMARK    2  A    between atoms: C_5  and  S_6 
REMARK    3  A    between atoms: S_6  and  C_7 
REMARK    4  A    between atoms: C_7  and  C_8 
REMARK       I    between atoms: C_8  and  N_9 
REMARK    5  A    between atoms: N_9  and  C_10 
REMARK    6  A    between atoms: C_10  and  C_11 
REMARK    7  A    between atoms: C_11  and  C_12 
REMARK    8  A    between atoms: C_22  and  N_23 
ROOT
HETATM    1  N   UNL     1      -4.087   4.179 -31.491  1.00  0.00    -0.275 N 
HETATM    2  C   UNL     1      -5.069   4.656 -30.583  1.00  0.00     0.177 A 
HETATM    3  N   UNL     1      -5.896   3.915 -29.886  1.00  0.00    -0.204 NA
HETATM    4  C   UNL     1      -5.712   2.587 -30.058  1.00  0.00     0.162 A 
HETATM    5  C   UNL     1      -4.818   1.931 -30.860  1.00  0.00     0.081 A 
HETATM    6  C   UNL     1      -3.940   2.741 -31.650  1.00  0.00     0.124 A 
HETATM    7  N   UNL     1      -6.410   1.605 -29.424  1.00  0.00    -0.260 N 
HETATM    8  H   UNL     1      -7.153   1.714 -28.742  1.00  0.00     0.191 HD
HETATM    9  N   UNL     1      -6.021   0.361 -29.782  1.00  0.00    -0.177 NA
HETATM   10  C   UNL     1      -5.029   0.558 -30.664  1.00  0.00     0.068 A 
HETATM   11  C   UNL     1      -4.346  -0.610 -31.267  1.00  0.00     0.073 C 
ENDROOT
BRANCH   2  12
HETATM   12  S   UNL     1      -5.279   6.406 -30.372  1.00  0.00    -0.082 SA
BRANCH  12  13
HETATM   13  C   UNL     1      -6.752   6.691 -31.384  1.00  0.00     0.185 C 
BRANCH  13  14
HETATM   14  C   UNL     1      -8.050   6.470 -30.614  1.00  0.00     0.227 C 
HETATM   15  N   UNL     1      -8.787   5.356 -30.941  1.00  0.00    -0.360 N 
HETATM   16  H   UNL     1      -9.664   5.282 -30.434  1.00  0.00     0.162 HD
HETATM   17  O   UNL     1      -8.456   7.205 -29.713  1.00  0.00    -0.273 OA
BRANCH  15  18
HETATM   18  C   UNL     1      -8.518   4.444 -32.040  1.00  0.00     0.127 C 
BRANCH  18  19
HETATM   19  C   UNL     1      -9.005   3.019 -31.775  1.00  0.00     0.058 C 
BRANCH  19  20
HETATM   20  C   UNL     1      -8.231   2.027 -32.610  1.00  0.00    -0.057 A 
HETATM   21  C   UNL     1      -8.445   0.651 -32.461  1.00  0.00     0.007 A 
HETATM   22  C   UNL     1      -7.695  -0.267 -33.199  1.00  0.00     0.001 A 
HETATM   23  C   UNL     1      -6.721   0.183 -34.088  1.00  0.00     0.000 A 
HETATM   24  C   UNL     1      -6.499   1.549 -34.245  1.00  0.00     0.001 A 
HETATM   25  C   UNL     1      -7.251   2.468 -33.511  1.00  0.00     0.007 A 
ENDBRANCH  19  20
ENDBRANCH  18  19
ENDBRANCH  15  18
ENDBRANCH  13  14
ENDBRANCH  12  13
ENDBRANCH   2  12
BRANCH   1  26
HETATM   26  C   UNL     1      -3.220   5.071 -32.192  1.00  0.00     0.051 A 
HETATM   27  C   UNL     1      -3.488   5.488 -33.514  1.00  0.00    -0.035 A 
HETATM   28  C   UNL     1      -4.753   5.119 -34.242  1.00  0.00     0.050 C 
HETATM   29  C   UNL     1      -2.570   6.330 -34.163  1.00  0.00     0.011 A 
HETATM   30  C   UNL     1      -1.386   6.719 -33.534  1.00  0.00     0.024 A 
HETATM   31  C   UNL     1      -1.117   6.285 -32.242  1.00  0.00     0.036 A 
HETATM   32  C   UNL     1      -2.024   5.470 -31.568  1.00  0.00     0.054 A 
HETATM   33 CL   UNL     1       0.354   6.738 -31.475  1.00  0.00    -0.084 Cl
ENDBRANCH   1  26
BRANCH   6  34
HETATM   34  N   UNL     1      -3.074   2.201 -32.486  1.00  0.00    -0.384 N 
HETATM   35  H   UNL     1      -2.079   2.340 -32.388  1.00  0.00     0.157 HD
HETATM   36  H   UNL     1      -3.405   1.621 -33.246  1.00  0.00     0.157 HD
ENDBRANCH   6  34
TORSDOF 8
ENDMDL
MODEL 8
REMARK VINA RESULT:      -8.0      2.326      7.333
REMARK  8 active torsions:
REMARK  status: ('A' for Active; 'I' for Inactive)
REMARK    1  A    between atoms: C_3  and  N_4 
REMARK    2  A    between atoms: C_5  and  S_6 
REMARK    3  A    between atoms: S_6  and  C_7 
REMARK    4  A    between atoms: C_7  and  C_8 
REMARK       I    between atoms: C_8  and  N_9 
REMARK    5  A    between atoms: N_9  and  C_10 
REMARK    6  A    between atoms: C_10  and  C_11 
REMARK    7  A    between atoms: C_11  and  C_12 
REMARK    8  A    between atoms: C_22  and  N_23 
ROOT
HETATM    1  N   UNL     1      -8.966   1.609 -33.348  1.00  0.00    -0.275 N 
HETATM    2  C   UNL     1      -9.061   2.966 -33.754  1.00  0.00     0.177 A 
HETATM    3  N   UNL     1     -10.151   3.576 -34.151  1.00  0.00    -0.204 NA
HETATM    4  C   UNL     1     -11.257   2.799 -34.100  1.00  0.00     0.162 A 
HETATM    5  C   UNL     1     -11.381   1.490 -33.723  1.00  0.00     0.081 A 
HETATM    6  C   UNL     1     -10.183   0.813 -33.325  1.00  0.00     0.124 A 
HETATM    7  N   UNL     1     -12.518   3.201 -34.421  1.00  0.00    -0.260 N 
HETATM    8  H   UNL     1     -12.816   4.117 -34.736  1.00  0.00     0.191 HD
HETATM    9  N   UNL     1     -13.438   2.221 -34.279  1.00  0.00    -0.177 NA
HETATM   10  C   UNL     1     -12.740   1.162 -33.839  1.00  0.00     0.068 A 
HETATM   11  C   UNL     1     -13.445  -0.110 -33.559  1.00  0.00     0.073 C 
ENDROOT
BRANCH   2  12
HETATM   12  S   UNL     1      -7.592   3.963 -33.800  1.00  0.00    -0.082 SA
BRANCH  12  13
HETATM   13  C   UNL     1      -7.642   4.710 -32.152  1.00  0.00     0.185 C 
BRANCH  13  14
HETATM   14  C   UNL     1      -6.652   5.858 -31.994  1.00  0.00     0.227 C 
HETATM   15  N   UNL     1      -5.402   5.543 -31.515  1.00  0.00    -0.360 N 
HETATM   16  H   UNL     1      -4.799   6.349 -31.383  1.00  0.00     0.162 HD
HETATM   17  O   UNL     1      -6.895   7.029 -32.290  1.00  0.00    -0.273 OA
BRANCH  15  18
HETATM   18  C   UNL     1      -4.978   4.244 -31.019  1.00  0.00     0.127 C 
BRANCH  18  19
HETATM   19  C   UNL     1      -4.237   3.412 -32.064  1.00  0.00     0.058 C 
BRANCH  19  20
HETATM   20  C   UNL     1      -3.219   4.254 -32.795  1.00  0.00    -0.057 A 
HETATM   21  C   UNL     1      -3.437   4.643 -34.123  1.00  0.00     0.007 A 
HETATM   22  C   UNL     1      -2.472   5.382 -34.811  1.00  0.00     0.001 A 
HETATM   23  C   UNL     1      -1.281   5.734 -34.181  1.00  0.00     0.000 A 
HETATM   24  C   UNL     1      -1.053   5.353 -32.860  1.00  0.00     0.001 A 
HETATM   25  C   UNL     1      -2.017   4.618 -32.169  1.00  0.00     0.007 A 
ENDBRANCH  19  20
ENDBRANCH  18  19
ENDBRANCH  15  18
ENDBRANCH  13  14
ENDBRANCH  12  13
ENDBRANCH   2  12
BRANCH   1  26
HETATM   26  C   UNL     1      -7.730   1.042 -32.914  1.00  0.00     0.051 A 
HETATM   27  C   UNL     1      -6.873   0.352 -33.800  1.00  0.00    -0.035 A 
HETATM   28  C   UNL     1      -7.138   0.259 -35.279  1.00  0.00     0.050 C 
HETATM   29  C   UNL     1      -5.693  -0.222 -33.299  1.00  0.00     0.011 A 
HETATM   30  C   UNL     1      -5.385  -0.155 -31.939  1.00  0.00     0.024 A 
HETATM   31  C   UNL     1      -6.245   0.504 -31.069  1.00  0.00     0.036 A 
HETATM   32  C   UNL     1      -7.409   1.104 -31.546  1.00  0.00     0.054 A 
HETATM   33 CL   UNL     1      -5.884   0.563 -29.389  1.00  0.00    -0.084 Cl
ENDBRANCH   1  26
BRANCH   6  34
HETATM   34  N   UNL     1     -10.196  -0.462 -32.986  1.00  0.00    -0.384 N 
HETATM   35  H   UNL     1      -9.726  -1.165 -33.538  1.00  0.00     0.157 HD
HETATM   36  H   UNL     1     -10.681  -0.753 -32.148  1.00  0.00     0.157 HD
ENDBRANCH   6  34
TORSDOF 8
ENDMDL
MODEL 9
REMARK VINA RESULT:      -7.9      4.150      8.654
REMARK  8 active torsions:
REMARK  status: ('A' for Active; 'I' for Inactive)
REMARK    1  A    between atoms: C_3  and  N_4 
REMARK    2  A    between atoms: C_5  and  S_6 
REMARK    3  A    between atoms: S_6  and  C_7 
REMARK    4  A    between atoms: C_7  and  C_8 
REMARK       I    between atoms: C_8  and  N_9 
REMARK    5  A    between atoms: N_9  and  C_10 
REMARK    6  A    between atoms: C_10  and  C_11 
REMARK    7  A    between atoms: C_11  and  C_12 
REMARK    8  A    between atoms: C_22  and  N_23 
ROOT
HETATM    1  N   UNL     1      -4.048   4.357 -31.378  1.00  0.00    -0.275 N 
HETATM    2  C   UNL     1      -4.993   4.836 -30.433  1.00  0.00     0.177 A 
HETATM    3  N   UNL     1      -5.826   4.100 -29.737  1.00  0.00    -0.204 NA
HETATM    4  C   UNL     1      -5.686   2.772 -29.952  1.00  0.00     0.162 A 
HETATM    5  C   UNL     1      -4.832   2.114 -30.794  1.00  0.00     0.081 A 
HETATM    6  C   UNL     1      -3.948   2.921 -31.581  1.00  0.00     0.124 A 
HETATM    7  N   UNL     1      -6.400   1.793 -29.329  1.00  0.00    -0.260 N 
HETATM    8  H   UNL     1      -7.123   1.905 -28.628  1.00  0.00     0.191 HD
HETATM    9  N   UNL     1      -6.057   0.549 -29.732  1.00  0.00    -0.177 NA
HETATM   10  C   UNL     1      -5.080   0.743 -30.632  1.00  0.00     0.068 A 
HETATM   11  C   UNL     1      -4.448  -0.427 -31.284  1.00  0.00     0.073 C 
ENDROOT
BRANCH   2  12
HETATM   12  S   UNL     1      -5.145   6.585 -30.167  1.00  0.00    -0.082 SA
BRANCH  12  13
HETATM   13  C   UNL     1      -4.106   6.791 -28.699  1.00  0.00     0.185 C 
BRANCH  13  14
HETATM   14  C   UNL     1      -4.894   6.691 -27.398  1.00  0.00     0.227 C 
HETATM   15  N   UNL     1      -4.187   6.827 -26.227  1.00  0.00    -0.360 N 
HETATM   16  H   UNL     1      -4.751   6.703 -25.392  1.00  0.00     0.162 HD
HETATM   17  O   UNL     1      -6.113   6.525 -27.338  1.00  0.00    -0.273 OA
BRANCH  15  18
HETATM   18  C   UNL     1      -2.742   6.921 -26.107  1.00  0.00     0.127 C 
BRANCH  18  19
HETATM   19  C   UNL     1      -2.235   8.362 -26.037  1.00  0.00     0.058 C 
BRANCH  19  20
HETATM   20  C   UNL     1      -0.794   8.443 -26.479  1.00  0.00    -0.057 A 
HETATM   21  C   UNL     1       0.201   8.871 -25.591  1.00  0.00     0.007 A 
HETATM   22  C   UNL     1       1.526   8.991 -26.017  1.00  0.00     0.001 A 
HETATM   23  C   UNL     1       1.866   8.690 -27.334  1.00  0.00     0.000 A 
HETATM   24  C   UNL     1       0.885   8.262 -28.226  1.00  0.00     0.001 A 
HETATM   25  C   UNL     1      -0.439   8.138 -27.802  1.00  0.00     0.007 A 
ENDBRANCH  19  20
ENDBRANCH  18  19
ENDBRANCH  15  18
ENDBRANCH  13  14
ENDBRANCH  12  13
ENDBRANCH   2  12
BRANCH   1  26
HETATM   26  C   UNL     1      -3.170   5.243 -32.073  1.00  0.00     0.051 A 
HETATM   27  C   UNL     1      -3.447   5.693 -33.382  1.00  0.00    -0.035 A 
HETATM   28  C   UNL     1      -4.732   5.370 -34.098  1.00  0.00     0.050 C 
HETATM   29  C   UNL     1      -2.520   6.527 -34.028  1.00  0.00     0.011 A 
HETATM   30  C   UNL     1      -1.317   6.875 -33.410  1.00  0.00     0.024 A 
HETATM   31  C   UNL     1      -1.039   6.408 -32.130  1.00  0.00     0.036 A 
HETATM   32  C   UNL     1      -1.956   5.600 -31.460  1.00  0.00     0.054 A 
HETATM   33 CL   UNL     1       0.453   6.809 -31.378  1.00  0.00    -0.084 Cl
ENDBRANCH   1  26
BRANCH   6  34
HETATM   34  N   UNL     1      -3.118   2.379 -32.453  1.00  0.00    -0.384 N 
HETATM   35  H   UNL     1      -2.500   2.939 -33.019  1.00  0.00     0.157 HD
HETATM   36  H   UNL     1      -3.089   1.373 -32.558  1.00  0.00     0.157 HD
ENDBRANCH   6  34
TORSDOF 8
ENDMDL
MODEL 10
REMARK VINA RESULT:      -7.8      3.115      5.795
REMARK  8 active torsions:
REMARK  status: ('A' for Active; 'I' for Inactive)
REMARK    1  A    between atoms: C_3  and  N_4 
REMARK    2  A    between atoms: C_5  and  S_6 
REMARK    3  A    between atoms: S_6  and  C_7 
REMARK    4  A    between atoms: C_7  and  C_8 
REMARK       I    between atoms: C_8  and  N_9 
REMARK    5  A    between atoms: N_9  and  C_10 
REMARK    6  A    between atoms: C_10  and  C_11 
REMARK    7  A    between atoms: C_11  and  C_12 
REMARK    8  A    between atoms: C_22  and  N_23 
ROOT
HETATM    1  N   UNL     1      -4.745   4.055 -31.765  1.00  0.00    -0.275 N 
HETATM    2  C   UNL     1      -4.832   2.681 -31.418  1.00  0.00     0.177 A 
HETATM    3  N   UNL     1      -5.859   2.094 -30.851  1.00  0.00    -0.204 NA
HETATM    4  C   UNL     1      -6.912   2.918 -30.651  1.00  0.00     0.162 A 
HETATM    5  C   UNL     1      -7.037   4.251 -30.931  1.00  0.00     0.081 A 
HETATM    6  C   UNL     1      -5.902   4.900 -31.516  1.00  0.00     0.124 A 
HETATM    7  N   UNL     1      -8.110   2.551 -30.117  1.00  0.00    -0.260 N 
HETATM    8  H   UNL     1      -8.390   1.630 -29.797  1.00  0.00     0.191 HD
HETATM    9  N   UNL     1      -8.988   3.574 -30.031  1.00  0.00    -0.177 NA
HETATM   10  C   UNL     1      -8.331   4.627 -30.542  1.00  0.00     0.068 A 
HETATM   11  C   UNL     1      -9.009   5.942 -30.618  1.00  0.00     0.073 C 
ENDROOT
BRANCH   2  12
HETATM   12  S   UNL     1      -3.434   1.623 -31.703  1.00  0.00    -0.082 SA
BRANCH  12  13
HETATM   13  C   UNL     1      -4.065   0.054 -31.059  1.00  0.00     0.185 C 
BRANCH  13  14
HETATM   14  C   UNL     1      -3.679  -1.139 -31.927  1.00  0.00     0.227 C 
HETATM   15  N   UNL     1      -4.620  -1.592 -32.822  1.00  0.00    -0.360 N 
HETATM   16  H   UNL     1      -4.330  -2.416 -33.338  1.00  0.00     0.162 HD
HETATM   17  O   UNL     1      -2.580  -1.694 -31.892  1.00  0.00    -0.273 OA
BRANCH  15  18
HETATM   18  C   UNL     1      -5.994  -1.129 -32.924  1.00  0.00     0.127 C 
BRANCH  18  19
HETATM   19  C   UNL     1      -6.179  -0.010 -33.948  1.00  0.00     0.058 C 
BRANCH  19  20
HETATM   20  C   UNL     1      -7.459   0.746 -33.688  1.00  0.00    -0.057 A 
HETATM   21  C   UNL     1      -8.549   0.112 -33.078  1.00  0.00     0.007 A 
HETATM   22  C   UNL     1      -9.749   0.799 -32.881  1.00  0.00     0.001 A 
HETATM   23  C   UNL     1      -9.871   2.123 -33.298  1.00  0.00     0.000 A 
HETATM   24  C   UNL     1      -8.794   2.764 -33.905  1.00  0.00     0.001 A 
HETATM   25  C   UNL     1      -7.593   2.080 -34.099  1.00  0.00     0.007 A 
ENDBRANCH  19  20
ENDBRANCH  18  19
ENDBRANCH  15  18
ENDBRANCH  13  14
ENDBRANCH  12  13
ENDBRANCH   2  12
BRANCH   1  26
HETATM   26  C   UNL     1      -3.585   4.595 -32.398  1.00  0.00     0.051 A 
HETATM   27  C   UNL     1      -3.525   4.803 -33.794  1.00  0.00    -0.035 A 
HETATM   28  C   UNL     1      -4.706   4.581 -34.701  1.00  0.00     0.050 C 
HETATM   29  C   UNL     1      -2.337   5.294 -34.360  1.00  0.00     0.011 A 
HETATM   30  C   UNL     1      -1.212   5.534 -33.569  1.00  0.00     0.024 A 
HETATM   31  C   UNL     1      -1.271   5.304 -32.199  1.00  0.00     0.036 A 
HETATM   32  C   UNL     1      -2.446   4.841 -31.611  1.00  0.00     0.054 A 
HETATM   33 CL   UNL     1       0.122   5.569 -31.226  1.00  0.00    -0.084 Cl
ENDBRANCH   1  26
BRANCH   6  34
HETATM   34  N   UNL     1      -5.912   6.193 -31.782  1.00  0.00    -0.384 N 
HETATM   35  H   UNL     1      -6.405   6.569 -32.578  1.00  0.00     0.157 HD
HETATM   36  H   UNL     1      -5.422   6.833 -31.172  1.00  0.00     0.157 HD
ENDBRANCH   6  34
TORSDOF 8
ENDMDL
