MODEL 1
REMARK VINA RESULT:      -9.5      0.000      0.000
REMARK  1 active torsions:
REMARK  status: ('A' for Active; 'I' for Inactive)
REMARK       I    between atoms: N_9  and  C_10 
REMARK    1  A    between atoms: C_10  and  C_11 
ROOT
HETATM    1  C   UNL     1      -2.529  -0.763 -31.805  1.00  0.00     0.002 A 
HETATM    2  C   UNL     1      -3.289  -1.431 -32.765  1.00  0.00     0.031 A 
HETATM    3  C   UNL     1      -4.653  -1.160 -32.875  1.00  0.00     0.056 A 
HETATM    4  C   UNL     1      -5.277  -0.211 -32.047  1.00  0.00     0.036 A 
HETATM    5  N   UNL     1      -6.665  -0.000 -32.084  1.00  0.00    -0.273 NA
HETATM    6  C   UNL     1      -7.347  -0.359 -33.357  1.00  0.00     0.100 C 
HETATM    7  C   UNL     1      -7.166   0.762 -34.401  1.00  0.00     0.055 C 
HETATM    8  C   UNL     1      -7.968   2.015 -34.077  1.00  0.00     0.128 C 
HETATM    9  N   UNL     1      -9.365   1.707 -33.796  1.00  0.00    -0.348 N 
HETATM   10  C   UNL     1     -10.310   2.684 -34.128  1.00  0.00     0.253 C 
HETATM   11  O   UNL     1     -10.001   3.785 -34.582  1.00  0.00    -0.267 OA
HETATM   12  C   UNL     1      -9.576   0.709 -32.747  1.00  0.00     0.128 C 
HETATM   13  C   UNL     1      -8.843  -0.585 -33.067  1.00  0.00     0.055 C 
HETATM   14  C   UNL     1      -6.760  -1.659 -33.981  1.00  0.00     0.245 C 
HETATM   15  O   UNL     1      -7.404  -2.417 -34.707  1.00  0.00    -0.271 OA
HETATM   16  N   UNL     1      -5.416  -1.876 -33.804  1.00  0.00    -0.324 N 
HETATM   17  C   UNL     1      -4.507   0.413 -31.060  1.00  0.00     0.026 A 
HETATM   18  C   UNL     1      -3.139   0.151 -30.948  1.00  0.00     0.002 A 
HETATM   19  H   UNL     1      -6.921   0.909 -31.711  1.00  0.00     0.129 HD
HETATM   20  H   UNL     1      -5.018  -2.663 -34.296  1.00  0.00     0.169 HD
ENDROOT
BRANCH  10  21
HETATM   21  C   UNL     1     -11.756   2.400 -33.954  1.00  0.00     0.034 A 
HETATM   22  C   UNL     1     -12.474   2.965 -32.889  1.00  0.00     0.051 A 
HETATM   23  C   UNL     1     -13.834   2.648 -32.768  1.00  0.00     0.085 A 
HETATM   24  C   UNL     1     -14.415   1.760 -33.669  1.00  0.00     0.062 A 
HETATM   25  N   UNL     1     -14.757   3.090 -31.853  1.00  0.00    -0.242 NA
HETATM   26  N   UNL     1     -15.722   1.675 -33.260  1.00  0.00    -0.349 N 
HETATM   27  C   UNL     1     -13.713   1.149 -34.709  1.00  0.00     0.033 A 
HETATM   28  H   UNL     1     -16.441   1.108 -33.684  1.00  0.00     0.167 HD
HETATM   29  C   UNL     1     -15.880   2.491 -32.175  1.00  0.00     0.208 A 
HETATM   30  C   UNL     1     -12.361   1.488 -34.831  1.00  0.00     0.019 A 
ENDBRANCH  10  21
TORSDOF 1
ENDMDL
MODEL 2
REMARK VINA RESULT:      -9.3      4.845      7.892
REMARK  1 active torsions:
REMARK  status: ('A' for Active; 'I' for Inactive)
REMARK       I    between atoms: N_9  and  C_10 
REMARK    1  A    between atoms: C_10  and  C_11 
ROOT
HETATM    1  C   UNL     1      -6.492   6.749 -29.111  1.00  0.00     0.002 A 
HETATM    2  C   UNL     1      -5.283   6.330 -29.665  1.00  0.00     0.031 A 
HETATM    3  C   UNL     1      -5.170   5.036 -30.174  1.00  0.00     0.056 A 
HETATM    4  C   UNL     1      -6.259   4.148 -30.156  1.00  0.00     0.036 A 
HETATM    5  N   UNL     1      -6.129   2.815 -30.577  1.00  0.00    -0.273 NA
HETATM    6  C   UNL     1      -5.029   2.538 -31.541  1.00  0.00     0.100 C 
HETATM    7  C   UNL     1      -5.453   2.930 -32.972  1.00  0.00     0.055 C 
HETATM    8  C   UNL     1      -6.496   1.993 -33.564  1.00  0.00     0.128 C 
HETATM    9  N   UNL     1      -6.099   0.595 -33.443  1.00  0.00    -0.348 N 
HETATM   10  C   UNL     1      -6.542  -0.281 -34.440  1.00  0.00     0.253 C 
HETATM   11  O   UNL     1      -7.282   0.073 -35.358  1.00  0.00    -0.267 OA
HETATM   12  C   UNL     1      -5.774   0.164 -32.083  1.00  0.00     0.128 C 
HETATM   13  C   UNL     1      -4.685   1.037 -31.477  1.00  0.00     0.055 C 
HETATM   14  C   UNL     1      -3.748   3.356 -31.207  1.00  0.00     0.245 C 
HETATM   15  O   UNL     1      -2.609   2.988 -31.499  1.00  0.00    -0.271 OA
HETATM   16  N   UNL     1      -3.936   4.608 -30.677  1.00  0.00    -0.324 N 
HETATM   17  C   UNL     1      -7.449   4.572 -29.554  1.00  0.00     0.026 A 
HETATM   18  C   UNL     1      -7.570   5.869 -29.048  1.00  0.00     0.002 A 
HETATM   19  H   UNL     1      -7.024   2.408 -30.832  1.00  0.00     0.129 HD
HETATM   20  H   UNL     1      -3.110   5.177 -30.558  1.00  0.00     0.169 HD
ENDROOT
BRANCH  10  21
HETATM   21  C   UNL     1      -6.100  -1.696 -34.428  1.00  0.00     0.034 A 
HETATM   22  C   UNL     1      -4.813  -2.041 -33.990  1.00  0.00     0.051 A 
HETATM   23  C   UNL     1      -4.447  -3.394 -34.015  1.00  0.00     0.085 A 
HETATM   24  C   UNL     1      -5.342  -4.339 -34.507  1.00  0.00     0.062 A 
HETATM   25  N   UNL     1      -3.278  -3.992 -33.610  1.00  0.00    -0.242 NA
HETATM   26  N   UNL     1      -4.669  -5.530 -34.395  1.00  0.00    -0.349 N 
HETATM   27  C   UNL     1      -6.611  -4.018 -34.992  1.00  0.00     0.033 A 
HETATM   28  H   UNL     1      -5.017  -6.437 -34.668  1.00  0.00     0.167 HD
HETATM   29  C   UNL     1      -3.443  -5.273 -33.849  1.00  0.00     0.208 A 
HETATM   30  C   UNL     1      -6.972  -2.667 -34.944  1.00  0.00     0.019 A 
ENDBRANCH  10  21
TORSDOF 1
ENDMDL
MODEL 3
REMARK VINA RESULT:      -9.2      4.323      5.760
REMARK  1 active torsions:
REMARK  status: ('A' for Active; 'I' for Inactive)
REMARK       I    between atoms: N_9  and  C_10 
REMARK    1  A    between atoms: C_10  and  C_11 
ROOT
HETATM    1  C   UNL     1      -3.722  -4.842 -33.534  1.00  0.00     0.002 A 
HETATM    2  C   UNL     1      -3.131  -3.972 -32.619  1.00  0.00     0.031 A 
HETATM    3  C   UNL     1      -3.536  -2.637 -32.574  1.00  0.00     0.056 A 
HETATM    4  C   UNL     1      -4.545  -2.154 -33.425  1.00  0.00     0.036 A 
HETATM    5  N   UNL     1      -4.893  -0.794 -33.456  1.00  0.00    -0.273 NA
HETATM    6  C   UNL     1      -4.601  -0.016 -32.221  1.00  0.00     0.100 C 
HETATM    7  C   UNL     1      -5.695  -0.255 -31.161  1.00  0.00     0.055 C 
HETATM    8  C   UNL     1      -7.023   0.401 -31.515  1.00  0.00     0.128 C 
HETATM    9  N   UNL     1      -6.856   1.806 -31.868  1.00  0.00    -0.348 N 
HETATM   10  C   UNL     1      -7.922   2.665 -31.576  1.00  0.00     0.253 C 
HETATM   11  O   UNL     1      -8.985   2.271 -31.099  1.00  0.00    -0.267 OA
HETATM   12  C   UNL     1      -5.887   2.062 -32.934  1.00  0.00     0.128 C 
HETATM   13  C   UNL     1      -4.525   1.479 -32.588  1.00  0.00     0.055 C 
HETATM   14  C   UNL     1      -3.247  -0.439 -31.579  1.00  0.00     0.245 C 
HETATM   15  O   UNL     1      -2.555   0.314 -30.892  1.00  0.00    -0.271 OA
HETATM   16  N   UNL     1      -2.897  -1.761 -31.691  1.00  0.00    -0.324 N 
HETATM   17  C   UNL     1      -5.092  -3.031 -34.369  1.00  0.00     0.026 A 
HETATM   18  C   UNL     1      -4.695  -4.370 -34.413  1.00  0.00     0.002 A 
HETATM   19  H   UNL     1      -5.824  -0.648 -33.834  1.00  0.00     0.129 HD
HETATM   20  H   UNL     1      -2.073  -2.054 -31.185  1.00  0.00     0.169 HD
ENDROOT
BRANCH  10  21
HETATM   21  C   UNL     1      -7.784   4.121 -31.824  1.00  0.00     0.034 A 
HETATM   22  C   UNL     1      -6.994   4.919 -30.984  1.00  0.00     0.051 A 
HETATM   23  C   UNL     1      -6.914   6.291 -31.260  1.00  0.00     0.085 A 
HETATM   24  C   UNL     1      -7.644   6.823 -32.318  1.00  0.00     0.062 A 
HETATM   25  N   UNL     1      -6.190   7.270 -30.625  1.00  0.00    -0.242 NA
HETATM   26  N   UNL     1      -7.344   8.162 -32.295  1.00  0.00    -0.349 N 
HETATM   27  C   UNL     1      -8.474   6.060 -33.141  1.00  0.00     0.033 A 
HETATM   28  H   UNL     1      -7.706   8.863 -32.923  1.00  0.00     0.167 HD
HETATM   29  C   UNL     1      -6.467   8.380 -31.269  1.00  0.00     0.208 A 
HETATM   30  C   UNL     1      -8.531   4.688 -32.868  1.00  0.00     0.019 A 
ENDBRANCH  10  21
TORSDOF 1
ENDMDL
MODEL 4
REMARK VINA RESULT:      -9.1      5.088      7.976
REMARK  1 active torsions:
REMARK  status: ('A' for Active; 'I' for Inactive)
REMARK       I    between atoms: N_9  and  C_10 
REMARK    1  A    between atoms: C_10  and  C_11 
ROOT
HETATM    1  C   UNL     1       0.038   7.609 -29.833  1.00  0.00     0.002 A 
HETATM    2  C   UNL     1      -0.951   7.768 -30.803  1.00  0.00     0.031 A 
HETATM    3  C   UNL     1      -1.606   6.646 -31.312  1.00  0.00     0.056 A 
HETATM    4  C   UNL     1      -1.300   5.354 -30.852  1.00  0.00     0.036 A 
HETATM    5  N   UNL     1      -1.883   4.212 -31.424  1.00  0.00    -0.273 NA
HETATM    6  C   UNL     1      -3.199   4.414 -32.091  1.00  0.00     0.100 C 
HETATM    7  C   UNL     1      -4.334   4.450 -31.048  1.00  0.00     0.055 C 
HETATM    8  C   UNL     1      -4.618   3.089 -30.427  1.00  0.00     0.128 C 
HETATM    9  N   UNL     1      -4.798   2.058 -31.442  1.00  0.00    -0.348 N 
HETATM   10  C   UNL     1      -5.664   1.003 -31.129  1.00  0.00     0.253 C 
HETATM   11  O   UNL     1      -6.215   0.895 -30.035  1.00  0.00    -0.267 OA
HETATM   12  C   UNL     1      -3.698   1.936 -32.398  1.00  0.00     0.128 C 
HETATM   13  C   UNL     1      -3.425   3.263 -33.091  1.00  0.00     0.055 C 
HETATM   14  C   UNL     1      -3.252   5.763 -32.867  1.00  0.00     0.245 C 
HETATM   15  O   UNL     1      -3.967   5.955 -33.851  1.00  0.00    -0.271 OA
HETATM   16  N   UNL     1      -2.556   6.814 -32.324  1.00  0.00    -0.324 N 
HETATM   17  C   UNL     1      -0.273   5.211 -29.913  1.00  0.00     0.026 A 
HETATM   18  C   UNL     1       0.382   6.331 -29.395  1.00  0.00     0.002 A 
HETATM   19  H   UNL     1      -1.848   3.412 -30.798  1.00  0.00     0.129 HD
HETATM   20  H   UNL     1      -2.676   7.712 -32.770  1.00  0.00     0.169 HD
ENDROOT
BRANCH  10  21
HETATM   21  C   UNL     1      -5.964  -0.031 -32.150  1.00  0.00     0.034 A 
HETATM   22  C   UNL     1      -4.989  -0.964 -32.533  1.00  0.00     0.051 A 
HETATM   23  C   UNL     1      -5.327  -1.907 -33.512  1.00  0.00     0.085 A 
HETATM   24  C   UNL     1      -6.587  -1.866 -34.101  1.00  0.00     0.062 A 
HETATM   25  N   UNL     1      -4.580  -2.937 -34.029  1.00  0.00    -0.242 NA
HETATM   26  N   UNL     1      -6.573  -2.904 -34.999  1.00  0.00    -0.349 N 
HETATM   27  C   UNL     1      -7.560  -0.921 -33.771  1.00  0.00     0.033 A 
HETATM   28  H   UNL     1      -7.328  -3.167 -35.614  1.00  0.00     0.167 HD
HETATM   29  C   UNL     1      -5.355  -3.517 -34.917  1.00  0.00     0.208 A 
HETATM   30  C   UNL     1      -7.218   0.004 -32.778  1.00  0.00     0.019 A 
ENDBRANCH  10  21
TORSDOF 1
ENDMDL
MODEL 5
REMARK VINA RESULT:      -9.0      5.571      9.463
REMARK  1 active torsions:
REMARK  status: ('A' for Active; 'I' for Inactive)
REMARK       I    between atoms: N_9  and  C_10 
REMARK    1  A    between atoms: C_10  and  C_11 
ROOT
HETATM    1  C   UNL     1      -7.459  -1.623 -34.195  1.00  0.00     0.002 A 
HETATM    2  C   UNL     1      -7.907  -0.703 -33.248  1.00  0.00     0.031 A 
HETATM    3  C   UNL     1      -7.014   0.227 -32.714  1.00  0.00     0.056 A 
HETATM    4  C   UNL     1      -5.671   0.268 -33.125  1.00  0.00     0.036 A 
HETATM    5  N   UNL     1      -4.742   1.134 -32.526  1.00  0.00    -0.273 NA
HETATM    6  C   UNL     1      -5.306   2.356 -31.889  1.00  0.00     0.100 C 
HETATM    7  C   UNL     1      -5.599   3.434 -32.953  1.00  0.00     0.055 C 
HETATM    8  C   UNL     1      -4.339   4.059 -33.533  1.00  0.00     0.128 C 
HETATM    9  N   UNL     1      -3.428   4.512 -32.489  1.00  0.00    -0.348 N 
HETATM   10  C   UNL     1      -2.626   5.621 -32.781  1.00  0.00     0.253 C 
HETATM   11  O   UNL     1      -2.626   6.173 -33.881  1.00  0.00    -0.267 OA
HETATM   12  C   UNL     1      -3.057   3.489 -31.510  1.00  0.00     0.128 C 
HETATM   13  C   UNL     1      -4.291   2.884 -30.856  1.00  0.00     0.055 C 
HETATM   14  C   UNL     1      -6.649   2.060 -31.159  1.00  0.00     0.245 C 
HETATM   15  O   UNL     1      -7.056   2.708 -30.194  1.00  0.00    -0.271 OA
HETATM   16  N   UNL     1      -7.461   1.109 -31.724  1.00  0.00    -0.324 N 
HETATM   17  C   UNL     1      -5.230  -0.694 -34.041  1.00  0.00     0.026 A 
HETATM   18  C   UNL     1      -6.121  -1.624 -34.585  1.00  0.00     0.002 A 
HETATM   19  H   UNL     1      -3.940   1.304 -33.125  1.00  0.00     0.129 HD
HETATM   20  H   UNL     1      -8.375   0.993 -31.310  1.00  0.00     0.169 HD
ENDROOT
BRANCH  10  21
HETATM   21  C   UNL     1      -1.744   6.190 -31.733  1.00  0.00     0.034 A 
HETATM   22  C   UNL     1      -2.286   6.870 -30.632  1.00  0.00     0.051 A 
HETATM   23  C   UNL     1      -1.401   7.399 -29.682  1.00  0.00     0.085 A 
HETATM   24  C   UNL     1      -0.029   7.273 -29.876  1.00  0.00     0.062 A 
HETATM   25  N   UNL     1      -1.671   8.065 -28.512  1.00  0.00    -0.242 NA
HETATM   26  N   UNL     1       0.523   7.896 -28.784  1.00  0.00    -0.349 N 
HETATM   27  C   UNL     1       0.537   6.642 -30.984  1.00  0.00     0.033 A 
HETATM   28  H   UNL     1       1.508   8.003 -28.597  1.00  0.00     0.167 HD
HETATM   29  C   UNL     1      -0.497   8.348 -27.995  1.00  0.00     0.208 A 
HETATM   30  C   UNL     1      -0.356   6.102 -31.917  1.00  0.00     0.019 A 
ENDBRANCH  10  21
TORSDOF 1
ENDMDL
MODEL 6
REMARK VINA RESULT:      -8.8      5.148      6.863
REMARK  1 active torsions:
REMARK  status: ('A' for Active; 'I' for Inactive)
REMARK       I    between atoms: N_9  and  C_10 
REMARK    1  A    between atoms: C_10  and  C_11 
ROOT
HETATM    1  C   UNL     1      -5.114  -4.938 -34.592  1.00  0.00     0.002 A 
HETATM    2  C   UNL     1      -4.197  -4.418 -33.680  1.00  0.00     0.031 A 
HETATM    3  C   UNL     1      -4.209  -3.052 -33.392  1.00  0.00     0.056 A 
HETATM    4  C   UNL     1      -5.142  -2.190 -33.992  1.00  0.00     0.036 A 
HETATM    5  N   UNL     1      -5.102  -0.801 -33.784  1.00  0.00    -0.273 NA
HETATM    6  C   UNL     1      -4.455  -0.349 -32.522  1.00  0.00     0.100 C 
HETATM    7  C   UNL     1      -5.434  -0.481 -31.336  1.00  0.00     0.055 C 
HETATM    8  C   UNL     1      -6.562   0.541 -31.376  1.00  0.00     0.128 C 
HETATM    9  N   UNL     1      -6.059   1.896 -31.560  1.00  0.00    -0.348 N 
HETATM   10  C   UNL     1      -6.801   2.934 -30.985  1.00  0.00     0.253 C 
HETATM   11  O   UNL     1      -7.864   2.746 -30.395  1.00  0.00    -0.267 OA
HETATM   12  C   UNL     1      -5.196   2.079 -32.728  1.00  0.00     0.128 C 
HETATM   13  C   UNL     1      -4.016   1.118 -32.693  1.00  0.00     0.055 C 
HETATM   14  C   UNL     1      -3.202  -1.205 -32.174  1.00  0.00     0.245 C 
HETATM   15  O   UNL     1      -2.250  -0.783 -31.517  1.00  0.00    -0.271 OA
HETATM   16  N   UNL     1      -3.249  -2.533 -32.517  1.00  0.00    -0.324 N 
HETATM   17  C   UNL     1      -6.022  -2.723 -34.940  1.00  0.00     0.026 A 
HETATM   18  C   UNL     1      -6.020  -4.090 -35.228  1.00  0.00     0.002 A 
HETATM   19  H   UNL     1      -5.996  -0.361 -33.980  1.00  0.00     0.129 HD
HETATM   20  H   UNL     1      -2.482  -3.108 -32.199  1.00  0.00     0.169 HD
ENDROOT
BRANCH  10  21
HETATM   21  C   UNL     1      -6.298   4.327 -31.056  1.00  0.00     0.034 A 
HETATM   22  C   UNL     1      -5.315   4.781 -30.163  1.00  0.00     0.051 A 
HETATM   23  C   UNL     1      -4.890   6.112 -30.270  1.00  0.00     0.085 A 
HETATM   24  C   UNL     1      -5.477   6.948 -31.216  1.00  0.00     0.062 A 
HETATM   25  N   UNL     1      -3.929   6.784 -29.555  1.00  0.00    -0.242 NA
HETATM   26  N   UNL     1      -4.842   8.152 -31.041  1.00  0.00    -0.349 N 
HETATM   27  C   UNL     1      -6.488   6.535 -32.085  1.00  0.00     0.033 A 
HETATM   28  H   UNL     1      -5.023   8.999 -31.558  1.00  0.00     0.167 HD
HETATM   29  C   UNL     1      -3.922   8.003 -30.041  1.00  0.00     0.208 A 
HETATM   30  C   UNL     1      -6.891   5.199 -31.982  1.00  0.00     0.019 A 
ENDBRANCH  10  21
TORSDOF 1
ENDMDL
MODEL 7
REMARK VINA RESULT:      -8.8      2.850      4.048
REMARK  1 active torsions:
REMARK  status: ('A' for Active; 'I' for Inactive)
REMARK       I    between atoms: N_9  and  C_10 
REMARK    1  A    between atoms: C_10  and  C_11 
ROOT
HETATM    1  C   UNL     1      -4.210  -4.928 -34.101  1.00  0.00     0.002 A 
HETATM    2  C   UNL     1      -3.887  -3.714 -33.495  1.00  0.00     0.031 A 
HETATM    3  C   UNL     1      -4.671  -2.587 -33.746  1.00  0.00     0.056 A 
HETATM    4  C   UNL     1      -5.795  -2.655 -34.586  1.00  0.00     0.036 A 
HETATM    5  N   UNL     1      -6.534  -1.508 -34.922  1.00  0.00    -0.273 NA
HETATM    6  C   UNL     1      -6.461  -0.378 -33.956  1.00  0.00     0.100 C 
HETATM    7  C   UNL     1      -7.412  -0.622 -32.766  1.00  0.00     0.055 C 
HETATM    8  C   UNL     1      -8.882  -0.488 -33.139  1.00  0.00     0.128 C 
HETATM    9  N   UNL     1      -9.150   0.758 -33.846  1.00  0.00    -0.348 N 
HETATM   10  C   UNL     1     -10.417   1.327 -33.674  1.00  0.00     0.253 C 
HETATM   11  O   UNL     1     -11.304   0.793 -33.010  1.00  0.00    -0.267 OA
HETATM   12  C   UNL     1      -8.324   0.982 -35.034  1.00  0.00     0.128 C 
HETATM   13  C   UNL     1      -6.843   0.922 -34.690  1.00  0.00     0.055 C 
HETATM   14  C   UNL     1      -5.030  -0.213 -33.366  1.00  0.00     0.245 C 
HETATM   15  O   UNL     1      -4.579   0.859 -32.961  1.00  0.00    -0.271 OA
HETATM   16  N   UNL     1      -4.304  -1.363 -33.178  1.00  0.00    -0.324 N 
HETATM   17  C   UNL     1      -6.076  -3.870 -35.221  1.00  0.00     0.026 A 
HETATM   18  C   UNL     1      -5.298  -5.003 -34.969  1.00  0.00     0.002 A 
HETATM   19  H   UNL     1      -7.474  -1.738 -35.230  1.00  0.00     0.129 HD
HETATM   20  H   UNL     1      -3.420  -1.265 -32.700  1.00  0.00     0.169 HD
ENDROOT
BRANCH  10  21
HETATM   21  C   UNL     1     -10.725   2.641 -34.291  1.00  0.00     0.034 A 
HETATM   22  C   UNL     1      -9.819   3.708 -34.194  1.00  0.00     0.051 A 
HETATM   23  C   UNL     1     -10.173   4.929 -34.784  1.00  0.00     0.085 A 
HETATM   24  C   UNL     1     -11.412   5.061 -35.403  1.00  0.00     0.062 A 
HETATM   25  N   UNL     1      -9.460   6.100 -34.864  1.00  0.00    -0.242 NA
HETATM   26  N   UNL     1     -11.428   6.357 -35.852  1.00  0.00    -0.349 N 
HETATM   27  C   UNL     1     -12.351   4.030 -35.473  1.00  0.00     0.033 A 
HETATM   28  H   UNL     1     -12.184   6.805 -36.347  1.00  0.00     0.167 HD
HETATM   29  C   UNL     1     -10.238   6.936 -35.512  1.00  0.00     0.208 A 
HETATM   30  C   UNL     1     -11.979   2.809 -34.897  1.00  0.00     0.019 A 
ENDBRANCH  10  21
TORSDOF 1
ENDMDL
MODEL 8
REMARK VINA RESULT:      -8.7      3.582      4.949
REMARK  1 active torsions:
REMARK  status: ('A' for Active; 'I' for Inactive)
REMARK       I    between atoms: N_9  and  C_10 
REMARK    1  A    between atoms: C_10  and  C_11 
ROOT
HETATM    1  C   UNL     1      -5.089  -4.879 -34.547  1.00  0.00     0.002 A 
HETATM    2  C   UNL     1      -4.248  -3.929 -33.969  1.00  0.00     0.031 A 
HETATM    3  C   UNL     1      -4.681  -2.608 -33.848  1.00  0.00     0.056 A 
HETATM    4  C   UNL     1      -5.959  -2.217 -34.282  1.00  0.00     0.036 A 
HETATM    5  N   UNL     1      -6.368  -0.874 -34.254  1.00  0.00    -0.273 NA
HETATM    6  C   UNL     1      -5.680  -0.002 -33.263  1.00  0.00     0.100 C 
HETATM    7  C   UNL     1      -6.285  -0.199 -31.858  1.00  0.00     0.055 C 
HETATM    8  C   UNL     1      -7.683   0.388 -31.722  1.00  0.00     0.128 C 
HETATM    9  N   UNL     1      -7.738   1.769 -32.186  1.00  0.00    -0.348 N 
HETATM   10  C   UNL     1      -8.664   2.613 -31.563  1.00  0.00     0.253 C 
HETATM   11  O   UNL     1      -9.448   2.222 -30.700  1.00  0.00    -0.267 OA
HETATM   12  C   UNL     1      -7.252   1.980 -33.551  1.00  0.00     0.128 C 
HETATM   13  C   UNL     1      -5.829   1.465 -33.711  1.00  0.00     0.055 C 
HETATM   14  C   UNL     1      -4.163  -0.336 -33.154  1.00  0.00     0.245 C 
HETATM   15  O   UNL     1      -3.307   0.484 -32.819  1.00  0.00    -0.271 OA
HETATM   16  N   UNL     1      -3.808  -1.652 -33.318  1.00  0.00    -0.324 N 
HETATM   17  C   UNL     1      -6.769  -3.175 -34.902  1.00  0.00     0.026 A 
HETATM   18  C   UNL     1      -6.344  -4.501 -35.021  1.00  0.00     0.002 A 
HETATM   19  H   UNL     1      -7.380  -0.784 -34.262  1.00  0.00     0.129 HD
HETATM   20  H   UNL     1      -2.840  -1.882 -33.144  1.00  0.00     0.169 HD
ENDROOT
BRANCH  10  21
HETATM   21  C   UNL     1      -8.709   4.052 -31.922  1.00  0.00     0.034 A 
HETATM   22  C   UNL     1      -9.804   4.582 -32.622  1.00  0.00     0.051 A 
HETATM   23  C   UNL     1      -9.782   5.945 -32.947  1.00  0.00     0.085 A 
HETATM   24  C   UNL     1      -8.673   6.715 -32.610  1.00  0.00     0.062 A 
HETATM   25  N   UNL     1     -10.731   6.707 -33.584  1.00  0.00    -0.242 NA
HETATM   26  N   UNL     1      -8.981   7.969 -33.074  1.00  0.00    -0.349 N 
HETATM   27  C   UNL     1      -7.552   6.203 -31.955  1.00  0.00     0.033 A 
HETATM   28  H   UNL     1      -8.394   8.787 -33.008  1.00  0.00     0.167 HD
HETATM   29  C   UNL     1     -10.222   7.916 -33.643  1.00  0.00     0.208 A 
HETATM   30  C   UNL     1      -7.593   4.845 -31.619  1.00  0.00     0.019 A 
ENDBRANCH  10  21
TORSDOF 1
ENDMDL
MODEL 9
REMARK VINA RESULT:      -8.5      4.052      8.582
REMARK  1 active torsions:
REMARK  status: ('A' for Active; 'I' for Inactive)
REMARK       I    between atoms: N_9  and  C_10 
REMARK    1  A    between atoms: C_10  and  C_11 
ROOT
HETATM    1  C   UNL     1     -13.702   0.845 -34.314  1.00  0.00     0.002 A 
HETATM    2  C   UNL     1     -12.739   0.146 -33.588  1.00  0.00     0.031 A 
HETATM    3  C   UNL     1     -11.440   0.650 -33.501  1.00  0.00     0.056 A 
HETATM    4  C   UNL     1     -11.086   1.862 -34.119  1.00  0.00     0.036 A 
HETATM    5  N   UNL     1      -9.762   2.329 -34.119  1.00  0.00    -0.273 NA
HETATM    6  C   UNL     1      -8.896   1.841 -33.011  1.00  0.00     0.100 C 
HETATM    7  C   UNL     1      -9.162   2.647 -31.723  1.00  0.00     0.055 C 
HETATM    8  C   UNL     1      -8.635   4.073 -31.791  1.00  0.00     0.128 C 
HETATM    9  N   UNL     1      -7.243   4.116 -32.223  1.00  0.00    -0.348 N 
HETATM   10  C   UNL     1      -6.456   5.163 -31.729  1.00  0.00     0.253 C 
HETATM   11  O   UNL     1      -6.906   6.054 -31.009  1.00  0.00    -0.267 OA
HETATM   12  C   UNL     1      -6.969   3.435 -33.489  1.00  0.00     0.128 C 
HETATM   13  C   UNL     1      -7.423   1.983 -33.439  1.00  0.00     0.055 C 
HETATM   14  C   UNL     1      -9.174   0.346 -32.677  1.00  0.00     0.245 C 
HETATM   15  O   UNL     1      -8.332  -0.411 -32.192  1.00  0.00    -0.271 OA
HETATM   16  N   UNL     1     -10.468  -0.088 -32.817  1.00  0.00    -0.324 N 
HETATM   17  C   UNL     1     -12.055   2.524 -34.882  1.00  0.00     0.026 A 
HETATM   18  C   UNL     1     -13.358   2.028 -34.967  1.00  0.00     0.002 A 
HETATM   19  H   UNL     1      -9.712   3.330 -34.282  1.00  0.00     0.129 HD
HETATM   20  H   UNL     1     -10.666  -1.026 -32.501  1.00  0.00     0.169 HD
ENDROOT
BRANCH  10  21
HETATM   21  C   UNL     1      -5.010   5.215 -32.054  1.00  0.00     0.034 A 
HETATM   22  C   UNL     1      -4.532   6.068 -33.060  1.00  0.00     0.051 A 
HETATM   23  C   UNL     1      -3.157   6.063 -33.332  1.00  0.00     0.085 A 
HETATM   24  C   UNL     1      -2.322   5.193 -32.637  1.00  0.00     0.062 A 
HETATM   25  N   UNL     1      -2.439   6.818 -34.227  1.00  0.00    -0.242 NA
HETATM   26  N   UNL     1      -1.074   5.443 -33.150  1.00  0.00    -0.349 N 
HETATM   27  C   UNL     1      -2.778   4.302 -31.664  1.00  0.00     0.033 A 
HETATM   28  H   UNL     1      -0.218   4.982 -32.880  1.00  0.00     0.167 HD
HETATM   29  C   UNL     1      -1.194   6.425 -34.092  1.00  0.00     0.208 A 
HETATM   30  C   UNL     1      -4.150   4.330 -31.388  1.00  0.00     0.019 A 
ENDBRANCH  10  21
TORSDOF 1
ENDMDL
MODEL 10
REMARK VINA RESULT:      -8.4      2.482      8.317
REMARK  1 active torsions:
REMARK  status: ('A' for Active; 'I' for Inactive)
REMARK       I    between atoms: N_9  and  C_10 
REMARK    1  A    between atoms: C_10  and  C_11 
ROOT
HETATM    1  C   UNL     1     -12.764   6.685 -34.737  1.00  0.00     0.002 A 
HETATM    2  C   UNL     1     -13.149   5.454 -34.208  1.00  0.00     0.031 A 
HETATM    3  C   UNL     1     -12.263   4.376 -34.252  1.00  0.00     0.056 A 
HETATM    4  C   UNL     1     -10.978   4.512 -34.804  1.00  0.00     0.036 A 
HETATM    5  N   UNL     1     -10.115   3.413 -34.941  1.00  0.00    -0.273 NA
HETATM    6  C   UNL     1     -10.347   2.280 -34.004  1.00  0.00     0.100 C 
HETATM    7  C   UNL     1      -9.719   2.580 -32.627  1.00  0.00     0.055 C 
HETATM    8  C   UNL     1      -8.197   2.535 -32.642  1.00  0.00     0.128 C 
HETATM    9  N   UNL     1      -7.697   1.308 -33.249  1.00  0.00    -0.348 N 
HETATM   10  C   UNL     1      -6.475   0.817 -32.777  1.00  0.00     0.253 C 
HETATM   11  O   UNL     1      -5.803   1.403 -31.930  1.00  0.00    -0.267 OA
HETATM   12  C   UNL     1      -8.205   1.035 -34.595  1.00  0.00     0.128 C 
HETATM   13  C   UNL     1      -9.727   1.006 -34.610  1.00  0.00     0.055 C 
HETATM   14  C   UNL     1     -11.864   2.028 -33.765  1.00  0.00     0.245 C 
HETATM   15  O   UNL     1     -12.333   0.930 -33.463  1.00  0.00    -0.271 OA
HETATM   16  N   UNL     1     -12.680   3.132 -33.769  1.00  0.00    -0.324 N 
HETATM   17  C   UNL     1     -10.628   5.743 -35.372  1.00  0.00     0.026 A 
HETATM   18  C   UNL     1     -11.508   6.827 -35.325  1.00  0.00     0.002 A 
HETATM   19  H   UNL     1      -9.144   3.699 -35.022  1.00  0.00     0.129 HD
HETATM   20  H   UNL     1     -13.645   2.980 -33.511  1.00  0.00     0.169 HD
ENDROOT
BRANCH  10  21
HETATM   21  C   UNL     1      -5.954  -0.475 -33.285  1.00  0.00     0.034 A 
HETATM   22  C   UNL     1      -6.828  -1.461 -33.768  1.00  0.00     0.051 A 
HETATM   23  C   UNL     1      -6.277  -2.667 -34.222  1.00  0.00     0.085 A 
HETATM   24  C   UNL     1      -4.902  -2.868 -34.142  1.00  0.00     0.062 A 
HETATM   25  N   UNL     1      -6.900  -3.762 -34.770  1.00  0.00    -0.242 NA
HETATM   26  N   UNL     1      -4.717  -4.128 -34.653  1.00  0.00    -0.349 N 
HETATM   27  C   UNL     1      -4.015  -1.924 -33.624  1.00  0.00     0.033 A 
HETATM   28  H   UNL     1      -3.834  -4.609 -34.742  1.00  0.00     0.167 HD
HETATM   29  C   UNL     1      -5.938  -4.620 -35.020  1.00  0.00     0.208 A 
HETATM   30  C   UNL     1      -4.575  -0.716 -33.191  1.00  0.00     0.019 A 
ENDBRANCH  10  21
TORSDOF 1
ENDMDL
