MODEL 1
REMARK VINA RESULT:     -10.0      0.000      0.000
REMARK  7 active torsions:
REMARK  status: ('A' for Active; 'I' for Inactive)
REMARK    1  A    between atoms: C_3  and  C_4 
REMARK    2  A    between atoms: C_4  and  C_5 
REMARK    3  A    between atoms: C_5  and  C_6 
REMARK       I    between atoms: C_6  and  N_7 
REMARK    4  A    between atoms: N_7  and  C_8 
REMARK    5  A    between atoms: C_8  and  C_9 
REMARK    6  A    between atoms: C_9  and  C_10 
REMARK    7  A    between atoms: C_29  and  O_30 
ROOT
HETATM    1  C   UNL     1      -4.268   3.034 -32.709  1.00  0.00     0.107 C 
ENDROOT
BRANCH   1   2
HETATM    2  C   UNL     1      -4.724   1.858 -31.834  1.00  0.00     0.055 C 
BRANCH   2   3
HETATM    3  C   UNL     1      -4.737   0.440 -32.394  1.00  0.00     0.025 A 
HETATM    4  C   UNL     1      -5.783  -0.026 -33.121  1.00  0.00    -0.037 A 
HETATM    5  C   UNL     1      -7.040   0.775 -33.381  1.00  0.00     0.050 C 
HETATM    6  C   UNL     1      -5.748  -1.396 -33.678  1.00  0.00     0.005 A 
HETATM    7  C   UNL     1      -4.661  -2.223 -33.392  1.00  0.00     0.099 A 
HETATM    8  C   UNL     1      -6.761  -1.924 -34.490  1.00  0.00     0.017 A 
HETATM    9  O   UNL     1      -3.606  -1.731 -32.602  1.00  0.00    -0.274 OA
HETATM   10  C   UNL     1      -4.553  -3.549 -33.861  1.00  0.00     0.006 A 
HETATM   11  C   UNL     1      -3.577  -0.444 -32.091  1.00  0.00     0.295 A 
HETATM   12  O   UNL     1      -2.625  -0.083 -31.409  1.00  0.00    -0.259 OA
HETATM   13  C   UNL     1      -3.368  -4.405 -33.518  1.00  0.00     0.054 C 
HETATM   14  C   UNL     1      -5.593  -4.033 -34.659  1.00  0.00     0.074 A 
HETATM   15  C   UNL     1      -6.684  -3.232 -34.974  1.00  0.00     0.038 A 
BRANCH  14  16
HETATM   16  O   UNL     1      -5.613  -5.296 -35.179  1.00  0.00    -0.360 OA
HETATM   17  H   UNL     1      -5.155  -5.905 -34.581  1.00  0.00     0.217 HD
ENDBRANCH  14  16
ENDBRANCH   2   3
ENDBRANCH   1   2
BRANCH   1  18
HETATM   18  C   UNL     1      -2.945   3.589 -32.217  1.00  0.00     0.217 C 
HETATM   19  N   UNL     1      -2.456   4.615 -33.002  1.00  0.00    -0.361 N 
HETATM   20  H   UNL     1      -2.849   4.720 -33.929  1.00  0.00     0.162 HD
HETATM   21  O   UNL     1      -2.364   3.170 -31.222  1.00  0.00    -0.274 OA
BRANCH  19  22
HETATM   22  C   UNL     1      -1.133   5.157 -32.741  1.00  0.00     0.127 C 
BRANCH  22  23
HETATM   23  C   UNL     1      -1.163   6.347 -31.783  1.00  0.00     0.060 C 
BRANCH  23  24
HETATM   24  C   UNL     1      -0.415   6.063 -30.519  1.00  0.00    -0.029 A 
HETATM   25  C   UNL     1      -0.299   6.926 -29.382  1.00  0.00    -0.000 A 
HETATM   26  C   UNL     1       0.459   6.255 -28.421  1.00  0.00     0.043 A 
HETATM   27  C   UNL     1      -0.779   8.217 -29.079  1.00  0.00     0.038 A 
HETATM   28  C   UNL     1       0.762   6.805 -27.170  1.00  0.00     0.032 A 
HETATM   29  N   UNL     1       0.797   5.033 -28.956  1.00  0.00    -0.365 N 
HETATM   30  C   UNL     1       0.276   8.087 -26.892  1.00  0.00     0.026 A 
HETATM   31  C   UNL     1      -0.481   8.779 -27.834  1.00  0.00     0.035 A 
HETATM   32 CL   UNL     1      -1.061  10.358 -27.460  1.00  0.00    -0.084 Cl
HETATM   33  H   UNL     1       1.344   4.331 -28.478  1.00  0.00     0.165 HD
HETATM   34  C   UNL     1       0.280   4.908 -30.217  1.00  0.00     0.096 A 
ENDBRANCH  23  24
ENDBRANCH  22  23
ENDBRANCH  19  22
ENDBRANCH   1  18
TORSDOF 7
ENDMDL
MODEL 2
REMARK VINA RESULT:     -10.0      6.245      9.830
REMARK  7 active torsions:
REMARK  status: ('A' for Active; 'I' for Inactive)
REMARK    1  A    between atoms: C_3  and  C_4 
REMARK    2  A    between atoms: C_4  and  C_5 
REMARK    3  A    between atoms: C_5  and  C_6 
REMARK       I    between atoms: C_6  and  N_7 
REMARK    4  A    between atoms: N_7  and  C_8 
REMARK    5  A    between atoms: C_8  and  C_9 
REMARK    6  A    between atoms: C_9  and  C_10 
REMARK    7  A    between atoms: C_29  and  O_30 
ROOT
HETATM    1  C   UNL     1      -6.687   2.305 -32.355  1.00  0.00     0.107 C 
ENDROOT
BRANCH   1   2
HETATM    2  C   UNL     1      -6.076   1.807 -33.671  1.00  0.00     0.055 C 
BRANCH   2   3
HETATM    3  C   UNL     1      -5.918   0.313 -33.932  1.00  0.00     0.025 A 
HETATM    4  C   UNL     1      -4.871  -0.388 -33.431  1.00  0.00    -0.037 A 
HETATM    5  C   UNL     1      -3.746   0.245 -32.641  1.00  0.00     0.050 C 
HETATM    6  C   UNL     1      -4.766  -1.843 -33.675  1.00  0.00     0.005 A 
HETATM    7  C   UNL     1      -5.718  -2.472 -34.479  1.00  0.00     0.099 A 
HETATM    8  C   UNL     1      -3.749  -2.643 -33.138  1.00  0.00     0.017 A 
HETATM    9  O   UNL     1      -6.773  -1.716 -35.021  1.00  0.00    -0.274 OA
HETATM   10  C   UNL     1      -5.686  -3.849 -34.784  1.00  0.00     0.006 A 
HETATM   11  C   UNL     1      -6.934  -0.361 -34.789  1.00  0.00     0.295 A 
HETATM   12  O   UNL     1      -7.878   0.235 -35.295  1.00  0.00    -0.259 OA
HETATM   13  C   UNL     1      -6.727  -4.479 -35.663  1.00  0.00     0.054 C 
HETATM   14  C   UNL     1      -4.647  -4.603 -34.232  1.00  0.00     0.074 A 
HETATM   15  C   UNL     1      -3.689  -4.011 -33.416  1.00  0.00     0.038 A 
BRANCH  14  16
HETATM   16  O   UNL     1      -4.499  -5.944 -34.445  1.00  0.00    -0.360 OA
HETATM   17  H   UNL     1      -4.802  -6.170 -35.337  1.00  0.00     0.217 HD
ENDBRANCH  14  16
ENDBRANCH   2   3
ENDBRANCH   1   2
BRANCH   1  18
HETATM   18  C   UNL     1      -8.033   1.650 -32.104  1.00  0.00     0.217 C 
HETATM   19  N   UNL     1      -9.011   2.052 -32.991  1.00  0.00    -0.361 N 
HETATM   20  H   UNL     1      -8.840   2.897 -33.522  1.00  0.00     0.162 HD
HETATM   21  O   UNL     1      -8.234   0.842 -31.203  1.00  0.00    -0.274 OA
BRANCH  19  22
HETATM   22  C   UNL     1     -10.385   1.620 -32.797  1.00  0.00     0.127 C 
BRANCH  22  23
HETATM   23  C   UNL     1     -11.183   1.590 -34.099  1.00  0.00     0.060 C 
BRANCH  23  24
HETATM   24  C   UNL     1     -12.624   1.265 -33.863  1.00  0.00    -0.029 A 
HETATM   25  C   UNL     1     -13.586   2.085 -33.190  1.00  0.00    -0.000 A 
HETATM   26  C   UNL     1     -14.808   1.412 -33.224  1.00  0.00     0.043 A 
HETATM   27  C   UNL     1     -13.529   3.347 -32.562  1.00  0.00     0.038 A 
HETATM   28  C   UNL     1     -15.980   1.933 -32.663  1.00  0.00     0.032 A 
HETATM   29  N   UNL     1     -14.596   0.224 -33.885  1.00  0.00    -0.365 N 
HETATM   30  C   UNL     1     -15.900   3.185 -32.044  1.00  0.00     0.026 A 
HETATM   31  C   UNL     1     -14.692   3.877 -31.995  1.00  0.00     0.035 A 
HETATM   32 CL   UNL     1     -14.628   5.416 -31.223  1.00  0.00    -0.084 Cl
HETATM   33  H   UNL     1     -15.311  -0.468 -34.062  1.00  0.00     0.165 HD
HETATM   34  C   UNL     1     -13.287   0.124 -34.272  1.00  0.00     0.096 A 
ENDBRANCH  23  24
ENDBRANCH  22  23
ENDBRANCH  19  22
ENDBRANCH   1  18
TORSDOF 7
ENDMDL
MODEL 3
REMARK VINA RESULT:      -9.8      5.024      7.979
REMARK  7 active torsions:
REMARK  status: ('A' for Active; 'I' for Inactive)
REMARK    1  A    between atoms: C_3  and  C_4 
REMARK    2  A    between atoms: C_4  and  C_5 
REMARK    3  A    between atoms: C_5  and  C_6 
REMARK       I    between atoms: C_6  and  N_7 
REMARK    4  A    between atoms: N_7  and  C_8 
REMARK    5  A    between atoms: C_8  and  C_9 
REMARK    6  A    between atoms: C_9  and  C_10 
REMARK    7  A    between atoms: C_29  and  O_30 
ROOT
HETATM    1  C   UNL     1      -4.418   2.294 -30.781  1.00  0.00     0.107 C 
ENDROOT
BRANCH   1   2
HETATM    2  C   UNL     1      -4.182   1.903 -32.245  1.00  0.00     0.055 C 
BRANCH   2   3
HETATM    3  C   UNL     1      -4.299   0.448 -32.684  1.00  0.00     0.025 A 
HETATM    4  C   UNL     1      -5.316   0.025 -33.475  1.00  0.00    -0.037 A 
HETATM    5  C   UNL     1      -6.447   0.923 -33.930  1.00  0.00     0.050 C 
HETATM    6  C   UNL     1      -5.382  -1.387 -33.910  1.00  0.00     0.005 A 
HETATM    7  C   UNL     1      -4.425  -2.291 -33.445  1.00  0.00     0.099 A 
HETATM    8  C   UNL     1      -6.366  -1.882 -34.776  1.00  0.00     0.017 A 
HETATM    9  O   UNL     1      -3.402  -1.838 -32.593  1.00  0.00    -0.274 OA
HETATM   10  C   UNL     1      -4.421  -3.659 -33.789  1.00  0.00     0.006 A 
HETATM   11  C   UNL     1      -3.279  -0.519 -32.191  1.00  0.00     0.295 A 
HETATM   12  O   UNL     1      -2.361  -0.194 -31.445  1.00  0.00    -0.259 OA
HETATM   13  C   UNL     1      -3.377  -4.596 -33.255  1.00  0.00     0.054 C 
HETATM   14  C   UNL     1      -5.428  -4.106 -34.648  1.00  0.00     0.074 A 
HETATM   15  C   UNL     1      -6.389  -3.231 -35.140  1.00  0.00     0.038 A 
BRANCH  14  16
HETATM   16  O   UNL     1      -5.540  -5.404 -35.061  1.00  0.00    -0.360 OA
HETATM   17  H   UNL     1      -6.435  -5.567 -35.394  1.00  0.00     0.217 HD
ENDBRANCH  14  16
ENDBRANCH   2   3
ENDBRANCH   1   2
BRANCH   1  18
HETATM   18  C   UNL     1      -5.870   2.083 -30.394  1.00  0.00     0.217 C 
HETATM   19  N   UNL     1      -6.657   3.200 -30.589  1.00  0.00    -0.361 N 
HETATM   20  H   UNL     1      -6.184   4.089 -30.701  1.00  0.00     0.162 HD
HETATM   21  O   UNL     1      -6.305   1.024 -29.952  1.00  0.00    -0.274 OA
BRANCH  19  22
HETATM   22  C   UNL     1      -8.038   3.200 -30.137  1.00  0.00     0.127 C 
BRANCH  22  23
HETATM   23  C   UNL     1      -9.005   3.719 -31.200  1.00  0.00     0.060 C 
BRANCH  23  24
HETATM   24  C   UNL     1      -9.652   2.603 -31.958  1.00  0.00    -0.029 A 
HETATM   25  C   UNL     1     -10.610   2.730 -33.015  1.00  0.00    -0.000 A 
HETATM   26  C   UNL     1     -10.922   1.443 -33.455  1.00  0.00     0.043 A 
HETATM   27  C   UNL     1     -11.234   3.827 -33.645  1.00  0.00     0.038 A 
HETATM   28  C   UNL     1     -11.826   1.192 -34.494  1.00  0.00     0.032 A 
HETATM   29  N   UNL     1     -10.189   0.566 -32.690  1.00  0.00    -0.365 N 
HETATM   30  C   UNL     1     -12.434   2.295 -35.103  1.00  0.00     0.026 A 
HETATM   31  C   UNL     1     -12.141   3.589 -34.682  1.00  0.00     0.035 A 
HETATM   32 CL   UNL     1     -12.910   4.925 -35.453  1.00  0.00    -0.084 Cl
HETATM   33  H   UNL     1     -10.211  -0.439 -32.791  1.00  0.00     0.165 HD
HETATM   34  C   UNL     1      -9.424   1.252 -31.786  1.00  0.00     0.096 A 
ENDBRANCH  23  24
ENDBRANCH  22  23
ENDBRANCH  19  22
ENDBRANCH   1  18
TORSDOF 7
ENDMDL
MODEL 4
REMARK VINA RESULT:      -9.7      1.773      2.554
REMARK  7 active torsions:
REMARK  status: ('A' for Active; 'I' for Inactive)
REMARK    1  A    between atoms: C_3  and  C_4 
REMARK    2  A    between atoms: C_4  and  C_5 
REMARK    3  A    between atoms: C_5  and  C_6 
REMARK       I    between atoms: C_6  and  N_7 
REMARK    4  A    between atoms: N_7  and  C_8 
REMARK    5  A    between atoms: C_8  and  C_9 
REMARK    6  A    between atoms: C_9  and  C_10 
REMARK    7  A    between atoms: C_29  and  O_30 
ROOT
HETATM    1  C   UNL     1      -7.363   2.224 -32.620  1.00  0.00     0.107 C 
ENDROOT
BRANCH   1   2
HETATM    2  C   UNL     1      -6.298   1.783 -33.633  1.00  0.00     0.055 C 
BRANCH   2   3
HETATM    3  C   UNL     1      -5.850   0.326 -33.694  1.00  0.00     0.025 A 
HETATM    4  C   UNL     1      -6.533  -0.596 -34.416  1.00  0.00    -0.037 A 
HETATM    5  C   UNL     1      -7.817  -0.291 -35.156  1.00  0.00     0.050 C 
HETATM    6  C   UNL     1      -6.051  -1.993 -34.482  1.00  0.00     0.005 A 
HETATM    7  C   UNL     1      -4.927  -2.365 -33.743  1.00  0.00     0.099 A 
HETATM    8  C   UNL     1      -6.667  -2.985 -35.257  1.00  0.00     0.017 A 
HETATM    9  O   UNL     1      -4.258  -1.399 -32.969  1.00  0.00    -0.274 OA
HETATM   10  C   UNL     1      -4.410  -3.677 -33.727  1.00  0.00     0.006 A 
HETATM   11  C   UNL     1      -4.649  -0.073 -32.907  1.00  0.00     0.295 A 
HETATM   12  O   UNL     1      -4.019   0.715 -32.211  1.00  0.00    -0.259 OA
HETATM   13  C   UNL     1      -3.204  -4.032 -32.907  1.00  0.00     0.054 C 
HETATM   14  C   UNL     1      -5.065  -4.633 -34.508  1.00  0.00     0.074 A 
HETATM   15  C   UNL     1      -6.179  -4.294 -35.268  1.00  0.00     0.038 A 
BRANCH  14  16
HETATM   16  O   UNL     1      -4.668  -5.938 -34.585  1.00  0.00    -0.360 OA
HETATM   17  H   UNL     1      -4.008  -6.040 -35.287  1.00  0.00     0.217 HD
ENDBRANCH  14  16
ENDBRANCH   2   3
ENDBRANCH   1   2
BRANCH   1  18
HETATM   18  C   UNL     1      -6.847   3.362 -31.758  1.00  0.00     0.217 C 
HETATM   19  N   UNL     1      -5.471   3.384 -31.647  1.00  0.00    -0.361 N 
HETATM   20  H   UNL     1      -4.969   2.542 -31.899  1.00  0.00     0.162 HD
HETATM   21  O   UNL     1      -7.579   4.181 -31.212  1.00  0.00    -0.274 OA
BRANCH  19  22
HETATM   22  C   UNL     1      -4.834   4.329 -30.745  1.00  0.00     0.127 C 
BRANCH  22  23
HETATM   23  C   UNL     1      -4.326   5.579 -31.463  1.00  0.00     0.060 C 
BRANCH  23  24
HETATM   24  C   UNL     1      -2.839   5.562 -31.624  1.00  0.00    -0.029 A 
HETATM   25  C   UNL     1      -1.885   6.285 -30.838  1.00  0.00    -0.000 A 
HETATM   26  C   UNL     1      -0.614   5.955 -31.311  1.00  0.00     0.043 A 
HETATM   27  C   UNL     1      -1.989   7.186 -29.757  1.00  0.00     0.038 A 
HETATM   28  C   UNL     1       0.562   6.477 -30.760  1.00  0.00     0.032 A 
HETATM   29  N   UNL     1      -0.789   5.072 -32.351  1.00  0.00    -0.365 N 
HETATM   30  C   UNL     1       0.435   7.369 -29.690  1.00  0.00     0.026 A 
HETATM   31  C   UNL     1      -0.821   7.716 -29.200  1.00  0.00     0.035 A 
HETATM   32 CL   UNL     1      -0.941   8.820 -27.882  1.00  0.00    -0.084 Cl
HETATM   33  H   UNL     1      -0.035   4.659 -32.883  1.00  0.00     0.165 HD
HETATM   34  C   UNL     1      -2.121   4.830 -32.550  1.00  0.00     0.096 A 
ENDBRANCH  23  24
ENDBRANCH  22  23
ENDBRANCH  19  22
ENDBRANCH   1  18
TORSDOF 7
ENDMDL
MODEL 5
REMARK VINA RESULT:      -9.7      2.736      3.934
REMARK  7 active torsions:
REMARK  status: ('A' for Active; 'I' for Inactive)
REMARK    1  A    between atoms: C_3  and  C_4 
REMARK    2  A    between atoms: C_4  and  C_5 
REMARK    3  A    between atoms: C_5  and  C_6 
REMARK       I    between atoms: C_6  and  N_7 
REMARK    4  A    between atoms: N_7  and  C_8 
REMARK    5  A    between atoms: C_8  and  C_9 
REMARK    6  A    between atoms: C_9  and  C_10 
REMARK    7  A    between atoms: C_29  and  O_30 
ROOT
HETATM    1  C   UNL     1      -5.172   1.693 -30.216  1.00  0.00     0.107 C 
ENDROOT
BRANCH   1   2
HETATM    2  C   UNL     1      -4.573   1.479 -31.612  1.00  0.00     0.055 C 
BRANCH   2   3
HETATM    3  C   UNL     1      -4.620   0.103 -32.269  1.00  0.00     0.025 A 
HETATM    4  C   UNL     1      -5.706  -0.312 -32.968  1.00  0.00    -0.037 A 
HETATM    5  C   UNL     1      -6.974   0.504 -33.100  1.00  0.00     0.050 C 
HETATM    6  C   UNL     1      -5.706  -1.638 -33.620  1.00  0.00     0.005 A 
HETATM    7  C   UNL     1      -4.606  -2.482 -33.455  1.00  0.00     0.099 A 
HETATM    8  C   UNL     1      -6.764  -2.109 -34.410  1.00  0.00     0.017 A 
HETATM    9  O   UNL     1      -3.508  -2.046 -32.692  1.00  0.00    -0.274 OA
HETATM   10  C   UNL     1      -4.528  -3.772 -34.022  1.00  0.00     0.006 A 
HETATM   11  C   UNL     1      -3.448  -0.799 -32.095  1.00  0.00     0.295 A 
HETATM   12  O   UNL     1      -2.458  -0.485 -31.443  1.00  0.00    -0.259 OA
HETATM   13  C   UNL     1      -3.328  -4.648 -33.807  1.00  0.00     0.054 C 
HETATM   14  C   UNL     1      -5.612  -4.200 -34.793  1.00  0.00     0.074 A 
HETATM   15  C   UNL     1      -6.718  -3.380 -34.989  1.00  0.00     0.038 A 
BRANCH  14  16
HETATM   16  O   UNL     1      -5.665  -5.423 -35.399  1.00  0.00    -0.360 OA
HETATM   17  H   UNL     1      -6.234  -6.018 -34.888  1.00  0.00     0.217 HD
ENDBRANCH  14  16
ENDBRANCH   2   3
ENDBRANCH   1   2
BRANCH   1  18
HETATM   18  C   UNL     1      -5.891   3.027 -30.137  1.00  0.00     0.217 C 
HETATM   19  N   UNL     1      -5.247   3.950 -29.337  1.00  0.00    -0.361 N 
HETATM   20  H   UNL     1      -4.549   3.601 -28.692  1.00  0.00     0.162 HD
HETATM   21  O   UNL     1      -6.941   3.264 -30.725  1.00  0.00    -0.274 OA
BRANCH  19  22
HETATM   22  C   UNL     1      -5.882   5.226 -29.051  1.00  0.00     0.127 C 
BRANCH  22  23
HETATM   23  C   UNL     1      -5.115   6.410 -29.639  1.00  0.00     0.060 C 
BRANCH  23  24
HETATM   24  C   UNL     1      -4.769   6.191 -31.078  1.00  0.00    -0.029 A 
HETATM   25  C   UNL     1      -3.474   5.888 -31.609  1.00  0.00    -0.000 A 
HETATM   26  C   UNL     1      -3.612   5.736 -32.990  1.00  0.00     0.043 A 
HETATM   27  C   UNL     1      -2.196   5.721 -31.037  1.00  0.00     0.038 A 
HETATM   28  C   UNL     1      -2.539   5.423 -33.832  1.00  0.00     0.032 A 
HETATM   29  N   UNL     1      -4.939   5.946 -33.287  1.00  0.00    -0.365 N 
HETATM   30  C   UNL     1      -1.280   5.263 -33.243  1.00  0.00     0.026 A 
HETATM   31  C   UNL     1      -1.115   5.411 -31.869  1.00  0.00     0.035 A 
HETATM   32 CL   UNL     1       0.451   5.210 -31.177  1.00  0.00    -0.084 Cl
HETATM   33  H   UNL     1      -5.331   5.894 -34.217  1.00  0.00     0.165 HD
HETATM   34  C   UNL     1      -5.643   6.222 -32.147  1.00  0.00     0.096 A 
ENDBRANCH  23  24
ENDBRANCH  22  23
ENDBRANCH  19  22
ENDBRANCH   1  18
TORSDOF 7
ENDMDL
MODEL 6
REMARK VINA RESULT:      -9.7      4.790      7.150
REMARK  7 active torsions:
REMARK  status: ('A' for Active; 'I' for Inactive)
REMARK    1  A    between atoms: C_3  and  C_4 
REMARK    2  A    between atoms: C_4  and  C_5 
REMARK    3  A    between atoms: C_5  and  C_6 
REMARK       I    between atoms: C_6  and  N_7 
REMARK    4  A    between atoms: N_7  and  C_8 
REMARK    5  A    between atoms: C_8  and  C_9 
REMARK    6  A    between atoms: C_9  and  C_10 
REMARK    7  A    between atoms: C_29  and  O_30 
ROOT
HETATM    1  C   UNL     1      -3.468   2.877 -32.684  1.00  0.00     0.107 C 
ENDROOT
BRANCH   1   2
HETATM    2  C   UNL     1      -4.168   1.785 -31.865  1.00  0.00     0.055 C 
BRANCH   2   3
HETATM    3  C   UNL     1      -4.275   0.363 -32.407  1.00  0.00     0.025 A 
HETATM    4  C   UNL     1      -5.294  -0.013 -33.218  1.00  0.00    -0.037 A 
HETATM    5  C   UNL     1      -6.437   0.904 -33.598  1.00  0.00     0.050 C 
HETATM    6  C   UNL     1      -5.349  -1.390 -33.753  1.00  0.00     0.005 A 
HETATM    7  C   UNL     1      -4.379  -2.314 -33.364  1.00  0.00     0.099 A 
HETATM    8  C   UNL     1      -6.335  -1.832 -34.646  1.00  0.00     0.017 A 
HETATM    9  O   UNL     1      -3.353  -1.913 -32.488  1.00  0.00    -0.274 OA
HETATM   10  C   UNL     1      -4.364  -3.654 -33.805  1.00  0.00     0.006 A 
HETATM   11  C   UNL     1      -3.240  -0.625 -31.993  1.00  0.00     0.295 A 
HETATM   12  O   UNL     1      -2.319  -0.346 -31.234  1.00  0.00    -0.259 OA
HETATM   13  C   UNL     1      -3.305  -4.616 -33.349  1.00  0.00     0.054 C 
HETATM   14  C   UNL     1      -5.374  -4.049 -34.686  1.00  0.00     0.074 A 
HETATM   15  C   UNL     1      -6.348  -3.151 -35.106  1.00  0.00     0.038 A 
BRANCH  14  16
HETATM   16  O   UNL     1      -5.475  -5.314 -35.191  1.00  0.00    -0.360 OA
HETATM   17  H   UNL     1      -5.650  -5.941 -34.474  1.00  0.00     0.217 HD
ENDBRANCH  14  16
ENDBRANCH   2   3
ENDBRANCH   1   2
BRANCH   1  18
HETATM   18  C   UNL     1      -4.412   4.031 -32.962  1.00  0.00     0.217 C 
HETATM   19  N   UNL     1      -5.572   3.982 -32.215  1.00  0.00    -0.361 N 
HETATM   20  H   UNL     1      -5.809   3.099 -31.779  1.00  0.00     0.162 HD
HETATM   21  O   UNL     1      -4.172   4.921 -33.771  1.00  0.00    -0.274 OA
BRANCH  19  22
HETATM   22  C   UNL     1      -6.636   4.939 -32.467  1.00  0.00     0.127 C 
BRANCH  22  23
HETATM   23  C   UNL     1      -7.792   4.810 -31.476  1.00  0.00     0.060 C 
BRANCH  23  24
HETATM   24  C   UNL     1      -8.471   3.481 -31.582  1.00  0.00    -0.029 A 
HETATM   25  C   UNL     1      -9.389   3.069 -32.602  1.00  0.00    -0.000 A 
HETATM   26  C   UNL     1      -9.753   1.749 -32.330  1.00  0.00     0.043 A 
HETATM   27  C   UNL     1      -9.936   3.699 -33.739  1.00  0.00     0.038 A 
HETATM   28  C   UNL     1     -10.636   1.022 -33.137  1.00  0.00     0.032 A 
HETATM   29  N   UNL     1      -9.088   1.376 -31.185  1.00  0.00    -0.365 N 
HETATM   30  C   UNL     1     -11.168   1.667 -34.258  1.00  0.00     0.026 A 
HETATM   31  C   UNL     1     -10.822   2.984 -34.551  1.00  0.00     0.035 A 
HETATM   32 CL   UNL     1     -11.498   3.749 -35.939  1.00  0.00    -0.084 Cl
HETATM   33  H   UNL     1      -9.159   0.464 -30.755  1.00  0.00     0.165 HD
HETATM   34  C   UNL     1      -8.317   2.408 -30.726  1.00  0.00     0.096 A 
ENDBRANCH  23  24
ENDBRANCH  22  23
ENDBRANCH  19  22
ENDBRANCH   1  18
TORSDOF 7
ENDMDL
MODEL 7
REMARK VINA RESULT:      -9.6      2.096      3.382
REMARK  7 active torsions:
REMARK  status: ('A' for Active; 'I' for Inactive)
REMARK    1  A    between atoms: C_3  and  C_4 
REMARK    2  A    between atoms: C_4  and  C_5 
REMARK    3  A    between atoms: C_5  and  C_6 
REMARK       I    between atoms: C_6  and  N_7 
REMARK    4  A    between atoms: N_7  and  C_8 
REMARK    5  A    between atoms: C_8  and  C_9 
REMARK    6  A    between atoms: C_9  and  C_10 
REMARK    7  A    between atoms: C_29  and  O_30 
ROOT
HETATM    1  C   UNL     1      -6.899   2.254 -32.207  1.00  0.00     0.107 C 
ENDROOT
BRANCH   1   2
HETATM    2  C   UNL     1      -6.128   1.803 -33.454  1.00  0.00     0.055 C 
BRANCH   2   3
HETATM    3  C   UNL     1      -5.967   0.319 -33.767  1.00  0.00     0.025 A 
HETATM    4  C   UNL     1      -4.902  -0.389 -33.318  1.00  0.00    -0.037 A 
HETATM    5  C   UNL     1      -3.759   0.228 -32.540  1.00  0.00     0.050 C 
HETATM    6  C   UNL     1      -4.794  -1.834 -33.611  1.00  0.00     0.005 A 
HETATM    7  C   UNL     1      -5.764  -2.445 -34.407  1.00  0.00     0.099 A 
HETATM    8  C   UNL     1      -3.756  -2.644 -33.128  1.00  0.00     0.017 A 
HETATM    9  O   UNL     1      -6.839  -1.682 -34.896  1.00  0.00    -0.274 OA
HETATM   10  C   UNL     1      -5.731  -3.812 -34.756  1.00  0.00     0.006 A 
HETATM   11  C   UNL     1      -7.002  -0.335 -34.616  1.00  0.00     0.295 A 
HETATM   12  O   UNL     1      -7.964   0.268 -35.076  1.00  0.00    -0.259 OA
HETATM   13  C   UNL     1      -6.792  -4.422 -35.626  1.00  0.00     0.054 C 
HETATM   14  C   UNL     1      -4.671  -4.575 -34.259  1.00  0.00     0.074 A 
HETATM   15  C   UNL     1      -3.695  -4.001 -33.451  1.00  0.00     0.038 A 
BRANCH  14  16
HETATM   16  O   UNL     1      -4.520  -5.907 -34.518  1.00  0.00    -0.360 OA
HETATM   17  H   UNL     1      -3.578  -6.122 -34.598  1.00  0.00     0.217 HD
ENDBRANCH  14  16
ENDBRANCH   2   3
ENDBRANCH   1   2
BRANCH   1  18
HETATM   18  C   UNL     1      -6.091   3.259 -31.408  1.00  0.00     0.217 C 
HETATM   19  N   UNL     1      -6.446   4.570 -31.658  1.00  0.00    -0.361 N 
HETATM   20  H   UNL     1      -6.982   4.756 -32.497  1.00  0.00     0.162 HD
HETATM   21  O   UNL     1      -5.209   2.941 -30.618  1.00  0.00    -0.274 OA
BRANCH  19  22
HETATM   22  C   UNL     1      -5.671   5.652 -31.075  1.00  0.00     0.127 C 
BRANCH  22  23
HETATM   23  C   UNL     1      -4.810   6.382 -32.105  1.00  0.00     0.060 C 
BRANCH  23  24
HETATM   24  C   UNL     1      -3.441   5.790 -32.207  1.00  0.00    -0.029 A 
HETATM   25  C   UNL     1      -2.285   6.171 -31.452  1.00  0.00    -0.000 A 
HETATM   26  C   UNL     1      -1.234   5.341 -31.845  1.00  0.00     0.043 A 
HETATM   27  C   UNL     1      -2.040   7.145 -30.462  1.00  0.00     0.038 A 
HETATM   28  C   UNL     1       0.052   5.431 -31.298  1.00  0.00     0.032 A 
HETATM   29  N   UNL     1      -1.730   4.492 -32.807  1.00  0.00    -0.365 N 
HETATM   30  C   UNL     1       0.271   6.404 -30.319  1.00  0.00     0.026 A 
HETATM   31  C   UNL     1      -0.759   7.247 -29.910  1.00  0.00     0.035 A 
HETATM   32 CL   UNL     1      -0.453   8.437 -28.703  1.00  0.00    -0.084 Cl
HETATM   33  H   UNL     1      -1.189   3.775 -33.270  1.00  0.00     0.165 HD
HETATM   34  C   UNL     1      -3.053   4.753 -33.034  1.00  0.00     0.096 A 
ENDBRANCH  23  24
ENDBRANCH  22  23
ENDBRANCH  19  22
ENDBRANCH   1  18
TORSDOF 7
ENDMDL
MODEL 8
REMARK VINA RESULT:      -9.6      5.765      7.780
REMARK  7 active torsions:
REMARK  status: ('A' for Active; 'I' for Inactive)
REMARK    1  A    between atoms: C_3  and  C_4 
REMARK    2  A    between atoms: C_4  and  C_5 
REMARK    3  A    between atoms: C_5  and  C_6 
REMARK       I    between atoms: C_6  and  N_7 
REMARK    4  A    between atoms: N_7  and  C_8 
REMARK    5  A    between atoms: C_8  and  C_9 
REMARK    6  A    between atoms: C_9  and  C_10 
REMARK    7  A    between atoms: C_29  and  O_30 
ROOT
HETATM    1  C   UNL     1      -6.023   2.869 -34.148  1.00  0.00     0.107 C 
ENDROOT
BRANCH   1   2
HETATM    2  C   UNL     1      -6.423   1.737 -33.193  1.00  0.00     0.055 C 
BRANCH   2   3
HETATM    3  C   UNL     1      -6.181   0.282 -33.576  1.00  0.00     0.025 A 
HETATM    4  C   UNL     1      -5.105  -0.404 -33.115  1.00  0.00    -0.037 A 
HETATM    5  C   UNL     1      -4.029   0.218 -32.251  1.00  0.00     0.050 C 
HETATM    6  C   UNL     1      -4.918  -1.825 -33.479  1.00  0.00     0.005 A 
HETATM    7  C   UNL     1      -5.821  -2.432 -34.352  1.00  0.00     0.099 A 
HETATM    8  C   UNL     1      -3.867  -2.614 -32.991  1.00  0.00     0.017 A 
HETATM    9  O   UNL     1      -6.907  -1.689 -34.851  1.00  0.00    -0.274 OA
HETATM   10  C   UNL     1      -5.710  -3.774 -34.772  1.00  0.00     0.006 A 
HETATM   11  C   UNL     1      -7.144  -0.369 -34.507  1.00  0.00     0.295 A 
HETATM   12  O   UNL     1      -8.111   0.217 -34.981  1.00  0.00    -0.259 OA
HETATM   13  C   UNL     1      -6.701  -4.381 -35.723  1.00  0.00     0.054 C 
HETATM   14  C   UNL     1      -4.640  -4.517 -34.266  1.00  0.00     0.074 A 
HETATM   15  C   UNL     1      -3.729  -3.947 -33.383  1.00  0.00     0.038 A 
BRANCH  14  16
HETATM   16  O   UNL     1      -4.416  -5.825 -34.588  1.00  0.00    -0.360 OA
HETATM   17  H   UNL     1      -3.485  -6.046 -34.439  1.00  0.00     0.217 HD
ENDBRANCH  14  16
ENDBRANCH   2   3
ENDBRANCH   1   2
BRANCH   1  18
HETATM   18  C   UNL     1      -6.512   4.209 -33.632  1.00  0.00     0.217 C 
HETATM   19  N   UNL     1      -6.719   4.227 -32.267  1.00  0.00    -0.361 N 
HETATM   20  H   UNL     1      -6.790   3.335 -31.794  1.00  0.00     0.162 HD
HETATM   21  O   UNL     1      -6.707   5.181 -34.354  1.00  0.00    -0.274 OA
BRANCH  19  22
HETATM   22  C   UNL     1      -7.318   5.395 -31.643  1.00  0.00     0.127 C 
BRANCH  22  23
HETATM   23  C   UNL     1      -8.785   5.179 -31.276  1.00  0.00     0.060 C 
BRANCH  23  24
HETATM   24  C   UNL     1      -9.198   3.751 -31.445  1.00  0.00    -0.029 A 
HETATM   25  C   UNL     1      -9.947   3.201 -32.535  1.00  0.00    -0.000 A 
HETATM   26  C   UNL     1     -10.080   1.831 -32.303  1.00  0.00     0.043 A 
HETATM   27  C   UNL     1     -10.519   3.745 -33.704  1.00  0.00     0.038 A 
HETATM   28  C   UNL     1     -10.753   0.973 -33.181  1.00  0.00     0.032 A 
HETATM   29  N   UNL     1      -9.442   1.560 -31.115  1.00  0.00    -0.365 N 
HETATM   30  C   UNL     1     -11.312   1.534 -34.333  1.00  0.00     0.026 A 
HETATM   31  C   UNL     1     -11.196   2.899 -34.587  1.00  0.00     0.035 A 
HETATM   32 CL   UNL     1     -11.900   3.558 -36.015  1.00  0.00    -0.084 Cl
HETATM   33  H   UNL     1      -9.374   0.641 -30.699  1.00  0.00     0.165 HD
HETATM   34  C   UNL     1      -8.911   2.706 -30.590  1.00  0.00     0.096 A 
ENDBRANCH  23  24
ENDBRANCH  22  23
ENDBRANCH  19  22
ENDBRANCH   1  18
TORSDOF 7
ENDMDL
MODEL 9
REMARK VINA RESULT:      -9.3      2.160      2.674
REMARK  7 active torsions:
REMARK  status: ('A' for Active; 'I' for Inactive)
REMARK    1  A    between atoms: C_3  and  C_4 
REMARK    2  A    between atoms: C_4  and  C_5 
REMARK    3  A    between atoms: C_5  and  C_6 
REMARK       I    between atoms: C_6  and  N_7 
REMARK    4  A    between atoms: N_7  and  C_8 
REMARK    5  A    between atoms: C_8  and  C_9 
REMARK    6  A    between atoms: C_9  and  C_10 
REMARK    7  A    between atoms: C_29  and  O_30 
ROOT
HETATM    1  C   UNL     1      -5.001   2.137 -30.603  1.00  0.00     0.107 C 
ENDROOT
BRANCH   1   2
HETATM    2  C   UNL     1      -4.165   1.707 -31.815  1.00  0.00     0.055 C 
BRANCH   2   3
HETATM    3  C   UNL     1      -4.304   0.302 -32.389  1.00  0.00     0.025 A 
HETATM    4  C   UNL     1      -5.376  -0.056 -33.138  1.00  0.00    -0.037 A 
HETATM    5  C   UNL     1      -6.546   0.864 -33.410  1.00  0.00     0.050 C 
HETATM    6  C   UNL     1      -5.463  -1.418 -33.708  1.00  0.00     0.005 A 
HETATM    7  C   UNL     1      -4.465  -2.348 -33.413  1.00  0.00     0.099 A 
HETATM    8  C   UNL     1      -6.508  -1.840 -34.542  1.00  0.00     0.017 A 
HETATM    9  O   UNL     1      -3.382  -1.966 -32.601  1.00  0.00    -0.274 OA
HETATM   10  C   UNL     1      -4.476  -3.674 -33.894  1.00  0.00     0.006 A 
HETATM   11  C   UNL     1      -3.239  -0.692 -32.077  1.00  0.00     0.295 A 
HETATM   12  O   UNL     1      -2.268  -0.430 -31.376  1.00  0.00    -0.259 OA
HETATM   13  C   UNL     1      -3.384  -4.643 -33.540  1.00  0.00     0.054 C 
HETATM   14  C   UNL     1      -5.544  -4.049 -34.713  1.00  0.00     0.074 A 
HETATM   15  C   UNL     1      -6.548  -3.145 -35.038  1.00  0.00     0.038 A 
BRANCH  14  16
HETATM   16  O   UNL     1      -5.676  -5.300 -35.247  1.00  0.00    -0.360 OA
HETATM   17  H   UNL     1      -6.576  -5.420 -35.585  1.00  0.00     0.217 HD
ENDBRANCH  14  16
ENDBRANCH   2   3
ENDBRANCH   1   2
BRANCH   1  18
HETATM   18  C   UNL     1      -5.278   3.628 -30.640  1.00  0.00     0.217 C 
HETATM   19  N   UNL     1      -5.195   4.169 -31.908  1.00  0.00    -0.361 N 
HETATM   20  H   UNL     1      -4.718   3.625 -32.617  1.00  0.00     0.162 HD
HETATM   21  O   UNL     1      -5.549   4.290 -29.644  1.00  0.00    -0.274 OA
BRANCH  19  22
HETATM   22  C   UNL     1      -5.298   5.607 -32.088  1.00  0.00     0.127 C 
BRANCH  22  23
HETATM   23  C   UNL     1      -3.937   6.276 -32.279  1.00  0.00     0.060 C 
BRANCH  23  24
HETATM   24  C   UNL     1      -3.342   6.710 -30.977  1.00  0.00    -0.029 A 
HETATM   25  C   UNL     1      -2.032   6.397 -30.489  1.00  0.00    -0.000 A 
HETATM   26  C   UNL     1      -1.883   7.029 -29.254  1.00  0.00     0.043 A 
HETATM   27  C   UNL     1      -0.955   5.639 -30.993  1.00  0.00     0.038 A 
HETATM   28  C   UNL     1      -0.711   6.945 -28.493  1.00  0.00     0.032 A 
HETATM   29  N   UNL     1      -3.059   7.694 -28.997  1.00  0.00    -0.365 N 
HETATM   30  C   UNL     1       0.344   6.187 -29.012  1.00  0.00     0.026 A 
HETATM   31  C   UNL     1       0.220   5.545 -30.241  1.00  0.00     0.035 A 
HETATM   32 CL   UNL     1       1.539   4.617 -30.849  1.00  0.00    -0.084 Cl
HETATM   33  H   UNL     1      -3.235   8.246 -28.168  1.00  0.00     0.165 HD
HETATM   34  C   UNL     1      -3.944   7.508 -30.024  1.00  0.00     0.096 A 
ENDBRANCH  23  24
ENDBRANCH  22  23
ENDBRANCH  19  22
ENDBRANCH   1  18
TORSDOF 7
ENDMDL
MODEL 10
REMARK VINA RESULT:      -9.2      4.057     10.640
REMARK  7 active torsions:
REMARK  status: ('A' for Active; 'I' for Inactive)
REMARK    1  A    between atoms: C_3  and  C_4 
REMARK    2  A    between atoms: C_4  and  C_5 
REMARK    3  A    between atoms: C_5  and  C_6 
REMARK       I    between atoms: C_6  and  N_7 
REMARK    4  A    between atoms: N_7  and  C_8 
REMARK    5  A    between atoms: C_8  and  C_9 
REMARK    6  A    between atoms: C_9  and  C_10 
REMARK    7  A    between atoms: C_29  and  O_30 
ROOT
HETATM    1  C   UNL     1      -2.058   5.367 -33.755  1.00  0.00     0.107 C 
ENDROOT
BRANCH   1   2
HETATM    2  C   UNL     1      -1.923   4.857 -32.314  1.00  0.00     0.055 C 
BRANCH   2   3
HETATM    3  C   UNL     1      -1.741   5.840 -31.162  1.00  0.00     0.025 A 
HETATM    4  C   UNL     1      -0.516   6.114 -30.650  1.00  0.00    -0.037 A 
HETATM    5  C   UNL     1       0.753   5.432 -31.114  1.00  0.00     0.050 C 
HETATM    6  C   UNL     1      -0.372   7.097 -29.555  1.00  0.00     0.005 A 
HETATM    7  C   UNL     1      -1.513   7.690 -29.013  1.00  0.00     0.099 A 
HETATM    8  C   UNL     1       0.866   7.477 -29.018  1.00  0.00     0.017 A 
HETATM    9  O   UNL     1      -2.777   7.360 -29.533  1.00  0.00    -0.274 OA
HETATM   10  C   UNL     1      -1.473   8.620 -27.953  1.00  0.00     0.006 A 
HETATM   11  C   UNL     1      -2.958   6.475 -30.582  1.00  0.00     0.295 A 
HETATM   12  O   UNL     1      -4.090   6.233 -30.985  1.00  0.00    -0.259 OA
HETATM   13  C   UNL     1      -2.730   9.223 -27.395  1.00  0.00     0.054 C 
HETATM   14  C   UNL     1      -0.216   8.960 -27.446  1.00  0.00     0.074 A 
HETATM   15  C   UNL     1       0.942   8.399 -27.972  1.00  0.00     0.038 A 
BRANCH  14  16
HETATM   16  O   UNL     1      -0.036   9.848 -26.424  1.00  0.00    -0.360 OA
HETATM   17  H   UNL     1       0.719   9.575 -25.881  1.00  0.00     0.217 HD
ENDBRANCH  14  16
ENDBRANCH   2   3
ENDBRANCH   1   2
BRANCH   1  18
HETATM   18  C   UNL     1      -3.440   5.068 -34.305  1.00  0.00     0.217 C 
HETATM   19  N   UNL     1      -4.220   4.319 -33.448  1.00  0.00    -0.361 N 
HETATM   20  H   UNL     1      -3.750   3.828 -32.697  1.00  0.00     0.162 HD
HETATM   21  O   UNL     1      -3.827   5.452 -35.403  1.00  0.00    -0.274 OA
BRANCH  19  22
HETATM   22  C   UNL     1      -5.518   3.834 -33.888  1.00  0.00     0.127 C 
BRANCH  22  23
HETATM   23  C   UNL     1      -6.052   2.702 -33.012  1.00  0.00     0.060 C 
BRANCH  23  24
HETATM   24  C   UNL     1      -6.390   1.487 -33.817  1.00  0.00    -0.029 A 
HETATM   25  C   UNL     1      -5.778   0.195 -33.714  1.00  0.00    -0.000 A 
HETATM   26  C   UNL     1      -6.418  -0.646 -34.626  1.00  0.00     0.043 A 
HETATM   27  C   UNL     1      -4.742  -0.336 -32.919  1.00  0.00     0.038 A 
HETATM   28  C   UNL     1      -6.078  -1.994 -34.786  1.00  0.00     0.032 A 
HETATM   29  N   UNL     1      -7.376   0.107 -35.264  1.00  0.00    -0.365 N 
HETATM   30  C   UNL     1      -5.047  -2.500 -33.988  1.00  0.00     0.026 A 
HETATM   31  C   UNL     1      -4.391  -1.681 -33.071  1.00  0.00     0.035 A 
HETATM   32 CL   UNL     1      -3.123  -2.336 -32.106  1.00  0.00    -0.084 Cl
HETATM   33  H   UNL     1      -7.999  -0.246 -35.978  1.00  0.00     0.165 HD
HETATM   34  C   UNL     1      -7.367   1.390 -34.788  1.00  0.00     0.096 A 
ENDBRANCH  23  24
ENDBRANCH  22  23
ENDBRANCH  19  22
ENDBRANCH   1  18
TORSDOF 7
ENDMDL
