MODEL 1
REMARK VINA RESULT:      -8.9      0.000      0.000
REMARK  2 active torsions:
REMARK  status: ('A' for Active; 'I' for Inactive)
REMARK    1  A    between atoms: C_4  and  C_5 
REMARK    2  A    between atoms: N_11  and  C_12 
ROOT
HETATM    1  C   UNL     1      -3.189   4.123 -31.638  1.00  0.00     0.069 A 
HETATM    2  N   UNL     1      -2.998   2.983 -32.400  1.00  0.00    -0.343 N 
HETATM    3  C   UNL     1      -3.928   1.983 -32.443  1.00  0.00     0.119 A 
HETATM    4  C   UNL     1      -5.102   2.106 -31.802  1.00  0.00     0.125 A 
HETATM    5  C   UNL     1      -5.892   0.907 -32.126  1.00  0.00     0.280 A 
HETATM    6  O   UNL     1      -7.023   0.685 -31.733  1.00  0.00    -0.265 OA
HETATM    7  N   UNL     1      -5.068   0.136 -32.962  1.00  0.00    -0.236 N 
HETATM    8  N   UNL     1      -3.829   0.790 -33.131  1.00  0.00    -0.179 NA
HETATM    9  C   UNL     1      -5.418   3.304 -31.015  1.00  0.00     0.215 A 
HETATM   10  O   UNL     1      -6.496   3.448 -30.451  1.00  0.00    -0.285 OA
HETATM   11  C   UNL     1      -4.330   4.347 -30.949  1.00  0.00     0.112 A 
HETATM   12 CL   UNL     1      -4.632   5.746 -29.988  1.00  0.00    -0.077 Cl
HETATM   13  H   UNL     1      -2.071   2.802 -32.772  1.00  0.00     0.167 HD
HETATM   14  H   UNL     1      -3.609   0.958 -34.113  1.00  0.00     0.155 HD
ENDROOT
BRANCH   7  15
HETATM   15  C   UNL     1      -5.302  -1.128 -33.544  1.00  0.00     0.055 A 
HETATM   16  C   UNL     1      -6.562  -1.467 -34.064  1.00  0.00     0.034 A 
HETATM   17  C   UNL     1      -6.784  -2.718 -34.651  1.00  0.00     0.044 A 
HETATM   18  C   UNL     1      -5.749  -3.639 -34.718  1.00  0.00     0.116 A 
HETATM   19  F   UNL     1      -5.961  -4.836 -35.279  1.00  0.00    -0.206 F 
HETATM   20  C   UNL     1      -4.496  -3.334 -34.207  1.00  0.00     0.044 A 
HETATM   21  C   UNL     1      -4.274  -2.083 -33.622  1.00  0.00     0.034 A 
ENDBRANCH   7  15
BRANCH   1  22
HETATM   22  C   UNL     1      -2.064   5.073 -31.631  1.00  0.00    -0.008 A 
HETATM   23  C   UNL     1      -0.954   4.846 -30.807  1.00  0.00     0.014 A 
HETATM   24  C   UNL     1       0.116   5.742 -30.809  1.00  0.00     0.001 A 
HETATM   25  C   UNL     1       0.083   6.867 -31.632  1.00  0.00     0.000 A 
HETATM   26  C   UNL     1      -1.017   7.097 -32.456  1.00  0.00     0.001 A 
HETATM   27  C   UNL     1      -2.089   6.203 -32.457  1.00  0.00     0.014 A 
ENDBRANCH   1  22
TORSDOF 2
ENDMDL
MODEL 2
REMARK VINA RESULT:      -8.9      5.460      8.198
REMARK  2 active torsions:
REMARK  status: ('A' for Active; 'I' for Inactive)
REMARK    1  A    between atoms: C_4  and  C_5 
REMARK    2  A    between atoms: N_11  and  C_12 
ROOT
HETATM    1  C   UNL     1     -11.628   2.138 -33.464  1.00  0.00     0.069 A 
HETATM    2  N   UNL     1     -10.963   0.932 -33.318  1.00  0.00    -0.343 N 
HETATM    3  C   UNL     1      -9.634   0.803 -33.605  1.00  0.00     0.119 A 
HETATM    4  C   UNL     1      -8.902   1.869 -33.970  1.00  0.00     0.125 A 
HETATM    5  C   UNL     1      -7.513   1.403 -34.113  1.00  0.00     0.280 A 
HETATM    6  O   UNL     1      -6.566   2.105 -34.416  1.00  0.00    -0.265 OA
HETATM    7  N   UNL     1      -7.551   0.031 -33.817  1.00  0.00    -0.236 N 
HETATM    8  N   UNL     1      -8.880  -0.351 -33.535  1.00  0.00    -0.179 NA
HETATM    9  C   UNL     1      -9.507   3.201 -34.097  1.00  0.00     0.215 A 
HETATM   10  O   UNL     1      -8.849   4.189 -34.397  1.00  0.00    -0.285 OA
HETATM   11  C   UNL     1     -10.990   3.272 -33.832  1.00  0.00     0.112 A 
HETATM   12 CL   UNL     1     -11.757   4.803 -34.025  1.00  0.00    -0.077 Cl
HETATM   13  H   UNL     1     -11.517   0.090 -33.185  1.00  0.00     0.167 HD
HETATM   14  H   UNL     1      -8.973  -0.787 -32.618  1.00  0.00     0.155 HD
ENDROOT
BRANCH   7  15
HETATM   15  C   UNL     1      -6.513  -0.925 -33.831  1.00  0.00     0.055 A 
HETATM   16  C   UNL     1      -5.345  -0.741 -33.074  1.00  0.00     0.034 A 
HETATM   17  C   UNL     1      -4.325  -1.699 -33.083  1.00  0.00     0.044 A 
HETATM   18  C   UNL     1      -4.464  -2.844 -33.853  1.00  0.00     0.116 A 
HETATM   19  F   UNL     1      -3.488  -3.760 -33.861  1.00  0.00    -0.206 F 
HETATM   20  C   UNL     1      -5.604  -3.050 -34.616  1.00  0.00     0.044 A 
HETATM   21  C   UNL     1      -6.624  -2.093 -34.605  1.00  0.00     0.034 A 
ENDBRANCH   7  15
BRANCH   1  22
HETATM   22  C   UNL     1     -13.074   2.099 -33.192  1.00  0.00    -0.008 A 
HETATM   23  C   UNL     1     -13.913   1.272 -33.951  1.00  0.00     0.014 A 
HETATM   24  C   UNL     1     -15.283   1.229 -33.686  1.00  0.00     0.001 A 
HETATM   25  C   UNL     1     -15.820   2.009 -32.663  1.00  0.00     0.000 A 
HETATM   26  C   UNL     1     -14.991   2.832 -31.903  1.00  0.00     0.001 A 
HETATM   27  C   UNL     1     -13.621   2.877 -32.165  1.00  0.00     0.014 A 
ENDBRANCH   1  22
TORSDOF 2
ENDMDL
MODEL 3
REMARK VINA RESULT:      -8.7      5.249      8.257
REMARK  2 active torsions:
REMARK  status: ('A' for Active; 'I' for Inactive)
REMARK    1  A    between atoms: C_4  and  C_5 
REMARK    2  A    between atoms: N_11  and  C_12 
ROOT
HETATM    1  C   UNL     1      -6.469  -0.991 -33.739  1.00  0.00     0.069 A 
HETATM    2  N   UNL     1      -7.543  -0.516 -34.472  1.00  0.00    -0.343 N 
HETATM    3  C   UNL     1      -8.138   0.679 -34.185  1.00  0.00     0.119 A 
HETATM    4  C   UNL     1      -7.650   1.478 -33.221  1.00  0.00     0.125 A 
HETATM    5  C   UNL     1      -8.459   2.707 -33.235  1.00  0.00     0.280 A 
HETATM    6  O   UNL     1      -8.288   3.667 -32.506  1.00  0.00    -0.265 OA
HETATM    7  N   UNL     1      -9.411   2.512 -34.249  1.00  0.00    -0.236 N 
HETATM    8  N   UNL     1      -9.234   1.232 -34.818  1.00  0.00    -0.179 NA
HETATM    9  C   UNL     1      -6.478   1.085 -32.428  1.00  0.00     0.215 A 
HETATM   10  O   UNL     1      -6.000   1.814 -31.567  1.00  0.00    -0.285 OA
HETATM   11  C   UNL     1      -5.903  -0.273 -32.743  1.00  0.00     0.112 A 
HETATM   12 CL   UNL     1      -4.562  -0.804 -31.799  1.00  0.00    -0.077 Cl
HETATM   13  H   UNL     1      -8.017  -1.157 -35.102  1.00  0.00     0.167 HD
HETATM   14  H   UNL     1      -9.085   1.272 -35.826  1.00  0.00     0.155 HD
ENDROOT
BRANCH   7  15
HETATM   15  C   UNL     1     -10.461   3.352 -34.676  1.00  0.00     0.055 A 
HETATM   16  C   UNL     1     -10.242   4.715 -34.936  1.00  0.00     0.034 A 
HETATM   17  C   UNL     1     -11.285   5.540 -35.370  1.00  0.00     0.044 A 
HETATM   18  C   UNL     1     -12.554   5.009 -35.544  1.00  0.00     0.116 A 
HETATM   19  F   UNL     1     -13.553   5.798 -35.960  1.00  0.00    -0.206 F 
HETATM   20  C   UNL     1     -12.802   3.668 -35.289  1.00  0.00     0.044 A 
HETATM   21  C   UNL     1     -11.758   2.843 -34.857  1.00  0.00     0.034 A 
ENDBRANCH   7  15
BRANCH   1  22
HETATM   22  C   UNL     1      -5.989  -2.331 -34.118  1.00  0.00    -0.008 A 
HETATM   23  C   UNL     1      -4.631  -2.652 -34.000  1.00  0.00     0.014 A 
HETATM   24  C   UNL     1      -4.179  -3.926 -34.351  1.00  0.00     0.001 A 
HETATM   25  C   UNL     1      -5.080  -4.881 -34.819  1.00  0.00     0.000 A 
HETATM   26  C   UNL     1      -6.433  -4.568 -34.936  1.00  0.00     0.001 A 
HETATM   27  C   UNL     1      -6.888  -3.296 -34.585  1.00  0.00     0.014 A 
ENDBRANCH   1  22
TORSDOF 2
ENDMDL
MODEL 4
REMARK VINA RESULT:      -8.7      3.358      8.057
REMARK  2 active torsions:
REMARK  status: ('A' for Active; 'I' for Inactive)
REMARK    1  A    between atoms: C_4  and  C_5 
REMARK    2  A    between atoms: N_11  and  C_12 
ROOT
HETATM    1  C   UNL     1      -5.448   0.270 -32.807  1.00  0.00     0.069 A 
HETATM    2  N   UNL     1      -4.190   0.839 -32.902  1.00  0.00    -0.343 N 
HETATM    3  C   UNL     1      -3.917   2.074 -32.386  1.00  0.00     0.119 A 
HETATM    4  C   UNL     1      -4.849   2.753 -31.697  1.00  0.00     0.125 A 
HETATM    5  C   UNL     1      -4.207   3.986 -31.213  1.00  0.00     0.280 A 
HETATM    6  O   UNL     1      -4.749   4.837 -30.532  1.00  0.00    -0.265 OA
HETATM    7  N   UNL     1      -2.889   3.930 -31.694  1.00  0.00    -0.236 N 
HETATM    8  N   UNL     1      -2.718   2.754 -32.456  1.00  0.00    -0.179 NA
HETATM    9  C   UNL     1      -6.197   2.206 -31.495  1.00  0.00     0.215 A 
HETATM   10  O   UNL     1      -7.049   2.796 -30.842  1.00  0.00    -0.285 OA
HETATM   11  C   UNL     1      -6.461   0.869 -32.142  1.00  0.00     0.112 A 
HETATM   12 CL   UNL     1      -8.046   0.212 -31.982  1.00  0.00    -0.077 Cl
HETATM   13  H   UNL     1      -3.517   0.416 -33.535  1.00  0.00     0.167 HD
HETATM   14  H   UNL     1      -1.954   2.174 -32.109  1.00  0.00     0.155 HD
ENDROOT
BRANCH   7  15
HETATM   15  C   UNL     1      -1.838   4.862 -31.559  1.00  0.00     0.055 A 
HETATM   16  C   UNL     1      -0.798   4.658 -30.639  1.00  0.00     0.034 A 
HETATM   17  C   UNL     1       0.247   5.581 -30.519  1.00  0.00     0.044 A 
HETATM   18  C   UNL     1       0.256   6.716 -31.316  1.00  0.00     0.116 A 
HETATM   19  F   UNL     1       1.255   7.599 -31.202  1.00  0.00    -0.206 F 
HETATM   20  C   UNL     1      -0.762   6.948 -32.230  1.00  0.00     0.044 A 
HETATM   21  C   UNL     1      -1.805   6.023 -32.350  1.00  0.00     0.034 A 
ENDBRANCH   7  15
BRANCH   1  22
HETATM   22  C   UNL     1      -5.606  -1.029 -33.481  1.00  0.00    -0.008 A 
HETATM   23  C   UNL     1      -6.853  -1.413 -33.992  1.00  0.00     0.014 A 
HETATM   24  C   UNL     1      -6.999  -2.641 -34.639  1.00  0.00     0.001 A 
HETATM   25  C   UNL     1      -5.901  -3.490 -34.779  1.00  0.00     0.000 A 
HETATM   26  C   UNL     1      -4.657  -3.113 -34.276  1.00  0.00     0.001 A 
HETATM   27  C   UNL     1      -4.508  -1.886 -33.628  1.00  0.00     0.014 A 
ENDBRANCH   1  22
TORSDOF 2
ENDMDL
MODEL 5
REMARK VINA RESULT:      -8.6      1.618      2.115
REMARK  2 active torsions:
REMARK  status: ('A' for Active; 'I' for Inactive)
REMARK    1  A    between atoms: C_4  and  C_5 
REMARK    2  A    between atoms: N_11  and  C_12 
ROOT
HETATM    1  C   UNL     1      -3.728   4.469 -32.427  1.00  0.00     0.069 A 
HETATM    2  N   UNL     1      -3.066   3.258 -32.540  1.00  0.00    -0.343 N 
HETATM    3  C   UNL     1      -3.742   2.075 -32.631  1.00  0.00     0.119 A 
HETATM    4  C   UNL     1      -5.084   2.051 -32.690  1.00  0.00     0.125 A 
HETATM    5  C   UNL     1      -5.478   0.644 -32.873  1.00  0.00     0.280 A 
HETATM    6  O   UNL     1      -6.623   0.246 -32.987  1.00  0.00    -0.265 OA
HETATM    7  N   UNL     1      -4.273  -0.077 -32.894  1.00  0.00    -0.236 N 
HETATM    8  N   UNL     1      -3.192   0.811 -32.708  1.00  0.00    -0.179 NA
HETATM    9  C   UNL     1      -5.871   3.290 -32.634  1.00  0.00     0.215 A 
HETATM   10  O   UNL     1      -7.093   3.289 -32.719  1.00  0.00    -0.285 OA
HETATM   11  C   UNL     1      -5.076   4.560 -32.468  1.00  0.00     0.112 A 
HETATM   12 CL   UNL     1      -5.959   6.035 -32.339  1.00  0.00    -0.077 Cl
HETATM   13  H   UNL     1      -2.068   3.236 -32.355  1.00  0.00     0.167 HD
HETATM   14  H   UNL     1      -2.512   0.759 -33.466  1.00  0.00     0.155 HD
ENDROOT
BRANCH   7  15
HETATM   15  C   UNL     1      -4.055  -1.466 -33.010  1.00  0.00     0.055 A 
HETATM   16  C   UNL     1      -3.351  -2.177 -32.025  1.00  0.00     0.034 A 
HETATM   17  C   UNL     1      -3.148  -3.557 -32.141  1.00  0.00     0.044 A 
HETATM   18  C   UNL     1      -3.645  -4.233 -33.245  1.00  0.00     0.116 A 
HETATM   19  F   UNL     1      -3.452  -5.553 -33.356  1.00  0.00    -0.206 F 
HETATM   20  C   UNL     1      -4.339  -3.557 -34.238  1.00  0.00     0.044 A 
HETATM   21  C   UNL     1      -4.543  -2.178 -34.120  1.00  0.00     0.034 A 
ENDBRANCH   7  15
BRANCH   1  22
HETATM   22  C   UNL     1      -2.862   5.648 -32.258  1.00  0.00    -0.008 A 
HETATM   23  C   UNL     1      -2.367   6.326 -33.378  1.00  0.00     0.014 A 
HETATM   24  C   UNL     1      -1.554   7.450 -33.216  1.00  0.00     0.001 A 
HETATM   25  C   UNL     1      -1.234   7.900 -31.936  1.00  0.00     0.000 A 
HETATM   26  C   UNL     1      -1.725   7.230 -30.816  1.00  0.00     0.001 A 
HETATM   27  C   UNL     1      -2.538   6.107 -30.975  1.00  0.00     0.014 A 
ENDBRANCH   1  22
TORSDOF 2
ENDMDL
MODEL 6
REMARK VINA RESULT:      -8.5      3.792      8.047
REMARK  2 active torsions:
REMARK  status: ('A' for Active; 'I' for Inactive)
REMARK    1  A    between atoms: C_4  and  C_5 
REMARK    2  A    between atoms: N_11  and  C_12 
ROOT
HETATM    1  C   UNL     1      -4.525  -0.347 -33.014  1.00  0.00     0.069 A 
HETATM    2  N   UNL     1      -3.606   0.489 -32.402  1.00  0.00    -0.343 N 
HETATM    3  C   UNL     1      -3.800   1.838 -32.326  1.00  0.00     0.119 A 
HETATM    4  C   UNL     1      -4.933   2.398 -32.782  1.00  0.00     0.125 A 
HETATM    5  C   UNL     1      -4.855   3.834 -32.469  1.00  0.00     0.280 A 
HETATM    6  O   UNL     1      -5.719   4.654 -32.719  1.00  0.00    -0.265 OA
HETATM    7  N   UNL     1      -3.613   4.008 -31.835  1.00  0.00    -0.236 N 
HETATM    8  N   UNL     1      -2.940   2.769 -31.778  1.00  0.00    -0.179 NA
HETATM    9  C   UNL     1      -5.990   1.585 -33.396  1.00  0.00     0.215 A 
HETATM   10  O   UNL     1      -7.044   2.074 -33.787  1.00  0.00    -0.285 OA
HETATM   11  C   UNL     1      -5.695   0.111 -33.512  1.00  0.00     0.112 A 
HETATM   12 CL   UNL     1      -6.882  -0.876 -34.279  1.00  0.00    -0.077 Cl
HETATM   13  H   UNL     1      -2.687   0.115 -32.182  1.00  0.00     0.167 HD
HETATM   14  H   UNL     1      -2.686   2.508 -30.826  1.00  0.00     0.155 HD
ENDROOT
BRANCH   7  15
HETATM   15  C   UNL     1      -3.003   5.185 -31.352  1.00  0.00     0.055 A 
HETATM   16  C   UNL     1      -3.645   6.003 -30.409  1.00  0.00     0.034 A 
HETATM   17  C   UNL     1      -3.029   7.162 -29.925  1.00  0.00     0.044 A 
HETATM   18  C   UNL     1      -1.768   7.513 -30.385  1.00  0.00     0.116 A 
HETATM   19  F   UNL     1      -1.178   8.622 -29.922  1.00  0.00    -0.206 F 
HETATM   20  C   UNL     1      -1.112   6.727 -31.321  1.00  0.00     0.044 A 
HETATM   21  C   UNL     1      -1.728   5.567 -31.803  1.00  0.00     0.034 A 
ENDBRANCH   7  15
BRANCH   1  22
HETATM   22  C   UNL     1      -4.138  -1.766 -33.086  1.00  0.00    -0.008 A 
HETATM   23  C   UNL     1      -3.437  -2.360 -32.029  1.00  0.00     0.014 A 
HETATM   24  C   UNL     1      -3.080  -3.708 -32.094  1.00  0.00     0.001 A 
HETATM   25  C   UNL     1      -3.420  -4.466 -33.214  1.00  0.00     0.000 A 
HETATM   26  C   UNL     1      -4.119  -3.881 -34.268  1.00  0.00     0.001 A 
HETATM   27  C   UNL     1      -4.479  -2.534 -34.205  1.00  0.00     0.014 A 
ENDBRANCH   1  22
TORSDOF 2
ENDMDL
MODEL 7
REMARK VINA RESULT:      -8.5      3.101      3.941
REMARK  2 active torsions:
REMARK  status: ('A' for Active; 'I' for Inactive)
REMARK    1  A    between atoms: C_4  and  C_5 
REMARK    2  A    between atoms: N_11  and  C_12 
ROOT
HETATM    1  C   UNL     1      -2.203   5.687 -31.327  1.00  0.00     0.069 A 
HETATM    2  N   UNL     1      -3.076   4.707 -30.887  1.00  0.00    -0.343 N 
HETATM    3  C   UNL     1      -4.098   4.249 -31.669  1.00  0.00     0.119 A 
HETATM    4  C   UNL     1      -4.246   4.683 -32.932  1.00  0.00     0.125 A 
HETATM    5  C   UNL     1      -5.372   3.932 -33.511  1.00  0.00     0.280 A 
HETATM    6  O   UNL     1      -5.780   4.050 -34.652  1.00  0.00    -0.265 OA
HETATM    7  N   UNL     1      -5.820   3.086 -32.483  1.00  0.00    -0.236 N 
HETATM    8  N   UNL     1      -5.048   3.309 -31.323  1.00  0.00    -0.179 NA
HETATM    9  C   UNL     1      -3.334   5.680 -33.506  1.00  0.00     0.215 A 
HETATM   10  O   UNL     1      -3.435   6.063 -34.666  1.00  0.00    -0.285 OA
HETATM   11  C   UNL     1      -2.266   6.199 -32.577  1.00  0.00     0.112 A 
HETATM   12 CL   UNL     1      -1.207   7.414 -33.188  1.00  0.00    -0.077 Cl
HETATM   13  H   UNL     1      -3.075   4.470 -29.899  1.00  0.00     0.167 HD
HETATM   14  H   UNL     1      -4.605   2.457 -30.981  1.00  0.00     0.155 HD
ENDROOT
BRANCH   7  15
HETATM   15  C   UNL     1      -6.894   2.171 -32.471  1.00  0.00     0.055 A 
HETATM   16  C   UNL     1      -8.071   2.440 -31.756  1.00  0.00     0.034 A 
HETATM   17  C   UNL     1      -9.137   1.532 -31.758  1.00  0.00     0.044 A 
HETATM   18  C   UNL     1      -9.029   0.349 -32.472  1.00  0.00     0.116 A 
HETATM   19  F   UNL     1     -10.048  -0.520 -32.475  1.00  0.00    -0.206 F 
HETATM   20  C   UNL     1      -7.875   0.052 -33.183  1.00  0.00     0.044 A 
HETATM   21  C   UNL     1      -6.812   0.961 -33.182  1.00  0.00     0.034 A 
ENDBRANCH   7  15
BRANCH   1  22
HETATM   22  C   UNL     1      -1.204   6.133 -30.341  1.00  0.00    -0.008 A 
HETATM   23  C   UNL     1      -0.144   5.292 -29.982  1.00  0.00     0.014 A 
HETATM   24  C   UNL     1       0.808   5.720 -29.054  1.00  0.00     0.001 A 
HETATM   25  C   UNL     1       0.704   6.988 -28.483  1.00  0.00     0.000 A 
HETATM   26  C   UNL     1      -0.348   7.830 -28.838  1.00  0.00     0.001 A 
HETATM   27  C   UNL     1      -1.300   7.405 -29.766  1.00  0.00     0.014 A 
ENDBRANCH   1  22
TORSDOF 2
ENDMDL
MODEL 8
REMARK VINA RESULT:      -8.5      4.819      6.333
REMARK  2 active torsions:
REMARK  status: ('A' for Active; 'I' for Inactive)
REMARK    1  A    between atoms: C_4  and  C_5 
REMARK    2  A    between atoms: N_11  and  C_12 
ROOT
HETATM    1  C   UNL     1      -9.596   2.962 -33.711  1.00  0.00     0.069 A 
HETATM    2  N   UNL     1      -9.231   1.841 -34.438  1.00  0.00    -0.343 N 
HETATM    3  C   UNL     1      -8.323   0.939 -33.962  1.00  0.00     0.119 A 
HETATM    4  C   UNL     1      -7.803   1.070 -32.730  1.00  0.00     0.125 A 
HETATM    5  C   UNL     1      -6.942  -0.103 -32.505  1.00  0.00     0.280 A 
HETATM    6  O   UNL     1      -6.322  -0.330 -31.482  1.00  0.00    -0.265 OA
HETATM    7  N   UNL     1      -7.023  -0.854 -33.689  1.00  0.00    -0.236 N 
HETATM    8  N   UNL     1      -7.856  -0.186 -34.611  1.00  0.00    -0.179 NA
HETATM    9  C   UNL     1      -8.174   2.195 -31.863  1.00  0.00     0.215 A 
HETATM   10  O   UNL     1      -7.735   2.312 -30.725  1.00  0.00    -0.285 OA
HETATM   11  C   UNL     1      -9.130   3.195 -32.464  1.00  0.00     0.112 A 
HETATM   12 CL   UNL     1      -9.549   4.564 -31.506  1.00  0.00    -0.077 Cl
HETATM   13  H   UNL     1      -9.495   1.796 -35.418  1.00  0.00     0.167 HD
HETATM   14  H   UNL     1      -8.631  -0.768 -34.927  1.00  0.00     0.155 HD
ENDROOT
BRANCH   7  15
HETATM   15  C   UNL     1      -6.374  -2.057 -34.040  1.00  0.00     0.055 A 
HETATM   16  C   UNL     1      -4.976  -2.172 -33.990  1.00  0.00     0.034 A 
HETATM   17  C   UNL     1      -4.341  -3.371 -34.328  1.00  0.00     0.044 A 
HETATM   18  C   UNL     1      -5.100  -4.463 -34.724  1.00  0.00     0.116 A 
HETATM   19  F   UNL     1      -4.492  -5.611 -35.048  1.00  0.00    -0.206 F 
HETATM   20  C   UNL     1      -6.483  -4.378 -34.789  1.00  0.00     0.044 A 
HETATM   21  C   UNL     1      -7.117  -3.179 -34.448  1.00  0.00     0.034 A 
ENDBRANCH   7  15
BRANCH   1  22
HETATM   22  C   UNL     1     -10.525   3.881 -34.391  1.00  0.00    -0.008 A 
HETATM   23  C   UNL     1     -11.861   3.513 -34.591  1.00  0.00     0.014 A 
HETATM   24  C   UNL     1     -12.743   4.389 -35.226  1.00  0.00     0.001 A 
HETATM   25  C   UNL     1     -12.293   5.634 -35.664  1.00  0.00     0.000 A 
HETATM   26  C   UNL     1     -10.965   6.007 -35.467  1.00  0.00     0.001 A 
HETATM   27  C   UNL     1     -10.082   5.134 -34.831  1.00  0.00     0.014 A 
ENDBRANCH   1  22
TORSDOF 2
ENDMDL
MODEL 9
REMARK VINA RESULT:      -8.4      2.017      2.413
REMARK  2 active torsions:
REMARK  status: ('A' for Active; 'I' for Inactive)
REMARK    1  A    between atoms: C_4  and  C_5 
REMARK    2  A    between atoms: N_11  and  C_12 
ROOT
HETATM    1  C   UNL     1      -2.969   5.725 -31.536  1.00  0.00     0.069 A 
HETATM    2  N   UNL     1      -2.972   4.365 -31.795  1.00  0.00    -0.343 N 
HETATM    3  C   UNL     1      -4.064   3.735 -32.319  1.00  0.00     0.119 A 
HETATM    4  C   UNL     1      -5.157   4.432 -32.675  1.00  0.00     0.125 A 
HETATM    5  C   UNL     1      -6.096   3.473 -33.279  1.00  0.00     0.280 A 
HETATM    6  O   UNL     1      -7.189   3.755 -33.735  1.00  0.00    -0.265 OA
HETATM    7  N   UNL     1      -5.448   2.229 -33.212  1.00  0.00    -0.236 N 
HETATM    8  N   UNL     1      -4.196   2.386 -32.581  1.00  0.00    -0.179 NA
HETATM    9  C   UNL     1      -5.225   5.887 -32.490  1.00  0.00     0.215 A 
HETATM   10  O   UNL     1      -6.200   6.543 -32.839  1.00  0.00    -0.285 OA
HETATM   11  C   UNL     1      -4.017   6.520 -31.847  1.00  0.00     0.112 A 
HETATM   12 CL   UNL     1      -4.074   8.218 -31.557  1.00  0.00    -0.077 Cl
HETATM   13  H   UNL     1      -2.223   3.799 -31.406  1.00  0.00     0.167 HD
HETATM   14  H   UNL     1      -3.424   2.055 -33.160  1.00  0.00     0.155 HD
ENDROOT
BRANCH   7  15
HETATM   15  C   UNL     1      -5.899   0.953 -33.615  1.00  0.00     0.055 A 
HETATM   16  C   UNL     1      -6.808   0.804 -34.674  1.00  0.00     0.034 A 
HETATM   17  C   UNL     1      -7.241  -0.464 -35.075  1.00  0.00     0.044 A 
HETATM   18  C   UNL     1      -6.771  -1.591 -34.417  1.00  0.00     0.116 A 
HETATM   19  F   UNL     1      -7.185  -2.805 -34.801  1.00  0.00    -0.206 F 
HETATM   20  C   UNL     1      -5.877  -1.474 -33.363  1.00  0.00     0.044 A 
HETATM   21  C   UNL     1      -5.443  -0.206 -32.964  1.00  0.00     0.034 A 
ENDBRANCH   7  15
BRANCH   1  22
HETATM   22  C   UNL     1      -1.748   6.244 -30.896  1.00  0.00    -0.008 A 
HETATM   23  C   UNL     1      -1.765   6.627 -29.550  1.00  0.00     0.014 A 
HETATM   24  C   UNL     1      -0.604   7.109 -28.943  1.00  0.00     0.001 A 
HETATM   25  C   UNL     1       0.577   7.209 -29.677  1.00  0.00     0.000 A 
HETATM   26  C   UNL     1       0.601   6.827 -31.017  1.00  0.00     0.001 A 
HETATM   27  C   UNL     1      -0.558   6.344 -31.627  1.00  0.00     0.014 A 
ENDBRANCH   1  22
TORSDOF 2
ENDMDL
MODEL 10
REMARK VINA RESULT:      -8.2      4.053      8.379
REMARK  2 active torsions:
REMARK  status: ('A' for Active; 'I' for Inactive)
REMARK    1  A    between atoms: C_4  and  C_5 
REMARK    2  A    between atoms: N_11  and  C_12 
ROOT
HETATM    1  C   UNL     1      -5.887   2.705 -33.000  1.00  0.00     0.069 A 
HETATM    2  N   UNL     1      -4.641   2.856 -32.415  1.00  0.00    -0.343 N 
HETATM    3  C   UNL     1      -4.184   4.074 -31.999  1.00  0.00     0.119 A 
HETATM    4  C   UNL     1      -4.965   5.165 -32.074  1.00  0.00     0.125 A 
HETATM    5  C   UNL     1      -4.208   6.272 -31.467  1.00  0.00     0.280 A 
HETATM    6  O   UNL     1      -4.615   7.413 -31.344  1.00  0.00    -0.265 OA
HETATM    7  N   UNL     1      -2.980   5.712 -31.079  1.00  0.00    -0.236 N 
HETATM    8  N   UNL     1      -2.951   4.349 -31.442  1.00  0.00    -0.179 NA
HETATM    9  C   UNL     1      -6.323   5.092 -32.627  1.00  0.00     0.215 A 
HETATM   10  O   UNL     1      -7.060   6.070 -32.674  1.00  0.00    -0.285 OA
HETATM   11  C   UNL     1      -6.750   3.737 -33.131  1.00  0.00     0.112 A 
HETATM   12 CL   UNL     1      -8.316   3.615 -33.843  1.00  0.00    -0.077 Cl
HETATM   13  H   UNL     1      -3.983   2.084 -32.478  1.00  0.00     0.167 HD
HETATM   14  H   UNL     1      -2.771   3.738 -30.646  1.00  0.00     0.155 HD
ENDROOT
BRANCH   7  15
HETATM   15  C   UNL     1      -1.860   6.324 -30.477  1.00  0.00     0.055 A 
HETATM   16  C   UNL     1      -1.985   7.067 -29.293  1.00  0.00     0.034 A 
HETATM   17  C   UNL     1      -0.868   7.661 -28.695  1.00  0.00     0.044 A 
HETATM   18  C   UNL     1       0.382   7.517 -29.280  1.00  0.00     0.116 A 
HETATM   19  F   UNL     1       1.451   8.085 -28.709  1.00  0.00    -0.206 F 
HETATM   20  C   UNL     1       0.535   6.793 -30.454  1.00  0.00     0.044 A 
HETATM   21  C   UNL     1      -0.582   6.199 -31.049  1.00  0.00     0.034 A 
ENDBRANCH   7  15
BRANCH   1  22
HETATM   22  C   UNL     1      -6.204   1.346 -33.468  1.00  0.00    -0.008 A 
HETATM   23  C   UNL     1      -6.741   1.148 -34.747  1.00  0.00     0.014 A 
HETATM   24  C   UNL     1      -7.032  -0.143 -35.193  1.00  0.00     0.001 A 
HETATM   25  C   UNL     1      -6.789  -1.238 -34.366  1.00  0.00     0.000 A 
HETATM   26  C   UNL     1      -6.253  -1.048 -33.093  1.00  0.00     0.001 A 
HETATM   27  C   UNL     1      -5.960   0.241 -32.644  1.00  0.00     0.014 A 
ENDBRANCH   1  22
TORSDOF 2
ENDMDL
