MODEL 1
REMARK VINA RESULT:      -9.3      0.000      0.000
REMARK  2 active torsions:
REMARK  status: ('A' for Active; 'I' for Inactive)
REMARK    1  A    between atoms: C_11  and  C_12 
REMARK    2  A    between atoms: C_12  and  C_13 
ROOT
HETATM    1  C   UNL     1      -3.810  -5.113 -33.874  1.00  0.00     0.051 C 
HETATM    2  C   UNL     1      -4.378  -3.717 -33.792  1.00  0.00    -0.031 A 
HETATM    3  C   UNL     1      -5.439  -3.331 -34.624  1.00  0.00     0.038 A 
HETATM    4  C   UNL     1      -6.061  -4.282 -35.612  1.00  0.00     0.071 C 
HETATM    5  N   UNL     1      -5.996  -2.108 -34.614  1.00  0.00    -0.245 NA
HETATM    6  C   UNL     1      -5.471  -1.237 -33.737  1.00  0.00     0.111 A 
HETATM    7  C   UNL     1      -4.432  -1.464 -32.842  1.00  0.00     0.034 A 
HETATM    8  C   UNL     1      -3.891  -2.790 -32.827  1.00  0.00    -0.039 A 
HETATM    9  C   UNL     1      -2.830  -3.213 -31.840  1.00  0.00     0.050 C 
HETATM   10  S   UNL     1      -6.119   0.327 -33.643  1.00  0.00    -0.063 SA
HETATM   11  C   UNL     1      -5.010   0.798 -32.428  1.00  0.00     0.085 A 
HETATM   12  C   UNL     1      -4.157  -0.245 -32.098  1.00  0.00     0.061 A 
HETATM   13  N   UNL     1      -3.183  -0.142 -31.162  1.00  0.00    -0.397 N 
HETATM   14  H   UNL     1      -3.005   0.692 -30.611  1.00  0.00     0.156 HD
HETATM   15  H   UNL     1      -2.448  -0.833 -31.061  1.00  0.00     0.156 HD
ENDROOT
BRANCH  11  16
HETATM   16  C   UNL     1      -5.129   2.157 -31.924  1.00  0.00     0.201 C 
HETATM   17  O   UNL     1      -5.739   2.448 -30.895  1.00  0.00    -0.286 OA
BRANCH  16  18
HETATM   18  C   UNL     1      -4.499   3.293 -32.656  1.00  0.00     0.018 A 
HETATM   19  C   UNL     1      -3.120   3.540 -32.592  1.00  0.00     0.055 A 
HETATM   20  C   UNL     1      -2.630   4.609 -33.314  1.00  0.00     0.106 A 
HETATM   21  C   UNL     1      -3.446   5.406 -34.085  1.00  0.00     0.105 A 
HETATM   22  O   UNL     1      -1.330   5.005 -33.361  1.00  0.00    -0.323 OA
HETATM   23  O   UNL     1      -2.760   6.398 -34.712  1.00  0.00    -0.323 OA
HETATM   24  C   UNL     1      -4.800   5.179 -34.185  1.00  0.00     0.040 A 
HETATM   25  C   UNL     1      -1.417   6.128 -34.263  1.00  0.00     0.352 A 
HETATM   26  C   UNL     1      -5.330   4.105 -33.464  1.00  0.00     0.018 A 
ENDBRANCH  16  18
ENDBRANCH  11  16
TORSDOF 2
ENDMDL
MODEL 2
REMARK VINA RESULT:      -9.3      1.403      2.205
REMARK  2 active torsions:
REMARK  status: ('A' for Active; 'I' for Inactive)
REMARK    1  A    between atoms: C_11  and  C_12 
REMARK    2  A    between atoms: C_12  and  C_13 
ROOT
HETATM    1  C   UNL     1      -5.948  -4.026 -35.120  1.00  0.00     0.051 C 
HETATM    2  C   UNL     1      -5.332  -2.968 -34.237  1.00  0.00    -0.031 A 
HETATM    3  C   UNL     1      -4.166  -3.243 -33.508  1.00  0.00     0.038 A 
HETATM    4  C   UNL     1      -3.477  -4.579 -33.584  1.00  0.00     0.071 C 
HETATM    5  N   UNL     1      -3.560  -2.358 -32.699  1.00  0.00    -0.245 NA
HETATM    6  C   UNL     1      -4.143  -1.151 -32.615  1.00  0.00     0.111 A 
HETATM    7  C   UNL     1      -5.288  -0.720 -33.276  1.00  0.00     0.034 A 
HETATM    8  C   UNL     1      -5.886  -1.658 -34.179  1.00  0.00    -0.039 A 
HETATM    9  C   UNL     1      -7.071  -1.298 -35.041  1.00  0.00     0.050 C 
HETATM   10  S   UNL     1      -3.441   0.036 -31.629  1.00  0.00    -0.063 SA
HETATM   11  C   UNL     1      -4.661   1.177 -31.999  1.00  0.00     0.085 A 
HETATM   12  C   UNL     1      -5.592   0.646 -32.879  1.00  0.00     0.061 A 
HETATM   13  N   UNL     1      -6.662   1.338 -33.338  1.00  0.00    -0.397 N 
HETATM   14  H   UNL     1      -6.865   2.304 -33.097  1.00  0.00     0.156 HD
HETATM   15  H   UNL     1      -7.434   0.893 -33.822  1.00  0.00     0.156 HD
ENDROOT
BRANCH  11  16
HETATM   16  C   UNL     1      -4.541   2.488 -31.382  1.00  0.00     0.201 C 
HETATM   17  O   UNL     1      -4.863   2.723 -30.216  1.00  0.00    -0.286 OA
BRANCH  16  18
HETATM   18  C   UNL     1      -4.007   3.643 -32.160  1.00  0.00     0.018 A 
HETATM   19  C   UNL     1      -2.652   4.001 -32.114  1.00  0.00     0.055 A 
HETATM   20  C   UNL     1      -2.252   5.079 -32.878  1.00  0.00     0.106 A 
HETATM   21  C   UNL     1      -3.132   5.778 -33.673  1.00  0.00     0.105 A 
HETATM   22  O   UNL     1      -0.988   5.576 -32.949  1.00  0.00    -0.323 OA
HETATM   23  O   UNL     1      -2.531   6.798 -34.340  1.00  0.00    -0.323 OA
HETATM   24  C   UNL     1      -4.464   5.440 -33.755  1.00  0.00     0.040 A 
HETATM   25  C   UNL     1      -1.168   6.654 -33.891  1.00  0.00     0.352 A 
HETATM   26  C   UNL     1      -4.903   4.355 -32.991  1.00  0.00     0.018 A 
ENDBRANCH  16  18
ENDBRANCH  11  16
TORSDOF 2
ENDMDL
MODEL 3
REMARK VINA RESULT:      -8.9      4.937      6.669
REMARK  2 active torsions:
REMARK  status: ('A' for Active; 'I' for Inactive)
REMARK    1  A    between atoms: C_11  and  C_12 
REMARK    2  A    between atoms: C_12  and  C_13 
ROOT
HETATM    1  C   UNL     1      -3.375  -2.330 -32.090  1.00  0.00     0.051 C 
HETATM    2  C   UNL     1      -4.510  -1.623 -32.790  1.00  0.00    -0.031 A 
HETATM    3  C   UNL     1      -5.050  -2.144 -33.975  1.00  0.00     0.038 A 
HETATM    4  C   UNL     1      -4.540  -3.422 -34.586  1.00  0.00     0.071 C 
HETATM    5  N   UNL     1      -6.056  -1.573 -34.658  1.00  0.00    -0.245 NA
HETATM    6  C   UNL     1      -6.541  -0.434 -34.135  1.00  0.00     0.111 A 
HETATM    7  C   UNL     1      -6.127   0.203 -32.972  1.00  0.00     0.034 A 
HETATM    8  C   UNL     1      -5.093  -0.452 -32.227  1.00  0.00    -0.039 A 
HETATM    9  C   UNL     1      -4.612   0.068 -30.894  1.00  0.00     0.050 C 
HETATM   10  S   UNL     1      -7.823   0.350 -34.921  1.00  0.00    -0.063 SA
HETATM   11  C   UNL     1      -7.859   1.614 -33.767  1.00  0.00     0.085 A 
HETATM   12  C   UNL     1      -6.898   1.423 -32.786  1.00  0.00     0.061 A 
HETATM   13  N   UNL     1      -6.712   2.276 -31.750  1.00  0.00    -0.397 N 
HETATM   14  H   UNL     1      -7.267   3.111 -31.590  1.00  0.00     0.156 HD
HETATM   15  H   UNL     1      -5.895   2.237 -31.151  1.00  0.00     0.156 HD
ENDROOT
BRANCH  11  16
HETATM   16  C   UNL     1      -8.862   2.649 -33.960  1.00  0.00     0.201 C 
HETATM   17  O   UNL     1      -8.612   3.854 -33.919  1.00  0.00    -0.286 OA
BRANCH  16  18
HETATM   18  C   UNL     1     -10.284   2.283 -34.222  1.00  0.00     0.018 A 
HETATM   19  C   UNL     1     -10.897   1.196 -33.581  1.00  0.00     0.055 A 
HETATM   20  C   UNL     1     -12.220   0.943 -33.881  1.00  0.00     0.106 A 
HETATM   21  C   UNL     1     -12.933   1.726 -34.762  1.00  0.00     0.105 A 
HETATM   22  O   UNL     1     -12.970  -0.070 -33.370  1.00  0.00    -0.323 OA
HETATM   23  O   UNL     1     -14.216   1.303 -34.911  1.00  0.00    -0.323 OA
HETATM   24  C   UNL     1     -12.366   2.811 -35.392  1.00  0.00     0.040 A 
HETATM   25  C   UNL     1     -14.238   0.175 -34.012  1.00  0.00     0.352 A 
HETATM   26  C   UNL     1     -11.026   3.093 -35.113  1.00  0.00     0.018 A 
ENDBRANCH  16  18
ENDBRANCH  11  16
TORSDOF 2
ENDMDL
MODEL 4
REMARK VINA RESULT:      -8.5      2.910      7.523
REMARK  2 active torsions:
REMARK  status: ('A' for Active; 'I' for Inactive)
REMARK    1  A    between atoms: C_11  and  C_12 
REMARK    2  A    between atoms: C_12  and  C_13 
ROOT
HETATM    1  C   UNL     1      -1.180   6.644 -33.909  1.00  0.00     0.051 C 
HETATM    2  C   UNL     1      -1.872   5.496 -33.214  1.00  0.00    -0.031 A 
HETATM    3  C   UNL     1      -1.334   4.946 -32.042  1.00  0.00     0.038 A 
HETATM    4  C   UNL     1      -0.069   5.476 -31.423  1.00  0.00     0.071 C 
HETATM    5  N   UNL     1      -1.887   3.923 -31.369  1.00  0.00    -0.245 NA
HETATM    6  C   UNL     1      -3.024   3.431 -31.889  1.00  0.00     0.111 A 
HETATM    7  C   UNL     1      -3.687   3.868 -33.030  1.00  0.00     0.034 A 
HETATM    8  C   UNL     1      -3.114   4.996 -33.701  1.00  0.00    -0.039 A 
HETATM    9  C   UNL     1      -3.777   5.644 -34.892  1.00  0.00     0.050 C 
HETATM   10  S   UNL     1      -3.803   2.148 -31.100  1.00  0.00    -0.063 SA
HETATM   11  C   UNL     1      -5.047   2.079 -32.273  1.00  0.00     0.085 A 
HETATM   12  C   UNL     1      -4.863   3.041 -33.254  1.00  0.00     0.061 A 
HETATM   13  N   UNL     1      -5.706   3.206 -34.302  1.00  0.00    -0.397 N 
HETATM   14  H   UNL     1      -6.549   2.659 -34.450  1.00  0.00     0.156 HD
HETATM   15  H   UNL     1      -5.469   3.773 -35.109  1.00  0.00     0.156 HD
ENDROOT
BRANCH  11  16
HETATM   16  C   UNL     1      -6.084   1.080 -32.069  1.00  0.00     0.201 C 
HETATM   17  O   UNL     1      -6.982   1.194 -31.234  1.00  0.00    -0.286 OA
BRANCH  16  18
HETATM   18  C   UNL     1      -6.103  -0.167 -32.887  1.00  0.00     0.018 A 
HETATM   19  C   UNL     1      -5.041  -1.081 -32.864  1.00  0.00     0.055 A 
HETATM   20  C   UNL     1      -5.157  -2.212 -33.648  1.00  0.00     0.106 A 
HETATM   21  C   UNL     1      -6.272  -2.457 -34.417  1.00  0.00     0.105 A 
HETATM   22  O   UNL     1      -4.225  -3.197 -33.762  1.00  0.00    -0.323 OA
HETATM   23  O   UNL     1      -6.179  -3.624 -35.107  1.00  0.00    -0.323 OA
HETATM   24  C   UNL     1      -7.340  -1.589 -34.446  1.00  0.00     0.040 A 
HETATM   25  C   UNL     1      -4.887  -4.097 -34.674  1.00  0.00     0.352 A 
HETATM   26  C   UNL     1      -7.253  -0.432 -33.666  1.00  0.00     0.018 A 
ENDBRANCH  16  18
ENDBRANCH  11  16
TORSDOF 2
ENDMDL
MODEL 5
REMARK VINA RESULT:      -8.2      3.247      4.892
REMARK  2 active torsions:
REMARK  status: ('A' for Active; 'I' for Inactive)
REMARK    1  A    between atoms: C_11  and  C_12 
REMARK    2  A    between atoms: C_12  and  C_13 
ROOT
HETATM    1  C   UNL     1      -3.710  -4.319 -33.612  1.00  0.00     0.051 C 
HETATM    2  C   UNL     1      -4.594  -3.126 -33.884  1.00  0.00    -0.031 A 
HETATM    3  C   UNL     1      -5.691  -3.237 -34.751  1.00  0.00     0.038 A 
HETATM    4  C   UNL     1      -6.041  -4.535 -35.428  1.00  0.00     0.071 C 
HETATM    5  N   UNL     1      -6.520  -2.222 -35.046  1.00  0.00    -0.245 NA
HETATM    6  C   UNL     1      -6.242  -1.050 -34.452  1.00  0.00     0.111 A 
HETATM    7  C   UNL     1      -5.206  -0.780 -33.565  1.00  0.00     0.034 A 
HETATM    8  C   UNL     1      -4.368  -1.888 -33.217  1.00  0.00    -0.039 A 
HETATM    9  C   UNL     1      -3.267  -1.771 -32.191  1.00  0.00     0.050 C 
HETATM   10  S   UNL     1      -7.243   0.284 -34.754  1.00  0.00    -0.063 SA
HETATM   11  C   UNL     1      -6.312   1.309 -33.748  1.00  0.00     0.085 A 
HETATM   12  C   UNL     1      -5.248   0.623 -33.182  1.00  0.00     0.061 A 
HETATM   13  N   UNL     1      -4.354   1.197 -32.342  1.00  0.00    -0.397 N 
HETATM   14  H   UNL     1      -4.394   2.166 -32.039  1.00  0.00     0.156 HD
HETATM   15  H   UNL     1      -3.480   0.750 -32.086  1.00  0.00     0.156 HD
ENDROOT
BRANCH  11  16
HETATM   16  C   UNL     1      -6.764   2.685 -33.619  1.00  0.00     0.201 C 
HETATM   17  O   UNL     1      -6.234   3.632 -34.202  1.00  0.00    -0.286 OA
BRANCH  16  18
HETATM   18  C   UNL     1      -7.923   3.021 -32.743  1.00  0.00     0.018 A 
HETATM   19  C   UNL     1      -9.181   3.341 -33.274  1.00  0.00     0.055 A 
HETATM   20  C   UNL     1     -10.195   3.627 -32.382  1.00  0.00     0.106 A 
HETATM   21  C   UNL     1     -10.002   3.590 -31.020  1.00  0.00     0.105 A 
HETATM   22  O   UNL     1     -11.469   3.970 -32.713  1.00  0.00    -0.323 OA
HETATM   23  O   UNL     1     -11.129   3.903 -30.328  1.00  0.00    -0.323 OA
HETATM   24  C   UNL     1      -8.785   3.261 -30.467  1.00  0.00     0.040 A 
HETATM   25  C   UNL     1     -12.061   4.125 -31.406  1.00  0.00     0.352 A 
HETATM   26  C   UNL     1      -7.736   2.968 -31.342  1.00  0.00     0.018 A 
ENDBRANCH  16  18
ENDBRANCH  11  16
TORSDOF 2
ENDMDL
MODEL 6
REMARK VINA RESULT:      -8.2      4.746      8.093
REMARK  2 active torsions:
REMARK  status: ('A' for Active; 'I' for Inactive)
REMARK    1  A    between atoms: C_11  and  C_12 
REMARK    2  A    between atoms: C_12  and  C_13 
ROOT
HETATM    1  C   UNL     1     -12.740   4.833 -35.530  1.00  0.00     0.051 C 
HETATM    2  C   UNL     1     -11.421   4.387 -34.950  1.00  0.00    -0.031 A 
HETATM    3  C   UNL     1     -10.286   5.204 -35.054  1.00  0.00     0.038 A 
HETATM    4  C   UNL     1     -10.335   6.550 -35.725  1.00  0.00     0.071 C 
HETATM    5  N   UNL     1      -9.077   4.877 -34.568  1.00  0.00    -0.245 NA
HETATM    6  C   UNL     1      -9.000   3.685 -33.954  1.00  0.00     0.111 A 
HETATM    7  C   UNL     1     -10.027   2.768 -33.760  1.00  0.00     0.034 A 
HETATM    8  C   UNL     1     -11.320   3.160 -34.233  1.00  0.00    -0.039 A 
HETATM    9  C   UNL     1     -12.549   2.315 -34.003  1.00  0.00     0.050 C 
HETATM   10  S   UNL     1      -7.516   3.193 -33.295  1.00  0.00    -0.063 SA
HETATM   11  C   UNL     1      -8.161   1.702 -32.756  1.00  0.00     0.085 A 
HETATM   12  C   UNL     1      -9.506   1.594 -33.075  1.00  0.00     0.061 A 
HETATM   13  N   UNL     1     -10.262   0.514 -32.762  1.00  0.00    -0.397 N 
HETATM   14  H   UNL     1      -9.919  -0.295 -32.252  1.00  0.00     0.156 HD
HETATM   15  H   UNL     1     -11.181   0.357 -33.159  1.00  0.00     0.156 HD
ENDROOT
BRANCH  11  16
HETATM   16  C   UNL     1      -7.252   0.812 -32.052  1.00  0.00     0.201 C 
HETATM   17  O   UNL     1      -7.027   0.888 -30.843  1.00  0.00    -0.286 OA
BRANCH  16  18
HETATM   18  C   UNL     1      -6.527  -0.264 -32.787  1.00  0.00     0.018 A 
HETATM   19  C   UNL     1      -7.210  -1.258 -33.503  1.00  0.00     0.055 A 
HETATM   20  C   UNL     1      -6.450  -2.204 -34.161  1.00  0.00     0.106 A 
HETATM   21  C   UNL     1      -5.074  -2.181 -34.139  1.00  0.00     0.105 A 
HETATM   22  O   UNL     1      -6.936  -3.245 -34.890  1.00  0.00    -0.323 OA
HETATM   23  O   UNL     1      -4.527  -3.202 -34.850  1.00  0.00    -0.323 OA
HETATM   24  C   UNL     1      -4.374  -1.208 -33.461  1.00  0.00     0.040 A 
HETATM   25  C   UNL     1      -5.712  -3.862 -35.339  1.00  0.00     0.352 A 
HETATM   26  C   UNL     1      -5.113  -0.236 -32.782  1.00  0.00     0.018 A 
ENDBRANCH  16  18
ENDBRANCH  11  16
TORSDOF 2
ENDMDL
MODEL 7
REMARK VINA RESULT:      -8.1      1.932      3.047
REMARK  2 active torsions:
REMARK  status: ('A' for Active; 'I' for Inactive)
REMARK    1  A    between atoms: C_11  and  C_12 
REMARK    2  A    between atoms: C_12  and  C_13 
ROOT
HETATM    1  C   UNL     1      -3.963  -5.295 -33.781  1.00  0.00     0.051 C 
HETATM    2  C   UNL     1      -4.374  -3.845 -33.715  1.00  0.00    -0.031 A 
HETATM    3  C   UNL     1      -5.400  -3.359 -34.538  1.00  0.00     0.038 A 
HETATM    4  C   UNL     1      -6.139  -4.251 -35.499  1.00  0.00     0.071 C 
HETATM    5  N   UNL     1      -5.821  -2.083 -34.541  1.00  0.00    -0.245 NA
HETATM    6  C   UNL     1      -5.189  -1.260 -33.688  1.00  0.00     0.111 A 
HETATM    7  C   UNL     1      -4.166  -1.585 -32.805  1.00  0.00     0.034 A 
HETATM    8  C   UNL     1      -3.772  -2.961 -32.774  1.00  0.00    -0.039 A 
HETATM    9  C   UNL     1      -2.748  -3.482 -31.795  1.00  0.00     0.050 C 
HETATM   10  S   UNL     1      -5.662   0.367 -33.612  1.00  0.00    -0.063 SA
HETATM   11  C   UNL     1      -4.487   0.733 -32.423  1.00  0.00     0.085 A 
HETATM   12  C   UNL     1      -3.748  -0.391 -32.086  1.00  0.00     0.061 A 
HETATM   13  N   UNL     1      -2.752  -0.380 -31.168  1.00  0.00    -0.397 N 
HETATM   14  H   UNL     1      -2.476   0.439 -30.634  1.00  0.00     0.156 HD
HETATM   15  H   UNL     1      -2.096  -1.146 -31.065  1.00  0.00     0.156 HD
ENDROOT
BRANCH  11  16
HETATM   16  C   UNL     1      -4.449   2.105 -31.940  1.00  0.00     0.201 C 
HETATM   17  O   UNL     1      -3.592   2.529 -31.164  1.00  0.00    -0.286 OA
BRANCH  16  18
HETATM   18  C   UNL     1      -5.481   3.088 -32.378  1.00  0.00     0.018 A 
HETATM   19  C   UNL     1      -6.727   3.183 -31.742  1.00  0.00     0.055 A 
HETATM   20  C   UNL     1      -7.612   4.132 -32.212  1.00  0.00     0.106 A 
HETATM   21  C   UNL     1      -7.296   4.973 -33.255  1.00  0.00     0.105 A 
HETATM   22  O   UNL     1      -8.864   4.358 -31.730  1.00  0.00    -0.323 OA
HETATM   23  O   UNL     1      -8.308   5.830 -33.556  1.00  0.00    -0.323 OA
HETATM   24  C   UNL     1      -6.074   4.919 -33.888  1.00  0.00     0.040 A 
HETATM   25  C   UNL     1      -9.292   5.447 -32.574  1.00  0.00     0.352 A 
HETATM   26  C   UNL     1      -5.156   3.966 -33.438  1.00  0.00     0.018 A 
ENDBRANCH  16  18
ENDBRANCH  11  16
TORSDOF 2
ENDMDL
MODEL 8
REMARK VINA RESULT:      -8.1      2.496      3.823
REMARK  2 active torsions:
REMARK  status: ('A' for Active; 'I' for Inactive)
REMARK    1  A    between atoms: C_11  and  C_12 
REMARK    2  A    between atoms: C_12  and  C_13 
ROOT
HETATM    1  C   UNL     1      -6.063  -4.006 -35.203  1.00  0.00     0.051 C 
HETATM    2  C   UNL     1      -5.320  -3.040 -34.313  1.00  0.00    -0.031 A 
HETATM    3  C   UNL     1      -4.203  -3.465 -33.579  1.00  0.00     0.038 A 
HETATM    4  C   UNL     1      -3.692  -4.878 -33.656  1.00  0.00     0.071 C 
HETATM    5  N   UNL     1      -3.493  -2.668 -32.764  1.00  0.00    -0.245 NA
HETATM    6  C   UNL     1      -3.916  -1.396 -32.679  1.00  0.00     0.111 A 
HETATM    7  C   UNL     1      -4.992  -0.819 -33.344  1.00  0.00     0.034 A 
HETATM    8  C   UNL     1      -5.701  -1.669 -34.253  1.00  0.00    -0.039 A 
HETATM    9  C   UNL     1      -6.825  -1.156 -35.120  1.00  0.00     0.050 C 
HETATM   10  S   UNL     1      -3.072  -0.313 -31.685  1.00  0.00    -0.063 SA
HETATM   11  C   UNL     1      -4.133   0.977 -32.057  1.00  0.00     0.085 A 
HETATM   12  C   UNL     1      -5.119   0.574 -32.944  1.00  0.00     0.061 A 
HETATM   13  N   UNL     1      -6.089   1.400 -33.406  1.00  0.00    -0.397 N 
HETATM   14  H   UNL     1      -6.166   2.383 -33.162  1.00  0.00     0.156 HD
HETATM   15  H   UNL     1      -6.908   1.059 -33.895  1.00  0.00     0.156 HD
ENDROOT
BRANCH  11  16
HETATM   16  C   UNL     1      -3.847   2.261 -31.435  1.00  0.00     0.201 C 
HETATM   17  O   UNL     1      -2.706   2.670 -31.214  1.00  0.00    -0.286 OA
BRANCH  16  18
HETATM   18  C   UNL     1      -4.959   3.164 -31.021  1.00  0.00     0.018 A 
HETATM   19  C   UNL     1      -5.128   4.435 -31.589  1.00  0.00     0.055 A 
HETATM   20  C   UNL     1      -6.194   5.193 -31.148  1.00  0.00     0.106 A 
HETATM   21  C   UNL     1      -7.077   4.730 -30.199  1.00  0.00     0.105 A 
HETATM   22  O   UNL     1      -6.504   6.448 -31.573  1.00  0.00    -0.323 OA
HETATM   23  O   UNL     1      -8.051   5.634 -29.912  1.00  0.00    -0.323 OA
HETATM   24  C   UNL     1      -6.951   3.480 -29.637  1.00  0.00     0.040 A 
HETATM   25  C   UNL     1      -7.693   6.714 -30.799  1.00  0.00     0.352 A 
HETATM   26  C   UNL     1      -5.880   2.687 -30.059  1.00  0.00     0.018 A 
ENDBRANCH  16  18
ENDBRANCH  11  16
TORSDOF 2
ENDMDL
MODEL 9
REMARK VINA RESULT:      -8.1      3.514      5.479
REMARK  2 active torsions:
REMARK  status: ('A' for Active; 'I' for Inactive)
REMARK    1  A    between atoms: C_11  and  C_12 
REMARK    2  A    between atoms: C_12  and  C_13 
ROOT
HETATM    1  C   UNL     1      -3.849  -4.777 -33.735  1.00  0.00     0.051 C 
HETATM    2  C   UNL     1      -4.126  -3.330 -33.410  1.00  0.00    -0.031 A 
HETATM    3  C   UNL     1      -3.481  -2.707 -32.333  1.00  0.00     0.038 A 
HETATM    4  C   UNL     1      -2.484  -3.437 -31.473  1.00  0.00     0.071 C 
HETATM    5  N   UNL     1      -3.677  -1.426 -31.978  1.00  0.00    -0.245 NA
HETATM    6  C   UNL     1      -4.554  -0.741 -32.730  1.00  0.00     0.111 A 
HETATM    7  C   UNL     1      -5.265  -1.207 -33.831  1.00  0.00     0.034 A 
HETATM    8  C   UNL     1      -4.998  -2.556 -34.229  1.00  0.00    -0.039 A 
HETATM    9  C   UNL     1      -5.618  -3.166 -35.463  1.00  0.00     0.050 C 
HETATM   10  S   UNL     1      -4.855   0.887 -32.367  1.00  0.00    -0.063 SA
HETATM   11  C   UNL     1      -5.991   1.042 -33.637  1.00  0.00     0.085 A 
HETATM   12  C   UNL     1      -6.126  -0.148 -34.335  1.00  0.00     0.061 A 
HETATM   13  N   UNL     1      -6.960  -0.302 -35.391  1.00  0.00    -0.397 N 
HETATM   14  H   UNL     1      -7.539   0.439 -35.775  1.00  0.00     0.156 HD
HETATM   15  H   UNL     1      -7.197  -1.211 -35.773  1.00  0.00     0.156 HD
ENDROOT
BRANCH  11  16
HETATM   16  C   UNL     1      -6.607   2.348 -33.808  1.00  0.00     0.201 C 
HETATM   17  O   UNL     1      -6.014   3.324 -34.271  1.00  0.00    -0.286 OA
BRANCH  16  18
HETATM   18  C   UNL     1      -8.029   2.570 -33.417  1.00  0.00     0.018 A 
HETATM   19  C   UNL     1      -9.092   2.045 -34.166  1.00  0.00     0.055 A 
HETATM   20  C   UNL     1     -10.373   2.296 -33.716  1.00  0.00     0.106 A 
HETATM   21  C   UNL     1     -10.617   3.019 -32.570  1.00  0.00     0.105 A 
HETATM   22  O   UNL     1     -11.520   1.881 -34.318  1.00  0.00    -0.323 OA
HETATM   23  O   UNL     1     -11.945   3.145 -32.310  1.00  0.00    -0.323 OA
HETATM   24  C   UNL     1      -9.596   3.531 -31.802  1.00  0.00     0.040 A 
HETATM   25  C   UNL     1     -12.512   2.407 -33.412  1.00  0.00     0.352 A 
HETATM   26  C   UNL     1      -8.286   3.297 -32.231  1.00  0.00     0.018 A 
ENDBRANCH  16  18
ENDBRANCH  11  16
TORSDOF 2
ENDMDL
MODEL 10
REMARK VINA RESULT:      -8.1      5.562      7.617
REMARK  2 active torsions:
REMARK  status: ('A' for Active; 'I' for Inactive)
REMARK    1  A    between atoms: C_11  and  C_12 
REMARK    2  A    between atoms: C_12  and  C_13 
ROOT
HETATM    1  C   UNL     1      -4.124  -1.879 -32.913  1.00  0.00     0.051 C 
HETATM    2  C   UNL     1      -5.070  -0.707 -32.814  1.00  0.00    -0.031 A 
HETATM    3  C   UNL     1      -4.902   0.259 -31.812  1.00  0.00     0.038 A 
HETATM    4  C   UNL     1      -3.779   0.182 -30.813  1.00  0.00     0.071 C 
HETATM    5  N   UNL     1      -5.703   1.327 -31.656  1.00  0.00    -0.245 NA
HETATM    6  C   UNL     1      -6.712   1.431 -32.537  1.00  0.00     0.111 A 
HETATM    7  C   UNL     1      -7.007   0.570 -33.587  1.00  0.00     0.034 A 
HETATM    8  C   UNL     1      -6.108  -0.530 -33.773  1.00  0.00    -0.039 A 
HETATM    9  C   UNL     1      -6.241  -1.489 -34.931  1.00  0.00     0.050 C 
HETATM   10  S   UNL     1      -7.766   2.755 -32.427  1.00  0.00    -0.063 SA
HETATM   11  C   UNL     1      -8.704   2.217 -33.754  1.00  0.00     0.085 A 
HETATM   12  C   UNL     1      -8.200   1.036 -34.277  1.00  0.00     0.061 A 
HETATM   13  N   UNL     1      -8.752   0.394 -35.334  1.00  0.00    -0.397 N 
HETATM   14  H   UNL     1      -9.563   0.729 -35.846  1.00  0.00     0.156 HD
HETATM   15  H   UNL     1      -8.501  -0.554 -35.589  1.00  0.00     0.156 HD
ENDROOT
BRANCH  11  16
HETATM   16  C   UNL     1      -9.830   3.052 -34.140  1.00  0.00     0.201 C 
HETATM   17  O   UNL     1      -9.707   4.152 -34.680  1.00  0.00    -0.286 OA
BRANCH  16  18
HETATM   18  C   UNL     1     -11.228   2.598 -33.888  1.00  0.00     0.018 A 
HETATM   19  C   UNL     1     -12.003   3.133 -32.848  1.00  0.00     0.055 A 
HETATM   20  C   UNL     1     -13.289   2.655 -32.702  1.00  0.00     0.106 A 
HETATM   21  C   UNL     1     -13.816   1.702 -33.544  1.00  0.00     0.105 A 
HETATM   22  O   UNL     1     -14.176   3.045 -31.747  1.00  0.00    -0.323 OA
HETATM   23  O   UNL     1     -15.096   1.376 -33.224  1.00  0.00    -0.323 OA
HETATM   24  C   UNL     1     -13.088   1.171 -34.586  1.00  0.00     0.040 A 
HETATM   25  C   UNL     1     -15.325   2.244 -32.095  1.00  0.00     0.352 A 
HETATM   26  C   UNL     1     -11.780   1.630 -34.760  1.00  0.00     0.018 A 
ENDBRANCH  16  18
ENDBRANCH  11  16
TORSDOF 2
ENDMDL
