MODEL 1
REMARK VINA RESULT:      -8.2      0.000      0.000
REMARK  2 active torsions:
REMARK  status: ('A' for Active; 'I' for Inactive)
REMARK    1  A    between atoms: C_8  and  N_9 
REMARK    2  A    between atoms: N_9  and  C_10 
ROOT
HETATM    1  N   UNL     1      -5.123   2.392 -32.368  1.00  0.00    -0.340 N 
HETATM    2  H   UNL     1      -5.288   2.305 -31.379  1.00  0.00     0.167 HD
ENDROOT
BRANCH   1   3
HETATM    3  C   UNL     1      -6.029   1.659 -33.153  1.00  0.00     0.143 A 
HETATM    4  C   UNL     1      -5.797   0.304 -33.515  1.00  0.00     0.053 A 
HETATM    5  C   UNL     1      -4.678  -0.620 -33.337  1.00  0.00    -0.032 A 
HETATM    6  C   UNL     1      -6.829  -0.315 -34.207  1.00  0.00     0.114 A 
HETATM    7  C   UNL     1      -3.368  -0.271 -32.701  1.00  0.00     0.050 C 
HETATM    8  C   UNL     1      -4.970  -1.880 -33.847  1.00  0.00    -0.012 A 
HETATM    9  S   UNL     1      -6.512  -1.941 -34.571  1.00  0.00    -0.074 SA
HETATM   10  C   UNL     1      -4.116  -3.108 -33.846  1.00  0.00     0.057 C 
HETATM   11  N   UNL     1      -7.995   0.234 -34.584  1.00  0.00    -0.234 NA
HETATM   12  C   UNL     1      -8.095   1.509 -34.221  1.00  0.00     0.236 A 
HETATM   13  N   UNL     1      -7.196   2.229 -33.542  1.00  0.00    -0.223 NA
ENDBRANCH   1   3
BRANCH   1  14
HETATM   14  C   UNL     1      -4.193   3.392 -32.707  1.00  0.00     0.036 A 
HETATM   15  C   UNL     1      -3.001   3.483 -31.971  1.00  0.00     0.069 A 
HETATM   16  C   UNL     1      -2.063   4.486 -32.234  1.00  0.00     0.104 A 
HETATM   17  C   UNL     1      -2.285   5.394 -33.268  1.00  0.00     0.102 A 
HETATM   18  O   UNL     1      -0.910   4.455 -31.498  1.00  0.00    -0.348 OA
HETATM   19  O   UNL     1      -1.369   6.334 -33.649  1.00  0.00    -0.348 OA
HETATM   20  C   UNL     1      -3.444   5.296 -34.032  1.00  0.00     0.042 A 
HETATM   21  C   UNL     1      -1.116   7.287 -32.617  1.00  0.00     0.178 C 
HETATM   22  C   UNL     1      -0.116   6.768 -31.596  1.00  0.00     0.053 C 
HETATM   23  C   UNL     1      -0.719   5.657 -30.751  1.00  0.00     0.178 C 
HETATM   24  C   UNL     1      -4.397   4.314 -33.740  1.00  0.00     0.032 A 
ENDBRANCH   1  14
TORSDOF 2
ENDMDL
MODEL 2
REMARK VINA RESULT:      -8.1      4.424      7.445
REMARK  2 active torsions:
REMARK  status: ('A' for Active; 'I' for Inactive)
REMARK    1  A    between atoms: C_8  and  N_9 
REMARK    2  A    between atoms: N_9  and  C_10 
ROOT
HETATM    1  N   UNL     1      -6.358   0.955 -32.324  1.00  0.00    -0.340 N 
HETATM    2  H   UNL     1      -6.410   1.010 -31.319  1.00  0.00     0.167 HD
ENDROOT
BRANCH   1   3
HETATM    3  C   UNL     1      -6.737   2.144 -32.969  1.00  0.00     0.143 A 
HETATM    4  C   UNL     1      -8.097   2.469 -33.226  1.00  0.00     0.053 A 
HETATM    5  C   UNL     1      -9.363   1.759 -33.052  1.00  0.00    -0.032 A 
HETATM    6  C   UNL     1      -8.317   3.722 -33.780  1.00  0.00     0.114 A 
HETATM    7  C   UNL     1      -9.499   0.354 -32.551  1.00  0.00     0.050 C 
HETATM    8  C   UNL     1     -10.446   2.547 -33.425  1.00  0.00    -0.012 A 
HETATM    9  S   UNL     1      -9.961   4.068 -34.022  1.00  0.00    -0.074 SA
HETATM   10  C   UNL     1     -11.902   2.213 -33.380  1.00  0.00     0.057 C 
HETATM   11  N   UNL     1      -7.391   4.635 -34.115  1.00  0.00    -0.234 NA
HETATM   12  C   UNL     1      -6.155   4.217 -33.860  1.00  0.00     0.236 A 
HETATM   13  N   UNL     1      -5.791   3.051 -33.317  1.00  0.00    -0.223 NA
ENDBRANCH   1   3
BRANCH   1  14
HETATM   14  C   UNL     1      -5.706  -0.197 -32.800  1.00  0.00     0.036 A 
HETATM   15  C   UNL     1      -6.333  -0.966 -33.793  1.00  0.00     0.069 A 
HETATM   16  C   UNL     1      -5.752  -2.145 -34.269  1.00  0.00     0.104 A 
HETATM   17  C   UNL     1      -4.510  -2.555 -33.787  1.00  0.00     0.102 A 
HETATM   18  O   UNL     1      -6.416  -2.793 -35.275  1.00  0.00    -0.348 OA
HETATM   19  O   UNL     1      -3.835  -3.637 -34.278  1.00  0.00    -0.348 OA
HETATM   20  C   UNL     1      -3.856  -1.785 -32.830  1.00  0.00     0.042 A 
HETATM   21  C   UNL     1      -4.536  -4.858 -34.044  1.00  0.00     0.178 C 
HETATM   22  C   UNL     1      -5.620  -5.099 -35.083  1.00  0.00     0.053 C 
HETATM   23  C   UNL     1      -6.775  -4.126 -34.908  1.00  0.00     0.178 C 
HETATM   24  C   UNL     1      -4.460  -0.626 -32.328  1.00  0.00     0.032 A 
ENDBRANCH   1  14
TORSDOF 2
ENDMDL
MODEL 3
REMARK VINA RESULT:      -8.1      3.573      7.276
REMARK  2 active torsions:
REMARK  status: ('A' for Active; 'I' for Inactive)
REMARK    1  A    between atoms: C_8  and  N_9 
REMARK    2  A    between atoms: N_9  and  C_10 
ROOT
HETATM    1  N   UNL     1      -5.887   1.013 -32.040  1.00  0.00    -0.340 N 
HETATM    2  H   UNL     1      -5.902   1.055 -31.033  1.00  0.00     0.167 HD
ENDROOT
BRANCH   1   3
HETATM    3  C   UNL     1      -6.176   2.243 -32.654  1.00  0.00     0.143 A 
HETATM    4  C   UNL     1      -5.206   3.273 -32.786  1.00  0.00     0.053 A 
HETATM    5  C   UNL     1      -3.834   3.446 -32.311  1.00  0.00    -0.032 A 
HETATM    6  C   UNL     1      -5.613   4.389 -33.504  1.00  0.00     0.114 A 
HETATM    7  C   UNL     1      -3.096   2.475 -31.442  1.00  0.00     0.050 C 
HETATM    8  C   UNL     1      -3.286   4.643 -32.757  1.00  0.00    -0.012 A 
HETATM    9  S   UNL     1      -4.398   5.563 -33.665  1.00  0.00    -0.074 SA
HETATM   10  C   UNL     1      -1.914   5.187 -32.520  1.00  0.00     0.057 C 
HETATM   11  N   UNL     1      -6.818   4.602 -34.057  1.00  0.00    -0.234 NA
HETATM   12  C   UNL     1      -7.655   3.591 -33.848  1.00  0.00     0.236 A 
HETATM   13  N   UNL     1      -7.402   2.452 -33.194  1.00  0.00    -0.223 NA
ENDBRANCH   1   3
BRANCH   1  14
HETATM   14  C   UNL     1      -5.358  -0.185 -32.554  1.00  0.00     0.036 A 
HETATM   15  C   UNL     1      -6.028  -0.819 -33.612  1.00  0.00     0.069 A 
HETATM   16  C   UNL     1      -5.573  -2.034 -34.131  1.00  0.00     0.104 A 
HETATM   17  C   UNL     1      -4.412  -2.618 -33.626  1.00  0.00     0.102 A 
HETATM   18  O   UNL     1      -6.264  -2.544 -35.197  1.00  0.00    -0.348 OA
HETATM   19  O   UNL     1      -3.851  -3.748 -34.150  1.00  0.00    -0.348 OA
HETATM   20  C   UNL     1      -3.714  -1.984 -32.602  1.00  0.00     0.042 A 
HETATM   21  C   UNL     1      -4.704  -4.884 -34.013  1.00  0.00     0.178 C 
HETATM   22  C   UNL     1      -5.762  -4.937 -35.105  1.00  0.00     0.053 C 
HETATM   23  C   UNL     1      -6.798  -3.839 -34.920  1.00  0.00     0.178 C 
HETATM   24  C   UNL     1      -4.195  -0.787 -32.060  1.00  0.00     0.032 A 
ENDBRANCH   1  14
TORSDOF 2
ENDMDL
MODEL 4
REMARK VINA RESULT:      -8.1      4.637      7.251
REMARK  2 active torsions:
REMARK  status: ('A' for Active; 'I' for Inactive)
REMARK    1  A    between atoms: C_8  and  N_9 
REMARK    2  A    between atoms: N_9  and  C_10 
ROOT
HETATM    1  N   UNL     1      -6.811   0.967 -33.764  1.00  0.00    -0.340 N 
HETATM    2  H   UNL     1      -6.416   1.430 -34.566  1.00  0.00     0.167 HD
ENDROOT
BRANCH   1   3
HETATM    3  C   UNL     1      -5.856   0.611 -32.797  1.00  0.00     0.143 A 
HETATM    4  C   UNL     1      -5.129  -0.609 -32.861  1.00  0.00     0.053 A 
HETATM    5  C   UNL     1      -5.185  -1.783 -33.730  1.00  0.00    -0.032 A 
HETATM    6  C   UNL     1      -4.150  -0.773 -31.889  1.00  0.00     0.114 A 
HETATM    7  C   UNL     1      -6.171  -1.985 -34.839  1.00  0.00     0.050 C 
HETATM    8  C   UNL     1      -4.207  -2.713 -33.396  1.00  0.00    -0.012 A 
HETATM    9  S   UNL     1      -3.289  -2.227 -32.044  1.00  0.00    -0.074 SA
HETATM   10  C   UNL     1      -3.908  -4.027 -34.045  1.00  0.00     0.057 C 
HETATM   11  N   UNL     1      -3.841   0.079 -30.899  1.00  0.00    -0.234 NA
HETATM   12  C   UNL     1      -4.599   1.170 -30.916  1.00  0.00     0.236 A 
HETATM   13  N   UNL     1      -5.563   1.473 -31.792  1.00  0.00    -0.223 NA
ENDBRANCH   1   3
BRANCH   1  14
HETATM   14  C   UNL     1      -8.216   1.008 -33.715  1.00  0.00     0.036 A 
HETATM   15  C   UNL     1      -8.884   2.054 -34.372  1.00  0.00     0.069 A 
HETATM   16  C   UNL     1     -10.276   2.171 -34.318  1.00  0.00     0.104 A 
HETATM   17  C   UNL     1     -11.030   1.216 -33.637  1.00  0.00     0.102 A 
HETATM   18  O   UNL     1     -10.834   3.194 -35.035  1.00  0.00    -0.348 OA
HETATM   19  O   UNL     1     -12.396   1.206 -33.627  1.00  0.00    -0.348 OA
HETATM   20  C   UNL     1     -10.387   0.151 -33.012  1.00  0.00     0.042 A 
HETATM   21  C   UNL     1     -12.937   2.361 -32.986  1.00  0.00     0.178 C 
HETATM   22  C   UNL     1     -12.980   3.562 -33.917  1.00  0.00     0.053 C 
HETATM   23  C   UNL     1     -11.581   4.084 -34.206  1.00  0.00     0.178 C 
HETATM   24  C   UNL     1      -8.991   0.061 -33.037  1.00  0.00     0.032 A 
ENDBRANCH   1  14
TORSDOF 2
ENDMDL
MODEL 5
REMARK VINA RESULT:      -8.0      4.731      6.353
REMARK  2 active torsions:
REMARK  status: ('A' for Active; 'I' for Inactive)
REMARK    1  A    between atoms: C_8  and  N_9 
REMARK    2  A    between atoms: N_9  and  C_10 
ROOT
HETATM    1  N   UNL     1      -5.779   1.014 -33.032  1.00  0.00    -0.340 N 
HETATM    2  H   UNL     1      -5.520   1.522 -33.863  1.00  0.00     0.167 HD
ENDROOT
BRANCH   1   3
HETATM    3  C   UNL     1      -4.873  -0.006 -32.697  1.00  0.00     0.143 A 
HETATM    4  C   UNL     1      -4.935  -1.300 -33.285  1.00  0.00     0.053 A 
HETATM    5  C   UNL     1      -5.867  -1.959 -34.198  1.00  0.00    -0.032 A 
HETATM    6  C   UNL     1      -3.912  -2.168 -32.927  1.00  0.00     0.114 A 
HETATM    7  C   UNL     1      -7.127  -1.349 -34.729  1.00  0.00     0.050 C 
HETATM    8  C   UNL     1      -5.448  -3.247 -34.513  1.00  0.00    -0.012 A 
HETATM    9  S   UNL     1      -4.016  -3.678 -33.694  1.00  0.00    -0.074 SA
HETATM   10  C   UNL     1      -6.095  -4.242 -35.422  1.00  0.00     0.057 C 
HETATM   11  N   UNL     1      -2.901  -1.923 -32.079  1.00  0.00    -0.234 NA
HETATM   12  C   UNL     1      -2.956  -0.698 -31.567  1.00  0.00     0.236 A 
HETATM   13  N   UNL     1      -3.865   0.248 -31.827  1.00  0.00    -0.223 NA
ENDBRANCH   1   3
BRANCH   1  14
HETATM   14  C   UNL     1      -6.831   1.602 -32.307  1.00  0.00     0.036 A 
HETATM   15  C   UNL     1      -8.132   1.535 -32.832  1.00  0.00     0.069 A 
HETATM   16  C   UNL     1      -9.208   2.141 -32.177  1.00  0.00     0.104 A 
HETATM   17  C   UNL     1      -9.007   2.792 -30.960  1.00  0.00     0.102 A 
HETATM   18  O   UNL     1     -10.443   1.973 -32.741  1.00  0.00    -0.348 OA
HETATM   19  O   UNL     1     -10.024   3.317 -30.213  1.00  0.00    -0.348 OA
HETATM   20  C   UNL     1      -7.731   2.835 -30.407  1.00  0.00     0.042 A 
HETATM   21  C   UNL     1     -10.688   4.385 -30.887  1.00  0.00     0.178 C 
HETATM   22  C   UNL     1     -11.720   3.876 -31.882  1.00  0.00     0.053 C 
HETATM   23  C   UNL     1     -11.051   3.220 -33.080  1.00  0.00     0.178 C 
HETATM   24  C   UNL     1      -6.650   2.260 -31.086  1.00  0.00     0.032 A 
ENDBRANCH   1  14
TORSDOF 2
ENDMDL
MODEL 6
REMARK VINA RESULT:      -8.0      1.338      2.205
REMARK  2 active torsions:
REMARK  status: ('A' for Active; 'I' for Inactive)
REMARK    1  A    between atoms: C_8  and  N_9 
REMARK    2  A    between atoms: N_9  and  C_10 
ROOT
HETATM    1  N   UNL     1      -5.668   1.240 -32.170  1.00  0.00    -0.340 N 
HETATM    2  H   UNL     1      -6.158   1.112 -31.300  1.00  0.00     0.167 HD
ENDROOT
BRANCH   1   3
HETATM    3  C   UNL     1      -6.226   0.516 -33.237  1.00  0.00     0.143 A 
HETATM    4  C   UNL     1      -5.752  -0.770 -33.613  1.00  0.00     0.053 A 
HETATM    5  C   UNL     1      -4.634  -1.609 -33.183  1.00  0.00    -0.032 A 
HETATM    6  C   UNL     1      -6.469  -1.400 -34.621  1.00  0.00     0.114 A 
HETATM    7  C   UNL     1      -3.607  -1.216 -32.167  1.00  0.00     0.050 C 
HETATM    8  C   UNL     1      -4.628  -2.830 -33.846  1.00  0.00    -0.012 A 
HETATM    9  S   UNL     1      -5.883  -2.948 -34.994  1.00  0.00    -0.074 SA
HETATM   10  C   UNL     1      -3.678  -3.975 -33.684  1.00  0.00     0.057 C 
HETATM   11  N   UNL     1      -7.533  -0.917 -35.282  1.00  0.00    -0.234 NA
HETATM   12  C   UNL     1      -7.872   0.301 -34.872  1.00  0.00     0.236 A 
HETATM   13  N   UNL     1      -7.290   1.022 -33.909  1.00  0.00    -0.223 NA
ENDBRANCH   1   3
BRANCH   1  14
HETATM   14  C   UNL     1      -4.714   2.273 -32.143  1.00  0.00     0.036 A 
HETATM   15  C   UNL     1      -4.860   3.351 -33.030  1.00  0.00     0.069 A 
HETATM   16  C   UNL     1      -3.918   4.383 -33.078  1.00  0.00     0.104 A 
HETATM   17  C   UNL     1      -2.830   4.374 -32.206  1.00  0.00     0.102 A 
HETATM   18  O   UNL     1      -4.180   5.414 -33.938  1.00  0.00    -0.348 OA
HETATM   19  O   UNL     1      -1.926   5.395 -32.124  1.00  0.00    -0.348 OA
HETATM   20  C   UNL     1      -2.688   3.332 -31.294  1.00  0.00     0.042 A 
HETATM   21  C   UNL     1      -1.191   5.562 -33.336  1.00  0.00     0.178 C 
HETATM   22  C   UNL     1      -1.967   6.369 -34.366  1.00  0.00     0.053 C 
HETATM   23  C   UNL     1      -3.146   5.576 -34.910  1.00  0.00     0.178 C 
HETATM   24  C   UNL     1      -3.614   2.283 -31.277  1.00  0.00     0.032 A 
ENDBRANCH   1  14
TORSDOF 2
ENDMDL
MODEL 7
REMARK VINA RESULT:      -7.9      5.141      7.372
REMARK  2 active torsions:
REMARK  status: ('A' for Active; 'I' for Inactive)
REMARK    1  A    between atoms: C_8  and  N_9 
REMARK    2  A    between atoms: N_9  and  C_10 
ROOT
HETATM    1  N   UNL     1      -9.887   1.114 -34.484  1.00  0.00    -0.340 N 
HETATM    2  H   UNL     1     -10.613   0.477 -34.771  1.00  0.00     0.167 HD
ENDROOT
BRANCH   1   3
HETATM    3  C   UNL     1     -10.363   2.398 -34.172  1.00  0.00     0.143 A 
HETATM    4  C   UNL     1     -11.672   2.620 -33.661  1.00  0.00     0.053 A 
HETATM    5  C   UNL     1     -12.832   1.762 -33.429  1.00  0.00    -0.032 A 
HETATM    6  C   UNL     1     -11.960   3.931 -33.307  1.00  0.00     0.114 A 
HETATM    7  C   UNL     1     -12.906   0.305 -33.766  1.00  0.00     0.050 C 
HETATM    8  C   UNL     1     -13.884   2.470 -32.859  1.00  0.00    -0.012 A 
HETATM    9  S   UNL     1     -13.519   4.124 -32.664  1.00  0.00    -0.074 SA
HETATM   10  C   UNL     1     -15.231   1.968 -32.444  1.00  0.00     0.057 C 
HETATM   11  N   UNL     1     -11.152   4.997 -33.418  1.00  0.00    -0.234 NA
HETATM   12  C   UNL     1      -9.968   4.683 -33.933  1.00  0.00     0.236 A 
HETATM   13  N   UNL     1      -9.543   3.470 -34.304  1.00  0.00    -0.223 NA
ENDBRANCH   1   3
BRANCH   1  14
HETATM   14  C   UNL     1      -8.645   0.497 -34.248  1.00  0.00     0.036 A 
HETATM   15  C   UNL     1      -8.182   0.395 -32.927  1.00  0.00     0.069 A 
HETATM   16  C   UNL     1      -6.935  -0.167 -32.639  1.00  0.00     0.104 A 
HETATM   17  C   UNL     1      -6.145  -0.675 -33.668  1.00  0.00     0.102 A 
HETATM   18  O   UNL     1      -6.599  -0.269 -31.316  1.00  0.00    -0.348 OA
HETATM   19  O   UNL     1      -4.964  -1.330 -33.455  1.00  0.00    -0.348 OA
HETATM   20  C   UNL     1      -6.604  -0.617 -34.981  1.00  0.00     0.042 A 
HETATM   21  C   UNL     1      -3.979  -0.481 -32.866  1.00  0.00     0.178 C 
HETATM   22  C   UNL     1      -4.154  -0.364 -31.360  1.00  0.00     0.053 C 
HETATM   23  C   UNL     1      -5.397   0.440 -31.012  1.00  0.00     0.178 C 
HETATM   24  C   UNL     1      -7.836  -0.018 -35.267  1.00  0.00     0.032 A 
ENDBRANCH   1  14
TORSDOF 2
ENDMDL
MODEL 8
REMARK VINA RESULT:      -7.8      1.658      1.886
REMARK  2 active torsions:
REMARK  status: ('A' for Active; 'I' for Inactive)
REMARK    1  A    between atoms: C_8  and  N_9 
REMARK    2  A    between atoms: N_9  and  C_10 
ROOT
HETATM    1  N   UNL     1      -5.117   2.529 -32.016  1.00  0.00    -0.340 N 
HETATM    2  H   UNL     1      -5.758   2.596 -31.242  1.00  0.00     0.167 HD
ENDROOT
BRANCH   1   3
HETATM    3  C   UNL     1      -5.517   1.603 -32.993  1.00  0.00     0.143 A 
HETATM    4  C   UNL     1      -5.045   0.262 -33.007  1.00  0.00     0.053 A 
HETATM    5  C   UNL     1      -4.057  -0.478 -32.223  1.00  0.00    -0.032 A 
HETATM    6  C   UNL     1      -5.608  -0.560 -33.975  1.00  0.00     0.114 A 
HETATM    7  C   UNL     1      -3.202   0.110 -31.144  1.00  0.00     0.050 C 
HETATM    8  C   UNL     1      -3.993  -1.811 -32.609  1.00  0.00    -0.012 A 
HETATM    9  S   UNL     1      -5.038  -2.157 -33.912  1.00  0.00    -0.074 SA
HETATM   10  C   UNL     1      -3.139  -2.905 -32.051  1.00  0.00     0.057 C 
HETATM   11  N   UNL     1      -6.519  -0.217 -34.899  1.00  0.00    -0.234 NA
HETATM   12  C   UNL     1      -6.868   1.063 -34.815  1.00  0.00     0.236 A 
HETATM   13  N   UNL     1      -6.426   1.966 -33.932  1.00  0.00    -0.223 NA
ENDBRANCH   1   3
BRANCH   1  14
HETATM   14  C   UNL     1      -4.131   3.532 -32.031  1.00  0.00     0.036 A 
HETATM   15  C   UNL     1      -4.336   4.692 -31.266  1.00  0.00     0.069 A 
HETATM   16  C   UNL     1      -3.411   5.740 -31.279  1.00  0.00     0.104 A 
HETATM   17  C   UNL     1      -2.241   5.628 -32.028  1.00  0.00     0.102 A 
HETATM   18  O   UNL     1      -3.676   6.802 -30.458  1.00  0.00    -0.348 OA
HETATM   19  O   UNL     1      -1.245   6.564 -32.009  1.00  0.00    -0.348 OA
HETATM   20  C   UNL     1      -2.003   4.470 -32.763  1.00  0.00     0.042 A 
HETATM   21  C   UNL     1      -1.680   7.820 -32.530  1.00  0.00     0.178 C 
HETATM   22  C   UNL     1      -2.430   8.638 -31.491  1.00  0.00     0.053 C 
HETATM   23  C   UNL     1      -3.789   8.026 -31.186  1.00  0.00     0.178 C 
HETATM   24  C   UNL     1      -2.950   3.440 -32.777  1.00  0.00     0.032 A 
ENDBRANCH   1  14
TORSDOF 2
ENDMDL
MODEL 9
REMARK VINA RESULT:      -7.6      5.256      7.409
REMARK  2 active torsions:
REMARK  status: ('A' for Active; 'I' for Inactive)
REMARK    1  A    between atoms: C_8  and  N_9 
REMARK    2  A    between atoms: N_9  and  C_10 
ROOT
HETATM    1  N   UNL     1      -8.594   0.922 -31.223  1.00  0.00    -0.340 N 
HETATM    2  H   UNL     1      -9.157   0.321 -30.644  1.00  0.00     0.167 HD
ENDROOT
BRANCH   1   3
HETATM    3  C   UNL     1      -9.002   2.266 -31.195  1.00  0.00     0.143 A 
HETATM    4  C   UNL     1     -10.071   2.752 -31.996  1.00  0.00     0.053 A 
HETATM    5  C   UNL     1     -10.909   2.166 -33.041  1.00  0.00    -0.032 A 
HETATM    6  C   UNL     1     -10.421   4.079 -31.784  1.00  0.00     0.114 A 
HETATM    7  C   UNL     1     -10.762   0.777 -33.581  1.00  0.00     0.050 C 
HETATM    8  C   UNL     1     -11.867   3.066 -33.493  1.00  0.00    -0.012 A 
HETATM    9  S   UNL     1     -11.731   4.587 -32.736  1.00  0.00    -0.074 SA
HETATM   10  C   UNL     1     -12.927   2.859 -34.528  1.00  0.00     0.057 C 
HETATM   11  N   UNL     1      -9.847   4.942 -30.931  1.00  0.00    -0.234 NA
HETATM   12  C   UNL     1      -8.842   4.393 -30.257  1.00  0.00     0.236 A 
HETATM   13  N   UNL     1      -8.403   3.133 -30.342  1.00  0.00    -0.223 NA
ENDBRANCH   1   3
BRANCH   1  14
HETATM   14  C   UNL     1      -7.425   0.313 -31.713  1.00  0.00     0.036 A 
HETATM   15  C   UNL     1      -7.448  -0.260 -32.995  1.00  0.00     0.069 A 
HETATM   16  C   UNL     1      -6.329  -0.919 -33.514  1.00  0.00     0.104 A 
HETATM   17  C   UNL     1      -5.151  -0.981 -32.772  1.00  0.00     0.102 A 
HETATM   18  O   UNL     1      -6.436  -1.395 -34.792  1.00  0.00    -0.348 OA
HETATM   19  O   UNL     1      -3.989  -1.516 -33.253  1.00  0.00    -0.348 OA
HETATM   20  C   UNL     1      -5.098  -0.386 -31.515  1.00  0.00     0.042 A 
HETATM   21  C   UNL     1      -4.112  -2.912 -33.522  1.00  0.00     0.178 C 
HETATM   22  C   UNL     1      -4.760  -3.177 -34.872  1.00  0.00     0.053 C 
HETATM   23  C   UNL     1      -6.235  -2.808 -34.855  1.00  0.00     0.178 C 
HETATM   24  C   UNL     1      -6.232   0.239 -30.985  1.00  0.00     0.032 A 
ENDBRANCH   1  14
TORSDOF 2
ENDMDL
MODEL 10
REMARK VINA RESULT:      -7.5      2.033      3.090
REMARK  2 active torsions:
REMARK  status: ('A' for Active; 'I' for Inactive)
REMARK    1  A    between atoms: C_8  and  N_9 
REMARK    2  A    between atoms: N_9  and  C_10 
ROOT
HETATM    1  N   UNL     1      -5.484   0.891 -32.917  1.00  0.00    -0.340 N 
HETATM    2  H   UNL     1      -6.416   0.657 -33.220  1.00  0.00     0.167 HD
ENDROOT
BRANCH   1   3
HETATM    3  C   UNL     1      -4.689  -0.232 -32.637  1.00  0.00     0.143 A 
HETATM    4  C   UNL     1      -4.872  -1.477 -33.299  1.00  0.00     0.053 A 
HETATM    5  C   UNL     1      -5.855  -1.987 -34.254  1.00  0.00    -0.032 A 
HETATM    6  C   UNL     1      -3.945  -2.462 -32.986  1.00  0.00     0.114 A 
HETATM    7  C   UNL     1      -7.042  -1.224 -34.756  1.00  0.00     0.050 C 
HETATM    8  C   UNL     1      -5.563  -3.289 -34.641  1.00  0.00    -0.012 A 
HETATM    9  S   UNL     1      -4.191  -3.908 -33.840  1.00  0.00    -0.074 SA
HETATM   10  C   UNL     1      -6.295  -4.161 -35.610  1.00  0.00     0.057 C 
HETATM   11  N   UNL     1      -2.924  -2.368 -32.120  1.00  0.00    -0.234 NA
HETATM   12  C   UNL     1      -2.863  -1.175 -31.537  1.00  0.00     0.236 A 
HETATM   13  N   UNL     1      -3.671  -0.130 -31.747  1.00  0.00    -0.223 NA
ENDBRANCH   1   3
BRANCH   1  14
HETATM   14  C   UNL     1      -5.156   2.250 -33.078  1.00  0.00     0.036 A 
HETATM   15  C   UNL     1      -3.895   2.695 -32.651  1.00  0.00     0.069 A 
HETATM   16  C   UNL     1      -3.533   4.042 -32.745  1.00  0.00     0.104 A 
HETATM   17  C   UNL     1      -4.415   4.963 -33.308  1.00  0.00     0.102 A 
HETATM   18  O   UNL     1      -2.263   4.365 -32.351  1.00  0.00    -0.348 OA
HETATM   19  O   UNL     1      -4.093   6.273 -33.526  1.00  0.00    -0.348 OA
HETATM   20  C   UNL     1      -5.655   4.533 -33.771  1.00  0.00     0.042 A 
HETATM   21  C   UNL     1      -3.844   6.975 -32.309  1.00  0.00     0.178 C 
HETATM   22  C   UNL     1      -2.431   6.743 -31.796  1.00  0.00     0.053 C 
HETATM   23  C   UNL     1      -2.258   5.319 -31.289  1.00  0.00     0.178 C 
HETATM   24  C   UNL     1      -6.027   3.191 -33.640  1.00  0.00     0.032 A 
ENDBRANCH   1  14
TORSDOF 2
ENDMDL
