MODEL 1
REMARK VINA RESULT:     -10.0      0.000      0.000
REMARK  7 active torsions:
REMARK  status: ('A' for Active; 'I' for Inactive)
REMARK    1  A    between atoms: C_4  and  N_5 
REMARK    2  A    between atoms: C_6  and  S_7 
REMARK    3  A    between atoms: S_7  and  C_8 
REMARK    4  A    between atoms: C_8  and  C_9 
REMARK       I    between atoms: C_9  and  N_10 
REMARK    5  A    between atoms: C_12  and  C_13 
REMARK    6  A    between atoms: C_13  and  N_14 
REMARK       I    between atoms: N_14  and  C_15 
REMARK       I    between atoms: C_15  and  N_16 
REMARK    7  A    between atoms: N_16  and  C_17 
ROOT
HETATM    1  C   UNL     1      -6.116   4.072 -30.261  1.00  0.00     0.229 C 
HETATM    2  N   UNL     1      -5.514   4.240 -31.524  1.00  0.00    -0.351 N 
HETATM    3  C   UNL     1      -4.298   5.061 -31.517  1.00  0.00     0.132 C 
HETATM    4  C   UNL     1      -3.479   4.915 -32.805  1.00  0.00     0.021 C 
HETATM    5  C   UNL     1      -4.369   5.302 -33.991  1.00  0.00     0.009 C 
HETATM    6  C   UNL     1      -5.555   4.350 -34.042  1.00  0.00     0.020 C 
HETATM    7  C   UNL     1      -6.332   4.317 -32.731  1.00  0.00     0.126 C 
HETATM    8  O   UNL     1      -5.632   4.628 -29.266  1.00  0.00    -0.273 OA
ENDROOT
BRANCH   1   9
HETATM    9  C   UNL     1      -7.192   3.009 -30.057  1.00  0.00     0.185 C 
BRANCH   9  10
HETATM   10  S   UNL     1      -6.906   1.316 -30.599  1.00  0.00    -0.082 SA
BRANCH  10  11
HETATM   11  C   UNL     1      -8.059   1.081 -31.864  1.00  0.00     0.173 A 
HETATM   12  N   UNL     1      -7.955   0.186 -32.938  1.00  0.00    -0.300 N 
HETATM   13  C   UNL     1      -9.176   0.319 -33.593  1.00  0.00     0.118 A 
HETATM   14  C   UNL     1      -9.901   1.266 -32.916  1.00  0.00     0.137 A 
HETATM   15  N   UNL     1      -9.200   1.732 -31.853  1.00  0.00    -0.235 NA
BRANCH  12  16
HETATM   16  C   UNL     1      -6.882  -0.672 -33.391  1.00  0.00     0.042 A 
HETATM   17  C   UNL     1      -7.103  -1.897 -34.037  1.00  0.00     0.037 A 
HETATM   18  C   UNL     1      -6.041  -2.733 -34.428  1.00  0.00    -0.059 A 
HETATM   19  C   UNL     1      -6.317  -4.019 -35.155  1.00  0.00     0.048 C 
HETATM   20  C   UNL     1      -4.728  -2.332 -34.189  1.00  0.00     0.013 A 
HETATM   21  C   UNL     1      -4.469  -1.124 -33.542  1.00  0.00    -0.059 A 
HETATM   22  C   UNL     1      -5.541  -0.299 -33.160  1.00  0.00     0.037 A 
HETATM   23  C   UNL     1      -3.048  -0.697 -33.305  1.00  0.00     0.048 C 
ENDBRANCH  12  16
ENDBRANCH  10  11
ENDBRANCH   9  10
ENDBRANCH   1   9
BRANCH   4  24
HETATM   24  C   UNL     1      -2.191   5.744 -32.735  1.00  0.00     0.130 C 
BRANCH  24  25
HETATM   25  N   UNL     1      -1.100   4.993 -32.130  1.00  0.00    -0.342 N 
HETATM   26  C   UNL     1      -0.348   5.261 -31.027  1.00  0.00     0.320 C 
HETATM   27  N   UNL     1      -0.756   6.318 -30.264  1.00  0.00    -0.309 N 
HETATM   28  O   UNL     1       0.615   4.531 -30.816  1.00  0.00    -0.247 OA
HETATM   29  H   UNL     1      -1.605   6.776 -30.552  1.00  0.00     0.170 HD
HETATM   30  H   UNL     1      -0.694   4.224 -32.651  1.00  0.00     0.164 HD
BRANCH  27  31
HETATM   31  C   UNL     1      -0.165   6.795 -29.073  1.00  0.00     0.039 A 
HETATM   32  C   UNL     1       0.800   7.804 -29.029  1.00  0.00     0.071 A 
HETATM   33  C   UNL     1       1.330   8.201 -27.804  1.00  0.00     0.118 A 
HETATM   34  F   UNL     1       2.255   9.170 -27.769  1.00  0.00    -0.206 F 
HETATM   35  C   UNL     1       0.920   7.613 -26.614  1.00  0.00     0.042 A 
HETATM   36  C   UNL     1      -0.042   6.609 -26.646  1.00  0.00     0.005 A 
HETATM   37  C   UNL     1      -0.582   6.204 -27.871  1.00  0.00     0.030 A 
ENDBRANCH  27  31
ENDBRANCH  24  25
ENDBRANCH   4  24
TORSDOF 7
ENDMDL
MODEL 2
REMARK VINA RESULT:     -10.0      1.049      1.919
REMARK  7 active torsions:
REMARK  status: ('A' for Active; 'I' for Inactive)
REMARK    1  A    between atoms: C_4  and  N_5 
REMARK    2  A    between atoms: C_6  and  S_7 
REMARK    3  A    between atoms: S_7  and  C_8 
REMARK    4  A    between atoms: C_8  and  C_9 
REMARK       I    between atoms: C_9  and  N_10 
REMARK    5  A    between atoms: C_12  and  C_13 
REMARK    6  A    between atoms: C_13  and  N_14 
REMARK       I    between atoms: N_14  and  C_15 
REMARK       I    between atoms: C_15  and  N_16 
REMARK    7  A    between atoms: N_16  and  C_17 
ROOT
HETATM    1  C   UNL     1      -6.101   3.948 -30.606  1.00  0.00     0.229 C 
HETATM    2  N   UNL     1      -5.420   4.201 -31.813  1.00  0.00    -0.351 N 
HETATM    3  C   UNL     1      -4.146   4.913 -31.659  1.00  0.00     0.132 C 
HETATM    4  C   UNL     1      -3.273   4.839 -32.917  1.00  0.00     0.021 C 
HETATM    5  C   UNL     1      -4.065   5.426 -34.091  1.00  0.00     0.009 C 
HETATM    6  C   UNL     1      -5.317   4.586 -34.302  1.00  0.00     0.020 C 
HETATM    7  C   UNL     1      -6.163   4.477 -33.039  1.00  0.00     0.126 C 
HETATM    8  O   UNL     1      -5.628   4.350 -29.533  1.00  0.00    -0.273 OA
ENDROOT
BRANCH   1   9
HETATM    9  C   UNL     1      -7.265   2.962 -30.571  1.00  0.00     0.185 C 
BRANCH   9  10
HETATM   10  S   UNL     1      -7.012   1.245 -31.049  1.00  0.00    -0.082 SA
BRANCH  10  11
HETATM   11  C   UNL     1      -7.746   1.133 -32.609  1.00  0.00     0.173 A 
HETATM   12  N   UNL     1      -7.503   0.152 -33.582  1.00  0.00    -0.300 N 
HETATM   13  C   UNL     1      -8.412   0.461 -34.589  1.00  0.00     0.118 A 
HETATM   14  C   UNL     1      -9.100   1.578 -34.191  1.00  0.00     0.137 A 
HETATM   15  N   UNL     1      -8.679   1.985 -32.968  1.00  0.00    -0.235 NA
BRANCH  12  16
HETATM   16  C   UNL     1      -6.541  -0.926 -33.660  1.00  0.00     0.042 A 
HETATM   17  C   UNL     1      -5.314  -0.906 -32.982  1.00  0.00     0.037 A 
HETATM   18  C   UNL     1      -4.378  -1.949 -33.110  1.00  0.00    -0.059 A 
HETATM   19  C   UNL     1      -3.092  -1.912 -32.334  1.00  0.00     0.048 C 
HETATM   20  C   UNL     1      -4.678  -3.045 -33.916  1.00  0.00     0.013 A 
HETATM   21  C   UNL     1      -5.886  -3.097 -34.612  1.00  0.00    -0.059 A 
HETATM   22  C   UNL     1      -6.811  -2.048 -34.470  1.00  0.00     0.037 A 
HETATM   23  C   UNL     1      -6.203  -4.292 -35.464  1.00  0.00     0.048 C 
ENDBRANCH  12  16
ENDBRANCH  10  11
ENDBRANCH   9  10
ENDBRANCH   1   9
BRANCH   4  24
HETATM   24  C   UNL     1      -1.930   5.545 -32.697  1.00  0.00     0.130 C 
BRANCH  24  25
HETATM   25  N   UNL     1      -1.080   4.809 -31.772  1.00  0.00    -0.342 N 
HETATM   26  C   UNL     1      -0.500   5.199 -30.604  1.00  0.00     0.320 C 
HETATM   27  N   UNL     1      -0.876   6.421 -30.125  1.00  0.00    -0.309 N 
HETATM   28  O   UNL     1       0.297   4.421 -30.089  1.00  0.00    -0.247 OA
HETATM   29  H   UNL     1      -1.587   6.906 -30.646  1.00  0.00     0.170 HD
HETATM   30  H   UNL     1      -0.706   3.914 -32.067  1.00  0.00     0.164 HD
BRANCH  27  31
HETATM   31  C   UNL     1      -0.437   7.049 -28.938  1.00  0.00     0.039 A 
HETATM   32  C   UNL     1      -1.161   7.057 -27.744  1.00  0.00     0.071 A 
HETATM   33  C   UNL     1      -0.647   7.711 -26.627  1.00  0.00     0.118 A 
HETATM   34  F   UNL     1      -1.347   7.714 -25.485  1.00  0.00    -0.206 F 
HETATM   35  C   UNL     1       0.579   8.363 -26.672  1.00  0.00     0.042 A 
HETATM   36  C   UNL     1       1.310   8.359 -27.856  1.00  0.00     0.005 A 
HETATM   37  C   UNL     1       0.804   7.703 -28.982  1.00  0.00     0.030 A 
ENDBRANCH  27  31
ENDBRANCH  24  25
ENDBRANCH   4  24
TORSDOF 7
ENDMDL
MODEL 3
REMARK VINA RESULT:     -10.0      4.048      9.065
REMARK  7 active torsions:
REMARK  status: ('A' for Active; 'I' for Inactive)
REMARK    1  A    between atoms: C_4  and  N_5 
REMARK    2  A    between atoms: C_6  and  S_7 
REMARK    3  A    between atoms: S_7  and  C_8 
REMARK    4  A    between atoms: C_8  and  C_9 
REMARK       I    between atoms: C_9  and  N_10 
REMARK    5  A    between atoms: C_12  and  C_13 
REMARK    6  A    between atoms: C_13  and  N_14 
REMARK       I    between atoms: N_14  and  C_15 
REMARK       I    between atoms: C_15  and  N_16 
REMARK    7  A    between atoms: N_16  and  C_17 
ROOT
HETATM    1  C   UNL     1      -7.031   5.187 -33.114  1.00  0.00     0.229 C 
HETATM    2  N   UNL     1      -8.129   4.433 -32.654  1.00  0.00    -0.351 N 
HETATM    3  C   UNL     1      -8.474   3.282 -33.496  1.00  0.00     0.132 C 
HETATM    4  C   UNL     1      -9.405   2.290 -32.788  1.00  0.00     0.021 C 
HETATM    5  C   UNL     1     -10.677   3.036 -32.369  1.00  0.00     0.009 C 
HETATM    6  C   UNL     1     -10.294   4.143 -31.397  1.00  0.00     0.020 C 
HETATM    7  C   UNL     1      -9.243   5.085 -31.974  1.00  0.00     0.126 C 
HETATM    8  O   UNL     1      -6.464   4.875 -34.170  1.00  0.00    -0.273 OA
ENDROOT
BRANCH   1   9
HETATM    9  C   UNL     1      -6.366   6.213 -32.200  1.00  0.00     0.185 C 
BRANCH   9  10
HETATM   10  S   UNL     1      -5.849   5.746 -30.540  1.00  0.00    -0.082 SA
BRANCH  10  11
HETATM   11  C   UNL     1      -5.246   4.138 -30.726  1.00  0.00     0.173 A 
HETATM   12  N   UNL     1      -3.964   3.768 -31.158  1.00  0.00    -0.300 N 
HETATM   13  C   UNL     1      -3.966   2.382 -31.031  1.00  0.00     0.118 A 
HETATM   14  C   UNL     1      -5.206   2.015 -30.576  1.00  0.00     0.137 A 
HETATM   15  N   UNL     1      -5.988   3.107 -30.394  1.00  0.00    -0.235 NA
BRANCH  12  16
HETATM   16  C   UNL     1      -2.852   4.533 -31.679  1.00  0.00     0.042 A 
HETATM   17  C   UNL     1      -2.008   5.304 -30.868  1.00  0.00     0.037 A 
HETATM   18  C   UNL     1      -0.960   6.073 -31.406  1.00  0.00    -0.059 A 
HETATM   19  C   UNL     1      -0.050   6.853 -30.500  1.00  0.00     0.048 C 
HETATM   20  C   UNL     1      -0.735   6.059 -32.781  1.00  0.00     0.013 A 
HETATM   21  C   UNL     1      -1.559   5.310 -33.621  1.00  0.00    -0.059 A 
HETATM   22  C   UNL     1      -2.600   4.545 -33.066  1.00  0.00     0.037 A 
HETATM   23  C   UNL     1      -1.295   5.293 -35.099  1.00  0.00     0.048 C 
ENDBRANCH  12  16
ENDBRANCH  10  11
ENDBRANCH   9  10
ENDBRANCH   1   9
BRANCH   4  24
HETATM   24  C   UNL     1      -9.696   1.077 -33.679  1.00  0.00     0.130 C 
BRANCH  24  25
HETATM   25  N   UNL     1      -8.794   1.019 -34.820  1.00  0.00    -0.342 N 
HETATM   26  C   UNL     1      -7.733   0.203 -35.066  1.00  0.00     0.320 C 
HETATM   27  N   UNL     1      -7.552  -0.830 -34.191  1.00  0.00    -0.309 N 
HETATM   28  O   UNL     1      -7.044   0.462 -36.048  1.00  0.00    -0.247 OA
HETATM   29  H   UNL     1      -8.247  -0.931 -33.470  1.00  0.00     0.170 HD
HETATM   30  H   UNL     1      -8.817   1.775 -35.495  1.00  0.00     0.164 HD
BRANCH  27  31
HETATM   31  C   UNL     1      -6.544  -1.819 -34.227  1.00  0.00     0.039 A 
HETATM   32  C   UNL     1      -6.705  -3.078 -34.808  1.00  0.00     0.071 A 
HETATM   33  C   UNL     1      -5.653  -3.990 -34.787  1.00  0.00     0.118 A 
HETATM   34  F   UNL     1      -5.815  -5.196 -35.347  1.00  0.00    -0.206 F 
HETATM   35  C   UNL     1      -4.436  -3.676 -34.196  1.00  0.00     0.042 A 
HETATM   36  C   UNL     1      -4.264  -2.423 -33.616  1.00  0.00     0.005 A 
HETATM   37  C   UNL     1      -5.313  -1.499 -33.634  1.00  0.00     0.030 A 
ENDBRANCH  27  31
ENDBRANCH  24  25
ENDBRANCH   4  24
TORSDOF 7
ENDMDL
MODEL 4
REMARK VINA RESULT:      -9.9      3.888     10.016
REMARK  7 active torsions:
REMARK  status: ('A' for Active; 'I' for Inactive)
REMARK    1  A    between atoms: C_4  and  N_5 
REMARK    2  A    between atoms: C_6  and  S_7 
REMARK    3  A    between atoms: S_7  and  C_8 
REMARK    4  A    between atoms: C_8  and  C_9 
REMARK       I    between atoms: C_9  and  N_10 
REMARK    5  A    between atoms: C_12  and  C_13 
REMARK    6  A    between atoms: C_13  and  N_14 
REMARK       I    between atoms: N_14  and  C_15 
REMARK       I    between atoms: C_15  and  N_16 
REMARK    7  A    between atoms: N_16  and  C_17 
ROOT
HETATM    1  C   UNL     1      -5.064   6.761 -31.286  1.00  0.00     0.229 C 
HETATM    2  N   UNL     1      -4.486   5.596 -31.827  1.00  0.00    -0.351 N 
HETATM    3  C   UNL     1      -5.438   4.514 -32.104  1.00  0.00     0.132 C 
HETATM    4  C   UNL     1      -4.851   3.432 -33.019  1.00  0.00     0.021 C 
HETATM    5  C   UNL     1      -3.592   2.866 -32.352  1.00  0.00     0.009 C 
HETATM    6  C   UNL     1      -2.578   3.990 -32.194  1.00  0.00     0.020 C 
HETATM    7  C   UNL     1      -3.144   5.181 -31.429  1.00  0.00     0.126 C 
HETATM    8  O   UNL     1      -6.280   6.798 -31.053  1.00  0.00    -0.273 OA
ENDROOT
BRANCH   1   9
HETATM    9  C   UNL     1      -4.267   8.062 -31.234  1.00  0.00     0.185 C 
BRANCH   9  10
HETATM   10  S   UNL     1      -4.389   9.143 -29.800  1.00  0.00    -0.082 SA
BRANCH  10  11
HETATM   11  C   UNL     1      -4.289   8.065 -28.453  1.00  0.00     0.173 A 
HETATM   12  N   UNL     1      -3.119   7.556 -27.873  1.00  0.00    -0.300 N 
HETATM   13  C   UNL     1      -3.587   6.834 -26.778  1.00  0.00     0.118 A 
HETATM   14  C   UNL     1      -4.955   6.927 -26.782  1.00  0.00     0.137 A 
HETATM   15  N   UNL     1      -5.377   7.687 -27.822  1.00  0.00    -0.235 NA
BRANCH  12  16
HETATM   16  C   UNL     1      -1.725   7.641 -28.252  1.00  0.00     0.042 A 
HETATM   17  C   UNL     1      -1.227   7.120 -29.454  1.00  0.00     0.037 A 
HETATM   18  C   UNL     1       0.141   7.179 -29.779  1.00  0.00    -0.059 A 
HETATM   19  C   UNL     1       0.631   6.647 -31.096  1.00  0.00     0.048 C 
HETATM   20  C   UNL     1       1.030   7.786 -28.895  1.00  0.00     0.013 A 
HETATM   21  C   UNL     1       0.573   8.309 -27.685  1.00  0.00    -0.059 A 
HETATM   22  C   UNL     1      -0.798   8.245 -27.378  1.00  0.00     0.037 A 
HETATM   23  C   UNL     1       1.541   8.974 -26.749  1.00  0.00     0.048 C 
ENDBRANCH  12  16
ENDBRANCH  10  11
ENDBRANCH   9  10
ENDBRANCH   1   9
BRANCH   4  24
HETATM   24  C   UNL     1      -5.894   2.351 -33.329  1.00  0.00     0.130 C 
BRANCH  24  25
HETATM   25  N   UNL     1      -5.934   1.329 -32.294  1.00  0.00    -0.342 N 
HETATM   26  C   UNL     1      -5.909  -0.029 -32.391  1.00  0.00     0.320 C 
HETATM   27  N   UNL     1      -5.659  -0.538 -33.634  1.00  0.00    -0.309 N 
HETATM   28  O   UNL     1      -6.105  -0.667 -31.362  1.00  0.00    -0.247 OA
HETATM   29  H   UNL     1      -5.463   0.131 -34.359  1.00  0.00     0.170 HD
HETATM   30  H   UNL     1      -6.169   1.607 -31.348  1.00  0.00     0.164 HD
BRANCH  27  31
HETATM   31  C   UNL     1      -5.568  -1.899 -34.001  1.00  0.00     0.039 A 
HETATM   32  C   UNL     1      -4.405  -2.663 -33.884  1.00  0.00     0.071 A 
HETATM   33  C   UNL     1      -4.412  -3.998 -34.280  1.00  0.00     0.118 A 
HETATM   34  F   UNL     1      -3.292  -4.726 -34.165  1.00  0.00    -0.206 F 
HETATM   35  C   UNL     1      -5.557  -4.594 -34.794  1.00  0.00     0.042 A 
HETATM   36  C   UNL     1      -6.721  -3.843 -34.911  1.00  0.00     0.005 A 
HETATM   37  C   UNL     1      -6.726  -2.502 -34.515  1.00  0.00     0.030 A 
ENDBRANCH  27  31
ENDBRANCH  24  25
ENDBRANCH   4  24
TORSDOF 7
ENDMDL
MODEL 5
REMARK VINA RESULT:      -9.9      1.433      2.344
REMARK  7 active torsions:
REMARK  status: ('A' for Active; 'I' for Inactive)
REMARK    1  A    between atoms: C_4  and  N_5 
REMARK    2  A    between atoms: C_6  and  S_7 
REMARK    3  A    between atoms: S_7  and  C_8 
REMARK    4  A    between atoms: C_8  and  C_9 
REMARK       I    between atoms: C_9  and  N_10 
REMARK    5  A    between atoms: C_12  and  C_13 
REMARK    6  A    between atoms: C_13  and  N_14 
REMARK       I    between atoms: N_14  and  C_15 
REMARK       I    between atoms: C_15  and  N_16 
REMARK    7  A    between atoms: N_16  and  C_17 
ROOT
HETATM    1  C   UNL     1      -4.930   4.284 -31.854  1.00  0.00     0.229 C 
HETATM    2  N   UNL     1      -3.893   4.691 -32.717  1.00  0.00    -0.351 N 
HETATM    3  C   UNL     1      -2.807   5.428 -32.062  1.00  0.00     0.132 C 
HETATM    4  C   UNL     1      -1.548   5.523 -32.933  1.00  0.00     0.021 C 
HETATM    5  C   UNL     1      -1.925   6.204 -34.254  1.00  0.00     0.009 C 
HETATM    6  C   UNL     1      -2.962   5.347 -34.965  1.00  0.00     0.020 C 
HETATM    7  C   UNL     1      -4.183   5.070 -34.096  1.00  0.00     0.126 C 
HETATM    8  O   UNL     1      -4.889   4.585 -30.653  1.00  0.00    -0.273 OA
ENDROOT
BRANCH   1   9
HETATM    9  C   UNL     1      -5.960   3.258 -32.318  1.00  0.00     0.185 C 
BRANCH   9  10
HETATM   10  S   UNL     1      -6.742   2.157 -31.128  1.00  0.00    -0.082 SA
BRANCH  10  11
HETATM   11  C   UNL     1      -7.978   1.365 -32.039  1.00  0.00     0.173 A 
HETATM   12  N   UNL     1      -7.855   0.162 -32.749  1.00  0.00    -0.300 N 
HETATM   13  C   UNL     1      -9.147  -0.078 -33.207  1.00  0.00     0.118 A 
HETATM   14  C   UNL     1      -9.931   0.965 -32.786  1.00  0.00     0.137 A 
HETATM   15  N   UNL     1      -9.198   1.851 -32.068  1.00  0.00    -0.235 NA
BRANCH  12  16
HETATM   16  C   UNL     1      -6.719  -0.682 -33.048  1.00  0.00     0.042 A 
HETATM   17  C   UNL     1      -5.451  -0.485 -32.483  1.00  0.00     0.037 A 
HETATM   18  C   UNL     1      -4.352  -1.295 -32.825  1.00  0.00    -0.059 A 
HETATM   19  C   UNL     1      -3.018  -1.080 -32.166  1.00  0.00     0.048 C 
HETATM   20  C   UNL     1      -4.523  -2.336 -33.735  1.00  0.00     0.013 A 
HETATM   21  C   UNL     1      -5.768  -2.557 -34.324  1.00  0.00    -0.059 A 
HETATM   22  C   UNL     1      -6.856  -1.741 -33.969  1.00  0.00     0.037 A 
HETATM   23  C   UNL     1      -5.942  -3.693 -35.291  1.00  0.00     0.048 C 
ENDBRANCH  12  16
ENDBRANCH  10  11
ENDBRANCH   9  10
ENDBRANCH   1   9
BRANCH   4  24
HETATM   24  C   UNL     1      -0.420   6.250 -32.192  1.00  0.00     0.130 C 
BRANCH  24  25
HETATM   25  N   UNL     1       0.083   5.465 -31.074  1.00  0.00    -0.342 N 
HETATM   26  C   UNL     1       0.375   5.834 -29.797  1.00  0.00     0.320 C 
HETATM   27  N   UNL     1       0.011   7.101 -29.438  1.00  0.00    -0.309 N 
HETATM   28  O   UNL     1       0.929   5.001 -29.087  1.00  0.00    -0.247 OA
HETATM   29  H   UNL     1      -0.489   7.634 -30.130  1.00  0.00     0.170 HD
HETATM   30  H   UNL     1       0.430   4.530 -31.256  1.00  0.00     0.164 HD
BRANCH  27  31
HETATM   31  C   UNL     1       0.186   7.720 -28.181  1.00  0.00     0.039 A 
HETATM   32  C   UNL     1      -0.787   7.746 -27.180  1.00  0.00     0.071 A 
HETATM   33  C   UNL     1      -0.522   8.390 -25.974  1.00  0.00     0.118 A 
HETATM   34  F   UNL     1      -1.461   8.410 -25.018  1.00  0.00    -0.206 F 
HETATM   35  C   UNL     1       0.696   9.014 -25.740  1.00  0.00     0.042 A 
HETATM   36  C   UNL     1       1.674   8.992 -26.729  1.00  0.00     0.005 A 
HETATM   37  C   UNL     1       1.419   8.346 -27.943  1.00  0.00     0.030 A 
ENDBRANCH  27  31
ENDBRANCH  24  25
ENDBRANCH   4  24
TORSDOF 7
ENDMDL
MODEL 6
REMARK VINA RESULT:      -9.5      4.072      9.914
REMARK  7 active torsions:
REMARK  status: ('A' for Active; 'I' for Inactive)
REMARK    1  A    between atoms: C_4  and  N_5 
REMARK    2  A    between atoms: C_6  and  S_7 
REMARK    3  A    between atoms: S_7  and  C_8 
REMARK    4  A    between atoms: C_8  and  C_9 
REMARK       I    between atoms: C_9  and  N_10 
REMARK    5  A    between atoms: C_12  and  C_13 
REMARK    6  A    between atoms: C_13  and  N_14 
REMARK       I    between atoms: N_14  and  C_15 
REMARK       I    between atoms: C_15  and  N_16 
REMARK    7  A    between atoms: N_16  and  C_17 
ROOT
HETATM    1  C   UNL     1      -5.635   5.475 -29.636  1.00  0.00     0.229 C 
HETATM    2  N   UNL     1      -5.043   4.922 -30.788  1.00  0.00    -0.351 N 
HETATM    3  C   UNL     1      -5.772   3.785 -31.363  1.00  0.00     0.132 C 
HETATM    4  C   UNL     1      -5.320   3.457 -32.791  1.00  0.00     0.021 C 
HETATM    5  C   UNL     1      -3.817   3.160 -32.767  1.00  0.00     0.009 C 
HETATM    6  C   UNL     1      -3.083   4.403 -32.285  1.00  0.00     0.020 C 
HETATM    7  C   UNL     1      -3.591   4.891 -30.933  1.00  0.00     0.126 C 
HETATM    8  O   UNL     1      -6.670   4.977 -29.171  1.00  0.00    -0.273 OA
ENDROOT
BRANCH   1   9
HETATM    9  C   UNL     1      -5.175   6.833 -29.110  1.00  0.00     0.185 C 
BRANCH   9  10
HETATM   10  S   UNL     1      -4.143   6.932 -27.639  1.00  0.00    -0.082 SA
BRANCH  10  11
HETATM   11  C   UNL     1      -3.258   8.401 -27.846  1.00  0.00     0.173 A 
HETATM   12  N   UNL     1      -2.186   8.617 -28.723  1.00  0.00    -0.300 N 
HETATM   13  C   UNL     1      -1.911   9.973 -28.573  1.00  0.00     0.118 A 
HETATM   14  C   UNL     1      -2.780  10.464 -27.633  1.00  0.00     0.137 A 
HETATM   15  N   UNL     1      -3.605   9.485 -27.190  1.00  0.00    -0.235 NA
BRANCH  12  16
HETATM   16  C   UNL     1      -1.432   7.727 -29.580  1.00  0.00     0.042 A 
HETATM   17  C   UNL     1      -0.588   6.723 -29.085  1.00  0.00     0.037 A 
HETATM   18  C   UNL     1       0.166   5.899 -29.940  1.00  0.00    -0.059 A 
HETATM   19  C   UNL     1       1.028   4.806 -29.374  1.00  0.00     0.048 C 
HETATM   20  C   UNL     1       0.064   6.065 -31.320  1.00  0.00     0.013 A 
HETATM   21  C   UNL     1      -0.759   7.059 -31.849  1.00  0.00    -0.059 A 
HETATM   22  C   UNL     1      -1.509   7.871 -30.981  1.00  0.00     0.037 A 
HETATM   23  C   UNL     1      -0.872   7.216 -33.338  1.00  0.00     0.048 C 
ENDBRANCH  12  16
ENDBRANCH  10  11
ENDBRANCH   9  10
ENDBRANCH   1   9
BRANCH   4  24
HETATM   24  C   UNL     1      -6.143   2.302 -33.376  1.00  0.00     0.130 C 
BRANCH  24  25
HETATM   25  N   UNL     1      -6.386   1.261 -32.388  1.00  0.00    -0.342 N 
HETATM   26  C   UNL     1      -6.294  -0.093 -32.491  1.00  0.00     0.320 C 
HETATM   27  N   UNL     1      -5.748  -0.572 -33.648  1.00  0.00    -0.309 N 
HETATM   28  O   UNL     1      -6.700  -0.755 -31.542  1.00  0.00    -0.247 OA
HETATM   29  H   UNL     1      -5.414   0.115 -34.302  1.00  0.00     0.170 HD
HETATM   30  H   UNL     1      -6.842   1.515 -31.519  1.00  0.00     0.164 HD
BRANCH  27  31
HETATM   31  C   UNL     1      -5.530  -1.923 -33.998  1.00  0.00     0.039 A 
HETATM   32  C   UNL     1      -6.452  -2.710 -34.692  1.00  0.00     0.071 A 
HETATM   33  C   UNL     1      -6.148  -4.036 -34.986  1.00  0.00     0.118 A 
HETATM   34  F   UNL     1      -7.037  -4.785 -35.652  1.00  0.00    -0.206 F 
HETATM   35  C   UNL     1      -4.939  -4.603 -34.601  1.00  0.00     0.042 A 
HETATM   36  C   UNL     1      -4.012  -3.828 -33.912  1.00  0.00     0.005 A 
HETATM   37  C   UNL     1      -4.307  -2.494 -33.614  1.00  0.00     0.030 A 
ENDBRANCH  27  31
ENDBRANCH  24  25
ENDBRANCH   4  24
TORSDOF 7
ENDMDL
MODEL 7
REMARK VINA RESULT:      -9.4      2.084      2.422
REMARK  7 active torsions:
REMARK  status: ('A' for Active; 'I' for Inactive)
REMARK    1  A    between atoms: C_4  and  N_5 
REMARK    2  A    between atoms: C_6  and  S_7 
REMARK    3  A    between atoms: S_7  and  C_8 
REMARK    4  A    between atoms: C_8  and  C_9 
REMARK       I    between atoms: C_9  and  N_10 
REMARK    5  A    between atoms: C_12  and  C_13 
REMARK    6  A    between atoms: C_13  and  N_14 
REMARK       I    between atoms: N_14  and  C_15 
REMARK       I    between atoms: C_15  and  N_16 
REMARK    7  A    between atoms: N_16  and  C_17 
ROOT
HETATM    1  C   UNL     1      -3.355   2.669 -32.006  1.00  0.00     0.229 C 
HETATM    2  N   UNL     1      -3.211   3.714 -32.940  1.00  0.00    -0.351 N 
HETATM    3  C   UNL     1      -2.224   4.734 -32.568  1.00  0.00     0.132 C 
HETATM    4  C   UNL     1      -1.828   5.630 -33.748  1.00  0.00     0.021 C 
HETATM    5  C   UNL     1      -3.095   6.299 -34.294  1.00  0.00     0.009 C 
HETATM    6  C   UNL     1      -4.044   5.216 -34.786  1.00  0.00     0.020 C 
HETATM    7  C   UNL     1      -4.360   4.186 -33.707  1.00  0.00     0.126 C 
HETATM    8  O   UNL     1      -2.698   2.682 -30.956  1.00  0.00    -0.273 OA
ENDROOT
BRANCH   1   9
HETATM    9  C   UNL     1      -4.102   1.394 -32.388  1.00  0.00     0.185 C 
BRANCH   9  10
HETATM   10  S   UNL     1      -5.730   1.057 -31.698  1.00  0.00    -0.082 SA
BRANCH  10  11
HETATM   11  C   UNL     1      -6.757   0.942 -33.083  1.00  0.00     0.173 A 
HETATM   12  N   UNL     1      -6.897  -0.164 -33.934  1.00  0.00    -0.300 N 
HETATM   13  C   UNL     1      -7.905   0.226 -34.810  1.00  0.00     0.118 A 
HETATM   14  C   UNL     1      -8.276   1.500 -34.466  1.00  0.00     0.137 A 
HETATM   15  N   UNL     1      -7.559   1.933 -33.401  1.00  0.00    -0.235 NA
BRANCH  12  16
HETATM   16  C   UNL     1      -6.194  -1.426 -34.016  1.00  0.00     0.042 A 
HETATM   17  C   UNL     1      -6.618  -2.486 -34.829  1.00  0.00     0.037 A 
HETATM   18  C   UNL     1      -5.940  -3.718 -34.857  1.00  0.00    -0.059 A 
HETATM   19  C   UNL     1      -6.401  -4.817 -35.773  1.00  0.00     0.048 C 
HETATM   20  C   UNL     1      -4.801  -3.893 -34.073  1.00  0.00     0.013 A 
HETATM   21  C   UNL     1      -4.353  -2.863 -33.246  1.00  0.00    -0.059 A 
HETATM   22  C   UNL     1      -5.041  -1.637 -33.231  1.00  0.00     0.037 A 
HETATM   23  C   UNL     1      -3.115  -3.060 -32.418  1.00  0.00     0.048 C 
ENDBRANCH  12  16
ENDBRANCH  10  11
ENDBRANCH   9  10
ENDBRANCH   1   9
BRANCH   4  24
HETATM   24  C   UNL     1      -0.755   6.643 -33.332  1.00  0.00     0.130 C 
BRANCH  24  25
HETATM   25  N   UNL     1      -1.302   7.685 -32.474  1.00  0.00    -0.342 N 
HETATM   26  C   UNL     1      -1.162   7.891 -31.136  1.00  0.00     0.320 C 
HETATM   27  N   UNL     1      -0.252   7.097 -30.497  1.00  0.00    -0.309 N 
HETATM   28  O   UNL     1      -1.855   8.767 -30.630  1.00  0.00    -0.247 OA
HETATM   29  H   UNL     1       0.274   6.465 -31.077  1.00  0.00     0.170 HD
HETATM   30  H   UNL     1      -2.028   8.287 -32.846  1.00  0.00     0.164 HD
BRANCH  27  31
HETATM   31  C   UNL     1       0.090   7.116 -29.127  1.00  0.00     0.039 A 
HETATM   32  C   UNL     1      -0.462   6.261 -28.172  1.00  0.00     0.071 A 
HETATM   33  C   UNL     1      -0.065   6.361 -26.841  1.00  0.00     0.118 A 
HETATM   34  F   UNL     1      -0.600   5.537 -25.929  1.00  0.00    -0.206 F 
HETATM   35  C   UNL     1       0.875   7.300 -26.436  1.00  0.00     0.042 A 
HETATM   36  C   UNL     1       1.434   8.155 -27.380  1.00  0.00     0.005 A 
HETATM   37  C   UNL     1       1.044   8.061 -28.720  1.00  0.00     0.030 A 
ENDBRANCH  27  31
ENDBRANCH  24  25
ENDBRANCH   4  24
TORSDOF 7
ENDMDL
MODEL 8
REMARK VINA RESULT:      -9.4      3.906      9.136
REMARK  7 active torsions:
REMARK  status: ('A' for Active; 'I' for Inactive)
REMARK    1  A    between atoms: C_4  and  N_5 
REMARK    2  A    between atoms: C_6  and  S_7 
REMARK    3  A    between atoms: S_7  and  C_8 
REMARK    4  A    between atoms: C_8  and  C_9 
REMARK       I    between atoms: C_9  and  N_10 
REMARK    5  A    between atoms: C_12  and  C_13 
REMARK    6  A    between atoms: C_13  and  N_14 
REMARK       I    between atoms: N_14  and  C_15 
REMARK       I    between atoms: C_15  and  N_16 
REMARK    7  A    between atoms: N_16  and  C_17 
ROOT
HETATM    1  C   UNL     1      -5.618   5.836 -29.748  1.00  0.00     0.229 C 
HETATM    2  N   UNL     1      -6.079   5.413 -31.011  1.00  0.00    -0.351 N 
HETATM    3  C   UNL     1      -6.503   4.009 -31.068  1.00  0.00     0.132 C 
HETATM    4  C   UNL     1      -7.330   3.693 -32.319  1.00  0.00     0.021 C 
HETATM    5  C   UNL     1      -6.491   4.039 -33.554  1.00  0.00     0.009 C 
HETATM    6  C   UNL     1      -6.176   5.528 -33.527  1.00  0.00     0.020 C 
HETATM    7  C   UNL     1      -5.492   5.954 -32.233  1.00  0.00     0.126 C 
HETATM    8  O   UNL     1      -5.567   5.032 -28.807  1.00  0.00    -0.273 OA
ENDROOT
BRANCH   1   9
HETATM    9  C   UNL     1      -5.438   7.322 -29.453  1.00  0.00     0.185 C 
BRANCH   9  10
HETATM   10  S   UNL     1      -4.061   8.228 -30.175  1.00  0.00    -0.082 SA
BRANCH  10  11
HETATM   11  C   UNL     1      -2.665   7.525 -29.438  1.00  0.00     0.173 A 
HETATM   12  N   UNL     1      -1.863   6.504 -29.967  1.00  0.00    -0.300 N 
HETATM   13  C   UNL     1      -0.833   6.386 -29.038  1.00  0.00     0.118 A 
HETATM   14  C   UNL     1      -1.082   7.286 -28.035  1.00  0.00     0.137 A 
HETATM   15  N   UNL     1      -2.217   7.982 -28.291  1.00  0.00    -0.235 NA
BRANCH  12  16
HETATM   16  C   UNL     1      -1.995   5.670 -31.142  1.00  0.00     0.042 A 
HETATM   17  C   UNL     1      -1.550   6.063 -32.412  1.00  0.00     0.037 A 
HETATM   18  C   UNL     1      -1.730   5.250 -33.546  1.00  0.00    -0.059 A 
HETATM   19  C   UNL     1      -1.202   5.687 -34.883  1.00  0.00     0.048 C 
HETATM   20  C   UNL     1      -2.349   4.009 -33.410  1.00  0.00     0.013 A 
HETATM   21  C   UNL     1      -2.812   3.587 -32.163  1.00  0.00    -0.059 A 
HETATM   22  C   UNL     1      -2.621   4.411 -31.040  1.00  0.00     0.037 A 
HETATM   23  C   UNL     1      -3.463   2.241 -32.029  1.00  0.00     0.048 C 
ENDBRANCH  12  16
ENDBRANCH  10  11
ENDBRANCH   9  10
ENDBRANCH   1   9
BRANCH   4  24
HETATM   24  C   UNL     1      -7.800   2.233 -32.313  1.00  0.00     0.130 C 
BRANCH  24  25
HETATM   25  N   UNL     1      -7.994   1.725 -33.663  1.00  0.00    -0.342 N 
HETATM   26  C   UNL     1      -7.494   0.614 -34.269  1.00  0.00     0.320 C 
HETATM   27  N   UNL     1      -6.818  -0.258 -33.463  1.00  0.00    -0.309 N 
HETATM   28  O   UNL     1      -7.698   0.493 -35.473  1.00  0.00    -0.247 OA
HETATM   29  H   UNL     1      -6.793  -0.032 -32.483  1.00  0.00     0.170 HD
HETATM   30  H   UNL     1      -8.437   2.327 -34.348  1.00  0.00     0.164 HD
BRANCH  27  31
HETATM   31  C   UNL     1      -6.217  -1.481 -33.835  1.00  0.00     0.039 A 
HETATM   32  C   UNL     1      -6.893  -2.521 -34.476  1.00  0.00     0.071 A 
HETATM   33  C   UNL     1      -6.214  -3.694 -34.796  1.00  0.00     0.118 A 
HETATM   34  F   UNL     1      -6.869  -4.688 -35.411  1.00  0.00    -0.206 F 
HETATM   35  C   UNL     1      -4.869  -3.856 -34.491  1.00  0.00     0.042 A 
HETATM   36  C   UNL     1      -4.185  -2.825 -33.856  1.00  0.00     0.005 A 
HETATM   37  C   UNL     1      -4.857  -1.643 -33.531  1.00  0.00     0.030 A 
ENDBRANCH  27  31
ENDBRANCH  24  25
ENDBRANCH   4  24
TORSDOF 7
ENDMDL
MODEL 9
REMARK VINA RESULT:      -9.3      1.646      2.537
REMARK  7 active torsions:
REMARK  status: ('A' for Active; 'I' for Inactive)
REMARK    1  A    between atoms: C_4  and  N_5 
REMARK    2  A    between atoms: C_6  and  S_7 
REMARK    3  A    between atoms: S_7  and  C_8 
REMARK    4  A    between atoms: C_8  and  C_9 
REMARK       I    between atoms: C_9  and  N_10 
REMARK    5  A    between atoms: C_12  and  C_13 
REMARK    6  A    between atoms: C_13  and  N_14 
REMARK       I    between atoms: N_14  and  C_15 
REMARK       I    between atoms: C_15  and  N_16 
REMARK    7  A    between atoms: N_16  and  C_17 
ROOT
HETATM    1  C   UNL     1      -7.379   4.993 -31.082  1.00  0.00     0.229 C 
HETATM    2  N   UNL     1      -6.353   4.642 -31.983  1.00  0.00    -0.351 N 
HETATM    3  C   UNL     1      -5.020   4.535 -31.378  1.00  0.00     0.132 C 
HETATM    4  C   UNL     1      -4.019   3.803 -32.280  1.00  0.00     0.021 C 
HETATM    5  C   UNL     1      -3.933   4.553 -33.615  1.00  0.00     0.009 C 
HETATM    6  C   UNL     1      -5.305   4.536 -34.273  1.00  0.00     0.020 C 
HETATM    7  C   UNL     1      -6.392   5.103 -33.367  1.00  0.00     0.126 C 
HETATM    8  O   UNL     1      -7.110   5.214 -29.894  1.00  0.00    -0.273 OA
ENDROOT
BRANCH   1   9
HETATM    9  C   UNL     1      -8.843   4.842 -31.488  1.00  0.00     0.185 C 
BRANCH   9  10
HETATM   10  S   UNL     1      -9.813   3.453 -30.880  1.00  0.00    -0.082 SA
BRANCH  10  11
HETATM   11  C   UNL     1     -10.371   2.672 -32.316  1.00  0.00     0.173 A 
HETATM   12  N   UNL     1      -9.802   1.550 -32.936  1.00  0.00    -0.300 N 
HETATM   13  C   UNL     1     -10.682   1.271 -33.977  1.00  0.00     0.118 A 
HETATM   14  C   UNL     1     -11.672   2.219 -33.939  1.00  0.00     0.137 A 
HETATM   15  N   UNL     1     -11.469   3.079 -32.912  1.00  0.00    -0.235 NA
BRANCH  12  16
HETATM   16  C   UNL     1      -8.583   0.811 -32.685  1.00  0.00     0.042 A 
HETATM   17  C   UNL     1      -7.767   1.038 -31.568  1.00  0.00     0.037 A 
HETATM   18  C   UNL     1      -6.565   0.336 -31.371  1.00  0.00    -0.059 A 
HETATM   19  C   UNL     1      -5.739   0.577 -30.139  1.00  0.00     0.048 C 
HETATM   20  C   UNL     1      -6.174  -0.629 -32.298  1.00  0.00     0.013 A 
HETATM   21  C   UNL     1      -6.955  -0.877 -33.426  1.00  0.00    -0.059 A 
HETATM   22  C   UNL     1      -8.156  -0.168 -33.606  1.00  0.00     0.037 A 
HETATM   23  C   UNL     1      -6.529  -1.930 -34.408  1.00  0.00     0.048 C 
ENDBRANCH  12  16
ENDBRANCH  10  11
ENDBRANCH   9  10
ENDBRANCH   1   9
BRANCH   4  24
HETATM   24  C   UNL     1      -2.658   3.663 -31.591  1.00  0.00     0.130 C 
BRANCH  24  25
HETATM   25  N   UNL     1      -1.698   4.637 -32.091  1.00  0.00    -0.342 N 
HETATM   26  C   UNL     1      -1.058   5.655 -31.453  1.00  0.00     0.320 C 
HETATM   27  N   UNL     1      -1.208   5.703 -30.096  1.00  0.00    -0.309 N 
HETATM   28  O   UNL     1      -0.405   6.427 -32.147  1.00  0.00    -0.247 OA
HETATM   29  H   UNL     1      -1.734   4.954 -29.678  1.00  0.00     0.170 HD
HETATM   30  H   UNL     1      -1.563   4.713 -33.093  1.00  0.00     0.164 HD
BRANCH  27  31
HETATM   31  C   UNL     1      -0.644   6.641 -29.204  1.00  0.00     0.039 A 
HETATM   32  C   UNL     1       0.437   6.368 -28.364  1.00  0.00     0.071 A 
HETATM   33  C   UNL     1       0.919   7.359 -27.511  1.00  0.00     0.118 A 
HETATM   34  F   UNL     1       1.957   7.090 -26.708  1.00  0.00    -0.206 F 
HETATM   35  C   UNL     1       0.344   8.623 -27.474  1.00  0.00     0.042 A 
HETATM   36  C   UNL     1      -0.733   8.906 -28.309  1.00  0.00     0.005 A 
HETATM   37  C   UNL     1      -1.222   7.919 -29.170  1.00  0.00     0.030 A 
ENDBRANCH  27  31
ENDBRANCH  24  25
ENDBRANCH   4  24
TORSDOF 7
ENDMDL
MODEL 10
REMARK VINA RESULT:      -9.2      2.510      3.006
REMARK  7 active torsions:
REMARK  status: ('A' for Active; 'I' for Inactive)
REMARK    1  A    between atoms: C_4  and  N_5 
REMARK    2  A    between atoms: C_6  and  S_7 
REMARK    3  A    between atoms: S_7  and  C_8 
REMARK    4  A    between atoms: C_8  and  C_9 
REMARK       I    between atoms: C_9  and  N_10 
REMARK    5  A    between atoms: C_12  and  C_13 
REMARK    6  A    between atoms: C_13  and  N_14 
REMARK       I    between atoms: N_14  and  C_15 
REMARK       I    between atoms: C_15  and  N_16 
REMARK    7  A    between atoms: N_16  and  C_17 
ROOT
HETATM    1  C   UNL     1      -5.276   5.563 -33.493  1.00  0.00     0.229 C 
HETATM    2  N   UNL     1      -3.878   5.563 -33.672  1.00  0.00    -0.351 N 
HETATM    3  C   UNL     1      -3.164   6.582 -32.894  1.00  0.00     0.132 C 
HETATM    4  C   UNL     1      -1.655   6.317 -32.820  1.00  0.00     0.021 C 
HETATM    5  C   UNL     1      -1.103   6.262 -34.249  1.00  0.00     0.009 C 
HETATM    6  C   UNL     1      -1.776   5.114 -34.987  1.00  0.00     0.020 C 
HETATM    7  C   UNL     1      -3.296   5.220 -34.965  1.00  0.00     0.126 C 
HETATM    8  O   UNL     1      -5.806   6.403 -32.753  1.00  0.00    -0.273 OA
ENDROOT
BRANCH   1   9
HETATM    9  C   UNL     1      -6.114   4.385 -33.983  1.00  0.00     0.185 C 
BRANCH   9  10
HETATM   10  S   UNL     1      -6.066   2.813 -33.108  1.00  0.00    -0.082 SA
BRANCH  10  11
HETATM   11  C   UNL     1      -7.495   1.997 -33.632  1.00  0.00     0.173 A 
HETATM   12  N   UNL     1      -7.636   0.623 -33.873  1.00  0.00    -0.300 N 
HETATM   13  C   UNL     1      -8.989   0.482 -34.168  1.00  0.00     0.118 A 
HETATM   14  C   UNL     1      -9.551   1.731 -34.116  1.00  0.00     0.137 A 
HETATM   15  N   UNL     1      -8.620   2.659 -33.787  1.00  0.00    -0.235 NA
BRANCH  12  16
HETATM   16  C   UNL     1      -6.683  -0.465 -33.895  1.00  0.00     0.042 A 
HETATM   17  C   UNL     1      -6.906  -1.663 -34.589  1.00  0.00     0.037 A 
HETATM   18  C   UNL     1      -5.981  -2.722 -34.558  1.00  0.00    -0.059 A 
HETATM   19  C   UNL     1      -6.236  -3.974 -35.349  1.00  0.00     0.048 C 
HETATM   20  C   UNL     1      -4.799  -2.581 -33.835  1.00  0.00     0.013 A 
HETATM   21  C   UNL     1      -4.546  -1.407 -33.125  1.00  0.00    -0.059 A 
HETATM   22  C   UNL     1      -5.479  -0.356 -33.169  1.00  0.00     0.037 A 
HETATM   23  C   UNL     1      -3.259  -1.261 -32.363  1.00  0.00     0.048 C 
ENDBRANCH  12  16
ENDBRANCH  10  11
ENDBRANCH   9  10
ENDBRANCH   1   9
BRANCH   4  24
HETATM   24  C   UNL     1      -0.954   7.370 -31.954  1.00  0.00     0.130 C 
BRANCH  24  25
HETATM   25  N   UNL     1      -1.895   8.352 -31.434  1.00  0.00    -0.342 N 
HETATM   26  C   UNL     1      -2.127   8.763 -30.157  1.00  0.00     0.320 C 
HETATM   27  N   UNL     1      -1.254   8.308 -29.211  1.00  0.00    -0.309 N 
HETATM   28  O   UNL     1      -3.087   9.505 -29.975  1.00  0.00    -0.247 OA
HETATM   29  H   UNL     1      -0.485   7.751 -29.544  1.00  0.00     0.170 HD
HETATM   30  H   UNL     1      -2.617   8.705 -32.052  1.00  0.00     0.164 HD
BRANCH  27  31
HETATM   31  C   UNL     1      -1.263   8.593 -27.828  1.00  0.00     0.039 A 
HETATM   32  C   UNL     1      -1.968   7.847 -26.881  1.00  0.00     0.071 A 
HETATM   33  C   UNL     1      -1.921   8.212 -25.538  1.00  0.00     0.118 A 
HETATM   34  F   UNL     1      -2.600   7.491 -24.635  1.00  0.00    -0.206 F 
HETATM   35  C   UNL     1      -1.184   9.310 -25.112  1.00  0.00     0.042 A 
HETATM   36  C   UNL     1      -0.476  10.058 -26.047  1.00  0.00     0.005 A 
HETATM   37  C   UNL     1      -0.515   9.699 -27.398  1.00  0.00     0.030 A 
ENDBRANCH  27  31
ENDBRANCH  24  25
ENDBRANCH   4  24
TORSDOF 7
ENDMDL
