MODEL 1
REMARK VINA RESULT:      -9.8      0.000      0.000
REMARK  3 active torsions:
REMARK  status: ('A' for Active; 'I' for Inactive)
REMARK    1  A    between atoms: C_2  and  N_3 
REMARK    2  A    between atoms: C_7  and  C_8 
REMARK       I    between atoms: C_8  and  N_9 
REMARK    3  A    between atoms: N_9  and  C_10 
ROOT
HETATM    1  C   UNL     1     -11.583   1.185 -33.479  1.00  0.00     0.036 A 
HETATM    2  C   UNL     1     -12.071   2.487 -33.379  1.00  0.00     0.049 A 
HETATM    3  C   UNL     1     -13.458   2.748 -33.343  1.00  0.00     0.061 A 
HETATM    4  C   UNL     1     -14.368   1.683 -33.401  1.00  0.00     0.050 A 
HETATM    5  N   UNL     1     -15.764   1.773 -33.274  1.00  0.00    -0.324 N 
HETATM    6  C   UNL     1     -16.499   2.680 -32.558  1.00  0.00     0.245 C 
HETATM    7  O   UNL     1     -17.703   2.456 -32.408  1.00  0.00    -0.271 OA
HETATM    8  C   UNL     1     -15.762   3.787 -31.808  1.00  0.00     0.180 C 
HETATM    9  N   UNL     1     -14.972   4.594 -32.724  1.00  0.00    -0.334 N 
HETATM   10  C   UNL     1     -13.844   4.182 -33.388  1.00  0.00     0.256 C 
HETATM   11  O   UNL     1     -13.135   4.965 -34.016  1.00  0.00    -0.267 OA
HETATM   12  C   UNL     1     -16.723   4.788 -31.152  1.00  0.00     0.037 C 
HETATM   13  C   UNL     1     -15.991   6.117 -31.271  1.00  0.00     0.022 C 
HETATM   14  C   UNL     1     -15.313   6.001 -32.624  1.00  0.00     0.127 C 
HETATM   15  C   UNL     1     -13.870   0.387 -33.595  1.00  0.00     0.033 A 
HETATM   16  C   UNL     1     -12.495   0.139 -33.623  1.00  0.00     0.032 A 
HETATM   17  H   UNL     1     -16.324   0.974 -33.548  1.00  0.00     0.169 HD
ENDROOT
BRANCH   1  18
HETATM   18  N   UNL     1     -10.217   0.840 -33.405  1.00  0.00    -0.323 N 
HETATM   19  C   UNL     1      -9.326   1.158 -32.396  1.00  0.00     0.256 C 
HETATM   20  O   UNL     1      -9.505   1.958 -31.486  1.00  0.00    -0.267 OA
HETATM   21  H   UNL     1      -9.861   0.275 -34.165  1.00  0.00     0.169 HD
BRANCH  19  22
HETATM   22  C   UNL     1      -8.024   0.432 -32.453  1.00  0.00     0.033 A 
HETATM   23  C   UNL     1      -7.676  -0.341 -33.572  1.00  0.00     0.030 A 
HETATM   24  C   UNL     1      -6.463  -1.058 -33.569  1.00  0.00    -0.007 A 
HETATM   25  C   UNL     1      -5.633  -0.999 -32.444  1.00  0.00     0.044 A 
HETATM   26  C   UNL     1      -5.837  -1.910 -34.516  1.00  0.00     0.031 A 
HETATM   27  N   UNL     1      -4.544  -1.813 -32.705  1.00  0.00    -0.352 N 
HETATM   28  C   UNL     1      -5.977  -0.233 -31.317  1.00  0.00     0.031 A 
HETATM   29  C   UNL     1      -4.659  -2.352 -33.965  1.00  0.00     0.092 A 
HETATM   30  C   UNL     1      -7.185   0.474 -31.339  1.00  0.00     0.019 A 
BRANCH  27  31
HETATM   31  C   UNL     1      -3.439  -2.092 -31.786  1.00  0.00     0.081 C 
HETATM   32  C   UNL     1      -2.314  -1.067 -31.933  1.00  0.00     0.032 C 
HETATM   33  C   UNL     1      -2.920  -3.521 -31.946  1.00  0.00     0.032 C 
ENDBRANCH  27  31
ENDBRANCH  19  22
ENDBRANCH   1  18
TORSDOF 3
ENDMDL
MODEL 2
REMARK VINA RESULT:      -9.8      7.070     10.668
REMARK  3 active torsions:
REMARK  status: ('A' for Active; 'I' for Inactive)
REMARK    1  A    between atoms: C_2  and  N_3 
REMARK    2  A    between atoms: C_7  and  C_8 
REMARK       I    between atoms: C_8  and  N_9 
REMARK    3  A    between atoms: N_9  and  C_10 
ROOT
HETATM    1  C   UNL     1      -2.803   4.446 -32.391  1.00  0.00     0.036 A 
HETATM    2  C   UNL     1      -1.749   4.836 -31.567  1.00  0.00     0.049 A 
HETATM    3  C   UNL     1      -1.544   6.192 -31.230  1.00  0.00     0.061 A 
HETATM    4  C   UNL     1      -2.418   7.170 -31.725  1.00  0.00     0.050 A 
HETATM    5  N   UNL     1      -2.406   8.537 -31.400  1.00  0.00    -0.324 N 
HETATM    6  C   UNL     1      -2.011   9.134 -30.232  1.00  0.00     0.245 C 
HETATM    7  O   UNL     1      -2.280  10.328 -30.076  1.00  0.00    -0.271 OA
HETATM    8  C   UNL     1      -1.465   8.252 -29.111  1.00  0.00     0.180 C 
HETATM    9  N   UNL     1      -0.298   7.511 -29.560  1.00  0.00    -0.334 N 
HETATM   10  C   UNL     1      -0.301   6.486 -30.472  1.00  0.00     0.256 C 
HETATM   11  O   UNL     1       0.695   5.797 -30.680  1.00  0.00    -0.267 OA
HETATM   12  C   UNL     1      -0.959   9.073 -27.918  1.00  0.00     0.037 C 
HETATM   13  C   UNL     1       0.233   8.273 -27.413  1.00  0.00     0.022 C 
HETATM   14  C   UNL     1       0.846   7.747 -28.699  1.00  0.00     0.127 C 
HETATM   15  C   UNL     1      -3.418   6.781 -32.626  1.00  0.00     0.033 A 
HETATM   16  C   UNL     1      -3.616   5.435 -32.947  1.00  0.00     0.032 A 
HETATM   17  H   UNL     1      -2.941   9.173 -31.980  1.00  0.00     0.169 HD
ENDROOT
BRANCH   1  18
HETATM   18  N   UNL     1      -3.137   3.106 -32.675  1.00  0.00    -0.323 N 
HETATM   19  C   UNL     1      -3.921   2.258 -31.913  1.00  0.00     0.256 C 
HETATM   20  O   UNL     1      -4.304   2.448 -30.766  1.00  0.00    -0.267 OA
HETATM   21  H   UNL     1      -2.781   2.736 -33.547  1.00  0.00     0.169 HD
BRANCH  19  22
HETATM   22  C   UNL     1      -4.324   0.993 -32.593  1.00  0.00     0.033 A 
HETATM   23  C   UNL     1      -5.675   0.700 -32.833  1.00  0.00     0.030 A 
HETATM   24  C   UNL     1      -6.023  -0.529 -33.430  1.00  0.00    -0.007 A 
HETATM   25  C   UNL     1      -5.015  -1.443 -33.756  1.00  0.00     0.044 A 
HETATM   26  C   UNL     1      -7.264  -1.114 -33.794  1.00  0.00     0.031 A 
HETATM   27  N   UNL     1      -5.641  -2.558 -34.288  1.00  0.00    -0.352 N 
HETATM   28  C   UNL     1      -3.660  -1.161 -33.513  1.00  0.00     0.031 A 
HETATM   29  C   UNL     1      -7.001  -2.353 -34.326  1.00  0.00     0.092 A 
HETATM   30  C   UNL     1      -3.334   0.066 -32.923  1.00  0.00     0.019 A 
BRANCH  27  31
HETATM   31  C   UNL     1      -4.979  -3.788 -34.727  1.00  0.00     0.081 C 
HETATM   32  C   UNL     1      -5.979  -4.784 -35.315  1.00  0.00     0.032 C 
HETATM   33  C   UNL     1      -4.156  -4.418 -33.602  1.00  0.00     0.032 C 
ENDBRANCH  27  31
ENDBRANCH  19  22
ENDBRANCH   1  18
TORSDOF 3
ENDMDL
MODEL 3
REMARK VINA RESULT:      -9.3      6.720      9.670
REMARK  3 active torsions:
REMARK  status: ('A' for Active; 'I' for Inactive)
REMARK    1  A    between atoms: C_2  and  N_3 
REMARK    2  A    between atoms: C_7  and  C_8 
REMARK       I    between atoms: C_8  and  N_9 
REMARK    3  A    between atoms: N_9  and  C_10 
ROOT
HETATM    1  C   UNL     1      -3.636   2.608 -31.936  1.00  0.00     0.036 A 
HETATM    2  C   UNL     1      -4.907   2.916 -32.419  1.00  0.00     0.049 A 
HETATM    3  C   UNL     1      -5.728   1.927 -33.003  1.00  0.00     0.061 A 
HETATM    4  C   UNL     1      -5.267   0.607 -33.097  1.00  0.00     0.050 A 
HETATM    5  N   UNL     1      -5.999  -0.501 -33.556  1.00  0.00    -0.324 N 
HETATM    6  C   UNL     1      -7.349  -0.721 -33.481  1.00  0.00     0.245 C 
HETATM    7  O   UNL     1      -7.764  -1.851 -33.753  1.00  0.00    -0.271 OA
HETATM    8  C   UNL     1      -8.232   0.360 -32.862  1.00  0.00     0.180 C 
HETATM    9  N   UNL     1      -8.102   1.611 -33.591  1.00  0.00    -0.334 N 
HETATM   10  C   UNL     1      -6.992   2.417 -33.611  1.00  0.00     0.256 C 
HETATM   11  O   UNL     1      -7.010   3.539 -34.113  1.00  0.00    -0.267 OA
HETATM   12  C   UNL     1      -9.725   0.019 -32.955  1.00  0.00     0.037 C 
HETATM   13  C   UNL     1     -10.389   1.372 -33.163  1.00  0.00     0.022 C 
HETATM   14  C   UNL     1      -9.392   2.098 -34.048  1.00  0.00     0.127 C 
HETATM   15  C   UNL     1      -3.953   0.327 -32.694  1.00  0.00     0.033 A 
HETATM   16  C   UNL     1      -3.152   1.311 -32.111  1.00  0.00     0.032 A 
HETATM   17  H   UNL     1      -5.496  -1.351 -33.779  1.00  0.00     0.169 HD
ENDROOT
BRANCH   1  18
HETATM   18  N   UNL     1      -2.809   3.514 -31.240  1.00  0.00    -0.323 N 
HETATM   19  C   UNL     1      -2.005   4.501 -31.781  1.00  0.00     0.256 C 
HETATM   20  O   UNL     1      -1.712   4.642 -32.961  1.00  0.00    -0.267 OA
HETATM   21  H   UNL     1      -2.829   3.445 -30.231  1.00  0.00     0.169 HD
BRANCH  19  22
HETATM   22  C   UNL     1      -1.458   5.478 -30.795  1.00  0.00     0.033 A 
HETATM   23  C   UNL     1      -2.182   6.627 -30.438  1.00  0.00     0.030 A 
HETATM   24  C   UNL     1      -1.611   7.556 -29.544  1.00  0.00    -0.007 A 
HETATM   25  C   UNL     1      -0.327   7.324 -29.041  1.00  0.00     0.044 A 
HETATM   26  C   UNL     1      -2.068   8.784 -28.999  1.00  0.00     0.031 A 
HETATM   27  N   UNL     1      -0.014   8.399 -28.226  1.00  0.00    -0.352 N 
HETATM   28  C   UNL     1       0.407   6.180 -29.397  1.00  0.00     0.031 A 
HETATM   29  C   UNL     1      -1.074   9.276 -28.189  1.00  0.00     0.092 A 
HETATM   30  C   UNL     1      -0.176   5.267 -30.284  1.00  0.00     0.019 A 
BRANCH  27  31
HETATM   31  C   UNL     1       1.253   8.606 -27.523  1.00  0.00     0.081 C 
HETATM   32  C   UNL     1       1.509   7.506 -26.492  1.00  0.00     0.032 C 
HETATM   33  C   UNL     1       1.326   9.996 -26.890  1.00  0.00     0.032 C 
ENDBRANCH  27  31
ENDBRANCH  19  22
ENDBRANCH   1  18
TORSDOF 3
ENDMDL
MODEL 4
REMARK VINA RESULT:      -8.9      6.947      9.294
REMARK  3 active torsions:
REMARK  status: ('A' for Active; 'I' for Inactive)
REMARK    1  A    between atoms: C_2  and  N_3 
REMARK    2  A    between atoms: C_7  and  C_8 
REMARK       I    between atoms: C_8  and  N_9 
REMARK    3  A    between atoms: N_9  and  C_10 
ROOT
HETATM    1  C   UNL     1      -3.117   4.178 -32.057  1.00  0.00     0.036 A 
HETATM    2  C   UNL     1      -3.971   4.908 -31.231  1.00  0.00     0.049 A 
HETATM    3  C   UNL     1      -3.661   6.230 -30.842  1.00  0.00     0.061 A 
HETATM    4  C   UNL     1      -2.478   6.829 -31.297  1.00  0.00     0.050 A 
HETATM    5  N   UNL     1      -2.084   8.160 -31.082  1.00  0.00    -0.324 N 
HETATM    6  C   UNL     1      -2.872   9.269 -30.925  1.00  0.00     0.245 C 
HETATM    7  O   UNL     1      -2.325  10.374 -30.960  1.00  0.00    -0.271 OA
HETATM    8  C   UNL     1      -4.389   9.093 -30.938  1.00  0.00     0.180 C 
HETATM    9  N   UNL     1      -4.813   8.188 -29.883  1.00  0.00    -0.334 N 
HETATM   10  C   UNL     1      -4.577   6.837 -29.842  1.00  0.00     0.256 C 
HETATM   11  O   UNL     1      -5.105   6.108 -29.005  1.00  0.00    -0.267 OA
HETATM   12  C   UNL     1      -5.130  10.403 -30.636  1.00  0.00     0.037 C 
HETATM   13  C   UNL     1      -6.352   9.949 -29.849  1.00  0.00     0.022 C 
HETATM   14  C   UNL     1      -5.802   8.804 -29.017  1.00  0.00     0.127 C 
HETATM   15  C   UNL     1      -1.583   6.056 -32.050  1.00  0.00     0.033 A 
HETATM   16  C   UNL     1      -1.903   4.751 -32.434  1.00  0.00     0.032 A 
HETATM   17  H   UNL     1      -1.121   8.412 -31.271  1.00  0.00     0.169 HD
ENDROOT
BRANCH   1  18
HETATM   18  N   UNL     1      -3.414   2.902 -32.578  1.00  0.00    -0.323 N 
HETATM   19  C   UNL     1      -3.339   1.688 -31.917  1.00  0.00     0.256 C 
HETATM   20  O   UNL     1      -2.818   1.478 -30.829  1.00  0.00    -0.267 OA
HETATM   21  H   UNL     1      -3.741   2.878 -33.535  1.00  0.00     0.169 HD
BRANCH  19  22
HETATM   22  C   UNL     1      -3.971   0.542 -32.632  1.00  0.00     0.033 A 
HETATM   23  C   UNL     1      -5.366   0.454 -32.767  1.00  0.00     0.030 A 
HETATM   24  C   UNL     1      -5.932  -0.670 -33.401  1.00  0.00    -0.007 A 
HETATM   25  C   UNL     1      -5.093  -1.687 -33.871  1.00  0.00     0.044 A 
HETATM   26  C   UNL     1      -7.268  -1.052 -33.687  1.00  0.00     0.031 A 
HETATM   27  N   UNL     1      -5.912  -2.665 -34.410  1.00  0.00    -0.352 N 
HETATM   28  C   UNL     1      -3.697  -1.611 -33.734  1.00  0.00     0.031 A 
HETATM   29  C   UNL     1      -7.228  -2.274 -34.313  1.00  0.00     0.092 A 
HETATM   30  C   UNL     1      -3.153  -0.486 -33.103  1.00  0.00     0.019 A 
BRANCH  27  31
HETATM   31  C   UNL     1      -5.470  -3.939 -34.979  1.00  0.00     0.081 C 
HETATM   32  C   UNL     1      -6.632  -4.704 -35.614  1.00  0.00     0.032 C 
HETATM   33  C   UNL     1      -4.736  -4.794 -33.945  1.00  0.00     0.032 C 
ENDBRANCH  27  31
ENDBRANCH  19  22
ENDBRANCH   1  18
TORSDOF 3
ENDMDL
MODEL 5
REMARK VINA RESULT:      -8.9      6.962      9.428
REMARK  3 active torsions:
REMARK  status: ('A' for Active; 'I' for Inactive)
REMARK    1  A    between atoms: C_2  and  N_3 
REMARK    2  A    between atoms: C_7  and  C_8 
REMARK       I    between atoms: C_8  and  N_9 
REMARK    3  A    between atoms: N_9  and  C_10 
ROOT
HETATM    1  C   UNL     1      -5.130   4.233 -30.649  1.00  0.00     0.036 A 
HETATM    2  C   UNL     1      -4.236   5.299 -30.736  1.00  0.00     0.049 A 
HETATM    3  C   UNL     1      -4.237   6.337 -29.778  1.00  0.00     0.061 A 
HETATM    4  C   UNL     1      -5.146   6.298 -28.712  1.00  0.00     0.050 A 
HETATM    5  N   UNL     1      -5.202   7.195 -27.632  1.00  0.00    -0.324 N 
HETATM    6  C   UNL     1      -4.179   7.896 -27.052  1.00  0.00     0.245 C 
HETATM    7  O   UNL     1      -4.406   8.466 -25.982  1.00  0.00    -0.271 OA
HETATM    8  C   UNL     1      -2.775   7.756 -27.636  1.00  0.00     0.180 C 
HETATM    9  N   UNL     1      -2.754   8.160 -29.032  1.00  0.00    -0.334 N 
HETATM   10  C   UNL     1      -3.340   7.484 -30.072  1.00  0.00     0.256 C 
HETATM   11  O   UNL     1      -3.142   7.795 -31.244  1.00  0.00    -0.267 OA
HETATM   12  C   UNL     1      -1.764   8.688 -26.954  1.00  0.00     0.037 C 
HETATM   13  C   UNL     1      -0.825   9.084 -28.085  1.00  0.00     0.022 C 
HETATM   14  C   UNL     1      -1.765   9.196 -29.271  1.00  0.00     0.127 C 
HETATM   15  C   UNL     1      -6.101   5.272 -28.684  1.00  0.00     0.033 A 
HETATM   16  C   UNL     1      -6.087   4.247 -29.633  1.00  0.00     0.032 A 
HETATM   17  H   UNL     1      -6.029   7.192 -27.047  1.00  0.00     0.169 HD
ENDROOT
BRANCH   1  18
HETATM   18  N   UNL     1      -5.111   3.108 -31.498  1.00  0.00    -0.323 N 
HETATM   19  C   UNL     1      -4.093   2.182 -31.641  1.00  0.00     0.256 C 
HETATM   20  O   UNL     1      -2.952   2.276 -31.207  1.00  0.00    -0.267 OA
HETATM   21  H   UNL     1      -5.948   2.952 -32.045  1.00  0.00     0.169 HD
BRANCH  19  22
HETATM   22  C   UNL     1      -4.461   0.955 -32.405  1.00  0.00     0.033 A 
HETATM   23  C   UNL     1      -5.803   0.649 -32.678  1.00  0.00     0.030 A 
HETATM   24  C   UNL     1      -6.117  -0.547 -33.356  1.00  0.00    -0.007 A 
HETATM   25  C   UNL     1      -5.086  -1.415 -33.730  1.00  0.00     0.044 A 
HETATM   26  C   UNL     1      -7.341  -1.134 -33.771  1.00  0.00     0.031 A 
HETATM   27  N   UNL     1      -5.681  -2.507 -34.340  1.00  0.00    -0.352 N 
HETATM   28  C   UNL     1      -3.740  -1.120 -33.455  1.00  0.00     0.031 A 
HETATM   29  C   UNL     1      -7.045  -2.329 -34.379  1.00  0.00     0.092 A 
HETATM   30  C   UNL     1      -3.447   0.073 -32.783  1.00  0.00     0.019 A 
BRANCH  27  31
HETATM   31  C   UNL     1      -4.988  -3.691 -34.849  1.00  0.00     0.081 C 
HETATM   32  C   UNL     1      -5.966  -4.695 -35.461  1.00  0.00     0.032 C 
HETATM   33  C   UNL     1      -4.117  -4.342 -33.773  1.00  0.00     0.032 C 
ENDBRANCH  27  31
ENDBRANCH  19  22
ENDBRANCH   1  18
TORSDOF 3
ENDMDL
MODEL 6
REMARK VINA RESULT:      -8.7      1.765      2.447
REMARK  3 active torsions:
REMARK  status: ('A' for Active; 'I' for Inactive)
REMARK    1  A    between atoms: C_2  and  N_3 
REMARK    2  A    between atoms: C_7  and  C_8 
REMARK       I    between atoms: C_8  and  N_9 
REMARK    3  A    between atoms: N_9  and  C_10 
ROOT
HETATM    1  C   UNL     1     -11.051   1.677 -33.672  1.00  0.00     0.036 A 
HETATM    2  C   UNL     1     -11.028   2.957 -33.119  1.00  0.00     0.049 A 
HETATM    3  C   UNL     1     -12.223   3.666 -32.866  1.00  0.00     0.061 A 
HETATM    4  C   UNL     1     -13.458   3.076 -33.165  1.00  0.00     0.050 A 
HETATM    5  N   UNL     1     -14.726   3.610 -32.879  1.00  0.00    -0.324 N 
HETATM    6  C   UNL     1     -15.093   4.429 -31.844  1.00  0.00     0.245 C 
HETATM    7  O   UNL     1     -16.299   4.612 -31.655  1.00  0.00    -0.271 OA
HETATM    8  C   UNL     1     -14.019   4.890 -30.862  1.00  0.00     0.180 C 
HETATM    9  N   UNL     1     -12.966   5.616 -31.552  1.00  0.00    -0.334 N 
HETATM   10  C   UNL     1     -12.052   5.073 -32.419  1.00  0.00     0.256 C 
HETATM   11  O   UNL     1     -11.090   5.713 -32.836  1.00  0.00    -0.267 OA
HETATM   12  C   UNL     1     -14.561   5.892 -29.833  1.00  0.00     0.037 C 
HETATM   13  C   UNL     1     -13.388   6.834 -29.600  1.00  0.00     0.022 C 
HETATM   14  C   UNL     1     -12.767   6.937 -30.981  1.00  0.00     0.127 C 
HETATM   15  C   UNL     1     -13.467   1.829 -33.805  1.00  0.00     0.033 A 
HETATM   16  C   UNL     1     -12.280   1.133 -34.045  1.00  0.00     0.032 A 
HETATM   17  H   UNL     1     -15.534   3.199 -33.333  1.00  0.00     0.169 HD
ENDROOT
BRANCH   1  18
HETATM   18  N   UNL     1      -9.911   0.866 -33.845  1.00  0.00    -0.323 N 
HETATM   19  C   UNL     1      -8.595   1.280 -33.951  1.00  0.00     0.256 C 
HETATM   20  O   UNL     1      -8.199   2.428 -34.111  1.00  0.00    -0.267 OA
HETATM   21  H   UNL     1     -10.076  -0.132 -33.870  1.00  0.00     0.169 HD
BRANCH  19  22
HETATM   22  C   UNL     1      -7.581   0.190 -33.854  1.00  0.00     0.033 A 
HETATM   23  C   UNL     1      -6.524   0.266 -32.934  1.00  0.00     0.030 A 
HETATM   24  C   UNL     1      -5.554  -0.756 -32.906  1.00  0.00    -0.007 A 
HETATM   25  C   UNL     1      -5.653  -1.821 -33.809  1.00  0.00     0.044 A 
HETATM   26  C   UNL     1      -4.392  -0.970 -32.120  1.00  0.00     0.031 A 
HETATM   27  N   UNL     1      -4.564  -2.645 -33.580  1.00  0.00    -0.352 N 
HETATM   28  C   UNL     1      -6.704  -1.901 -34.738  1.00  0.00     0.031 A 
HETATM   29  C   UNL     1      -3.809  -2.138 -32.547  1.00  0.00     0.092 A 
HETATM   30  C   UNL     1      -7.660  -0.878 -34.749  1.00  0.00     0.019 A 
BRANCH  27  31
HETATM   31  C   UNL     1      -4.233  -3.859 -34.326  1.00  0.00     0.081 C 
HETATM   32  C   UNL     1      -5.490  -4.628 -34.735  1.00  0.00     0.032 C 
HETATM   33  C   UNL     1      -3.260  -4.750 -33.551  1.00  0.00     0.032 C 
ENDBRANCH  27  31
ENDBRANCH  19  22
ENDBRANCH   1  18
TORSDOF 3
ENDMDL
MODEL 7
REMARK VINA RESULT:      -8.4      1.971      2.379
REMARK  3 active torsions:
REMARK  status: ('A' for Active; 'I' for Inactive)
REMARK    1  A    between atoms: C_2  and  N_3 
REMARK    2  A    between atoms: C_7  and  C_8 
REMARK       I    between atoms: C_8  and  N_9 
REMARK    3  A    between atoms: N_9  and  C_10 
ROOT
HETATM    1  C   UNL     1     -10.659   3.200 -32.726  1.00  0.00     0.036 A 
HETATM    2  C   UNL     1     -11.095   4.095 -31.751  1.00  0.00     0.049 A 
HETATM    3  C   UNL     1     -12.241   4.896 -31.952  1.00  0.00     0.061 A 
HETATM    4  C   UNL     1     -12.962   4.789 -33.149  1.00  0.00     0.050 A 
HETATM    5  N   UNL     1     -14.170   5.439 -33.454  1.00  0.00    -0.324 N 
HETATM    6  C   UNL     1     -15.171   5.823 -32.601  1.00  0.00     0.245 C 
HETATM    7  O   UNL     1     -16.240   6.188 -33.097  1.00  0.00    -0.271 OA
HETATM    8  C   UNL     1     -14.991   5.574 -31.106  1.00  0.00     0.180 C 
HETATM    9  N   UNL     1     -13.804   6.250 -30.609  1.00  0.00    -0.334 N 
HETATM   10  C   UNL     1     -12.507   5.913 -30.902  1.00  0.00     0.256 C 
HETATM   11  O   UNL     1     -11.554   6.423 -30.317  1.00  0.00    -0.267 OA
HETATM   12  C   UNL     1     -16.140   6.161 -30.274  1.00  0.00     0.037 C 
HETATM   13  C   UNL     1     -15.456   6.621 -28.995  1.00  0.00     0.022 C 
HETATM   14  C   UNL     1     -14.119   7.133 -29.500  1.00  0.00     0.127 C 
HETATM   15  C   UNL     1     -12.464   3.955 -34.159  1.00  0.00     0.033 A 
HETATM   16  C   UNL     1     -11.333   3.162 -33.947  1.00  0.00     0.032 A 
HETATM   17  H   UNL     1     -14.478   5.453 -34.419  1.00  0.00     0.169 HD
ENDROOT
BRANCH   1  18
HETATM   18  N   UNL     1      -9.597   2.289 -32.550  1.00  0.00    -0.323 N 
HETATM   19  C   UNL     1      -9.613   0.926 -32.788  1.00  0.00     0.256 C 
HETATM   20  O   UNL     1     -10.599   0.232 -33.004  1.00  0.00    -0.267 OA
HETATM   21  H   UNL     1      -8.720   2.685 -32.239  1.00  0.00     0.169 HD
BRANCH  19  22
HETATM   22  C   UNL     1      -8.274   0.268 -32.775  1.00  0.00     0.033 A 
HETATM   23  C   UNL     1      -7.853  -0.535 -33.846  1.00  0.00     0.030 A 
HETATM   24  C   UNL     1      -6.604  -1.184 -33.776  1.00  0.00    -0.007 A 
HETATM   25  C   UNL     1      -5.813  -1.030 -32.632  1.00  0.00     0.044 A 
HETATM   26  C   UNL     1      -5.906  -2.044 -34.664  1.00  0.00     0.031 A 
HETATM   27  N   UNL     1      -4.675  -1.795 -32.824  1.00  0.00    -0.352 N 
HETATM   28  C   UNL     1      -6.230  -0.234 -31.552  1.00  0.00     0.031 A 
HETATM   29  C   UNL     1      -4.724  -2.396 -34.061  1.00  0.00     0.092 A 
HETATM   30  C   UNL     1      -7.473   0.405 -31.640  1.00  0.00     0.019 A 
BRANCH  27  31
HETATM   31  C   UNL     1      -3.586  -1.973 -31.862  1.00  0.00     0.081 C 
HETATM   32  C   UNL     1      -2.521  -0.885 -32.013  1.00  0.00     0.032 C 
HETATM   33  C   UNL     1      -2.975  -3.372 -31.955  1.00  0.00     0.032 C 
ENDBRANCH  27  31
ENDBRANCH  19  22
ENDBRANCH   1  18
TORSDOF 3
ENDMDL
MODEL 8
REMARK VINA RESULT:      -8.4      8.119     11.708
REMARK  3 active torsions:
REMARK  status: ('A' for Active; 'I' for Inactive)
REMARK    1  A    between atoms: C_2  and  N_3 
REMARK    2  A    between atoms: C_7  and  C_8 
REMARK       I    between atoms: C_8  and  N_9 
REMARK    3  A    between atoms: N_9  and  C_10 
ROOT
HETATM    1  C   UNL     1      -3.141   6.513 -31.019  1.00  0.00     0.036 A 
HETATM    2  C   UNL     1      -1.897   6.589 -30.394  1.00  0.00     0.049 A 
HETATM    3  C   UNL     1      -1.477   7.769 -29.741  1.00  0.00     0.061 A 
HETATM    4  C   UNL     1      -2.323   8.885 -29.709  1.00  0.00     0.050 A 
HETATM    5  N   UNL     1      -2.091  10.087 -29.018  1.00  0.00    -0.324 N 
HETATM    6  C   UNL     1      -1.391  10.281 -27.857  1.00  0.00     0.245 C 
HETATM    7  O   UNL     1      -1.486  11.380 -27.305  1.00  0.00    -0.271 OA
HETATM    8  C   UNL     1      -0.716   9.078 -27.201  1.00  0.00     0.180 C 
HETATM    9  N   UNL     1       0.238   8.463 -28.109  1.00  0.00    -0.334 N 
HETATM   10  C   UNL     1      -0.074   7.767 -29.250  1.00  0.00     0.256 C 
HETATM   11  O   UNL     1       0.771   7.134 -29.878  1.00  0.00    -0.267 OA
HETATM   12  C   UNL     1       0.123   9.474 -25.979  1.00  0.00     0.037 C 
HETATM   13  C   UNL     1       1.299   8.511 -26.025  1.00  0.00     0.022 C 
HETATM   14  C   UNL     1       1.560   8.379 -27.515  1.00  0.00     0.127 C 
HETATM   15  C   UNL     1      -3.531   8.830 -30.419  1.00  0.00     0.033 A 
HETATM   16  C   UNL     1      -3.940   7.656 -31.056  1.00  0.00     0.032 A 
HETATM   17  H   UNL     1      -2.665  10.890 -29.245  1.00  0.00     0.169 HD
ENDROOT
BRANCH   1  18
HETATM   18  N   UNL     1      -3.673   5.338 -31.589  1.00  0.00    -0.323 N 
HETATM   19  C   UNL     1      -3.017   4.139 -31.804  1.00  0.00     0.256 C 
HETATM   20  O   UNL     1      -1.813   3.939 -31.723  1.00  0.00    -0.267 OA
HETATM   21  H   UNL     1      -4.651   5.374 -31.844  1.00  0.00     0.169 HD
BRANCH  19  22
HETATM   22  C   UNL     1      -3.902   2.994 -32.167  1.00  0.00     0.033 A 
HETATM   23  C   UNL     1      -3.447   1.670 -32.071  1.00  0.00     0.030 A 
HETATM   24  C   UNL     1      -4.291   0.616 -32.474  1.00  0.00    -0.007 A 
HETATM   25  C   UNL     1      -5.563   0.909 -32.979  1.00  0.00     0.044 A 
HETATM   26  C   UNL     1      -4.135  -0.795 -32.505  1.00  0.00     0.031 A 
HETATM   27  N   UNL     1      -6.148  -0.298 -33.320  1.00  0.00    -0.352 N 
HETATM   28  C   UNL     1      -6.024   2.232 -33.084  1.00  0.00     0.031 A 
HETATM   29  C   UNL     1      -5.290  -1.331 -33.019  1.00  0.00     0.092 A 
HETATM   30  C   UNL     1      -5.173   3.266 -32.677  1.00  0.00     0.019 A 
BRANCH  27  31
HETATM   31  C   UNL     1      -7.466  -0.473 -33.932  1.00  0.00     0.081 C 
HETATM   32  C   UNL     1      -7.536   0.185 -35.311  1.00  0.00     0.032 C 
HETATM   33  C   UNL     1      -8.584   0.027 -33.016  1.00  0.00     0.032 C 
ENDBRANCH  27  31
ENDBRANCH  19  22
ENDBRANCH   1  18
TORSDOF 3
ENDMDL
MODEL 9
REMARK VINA RESULT:      -8.3      5.046      6.216
REMARK  3 active torsions:
REMARK  status: ('A' for Active; 'I' for Inactive)
REMARK    1  A    between atoms: C_2  and  N_3 
REMARK    2  A    between atoms: C_7  and  C_8 
REMARK       I    between atoms: C_8  and  N_9 
REMARK    3  A    between atoms: N_9  and  C_10 
ROOT
HETATM    1  C   UNL     1      -7.492   3.113 -33.435  1.00  0.00     0.036 A 
HETATM    2  C   UNL     1      -8.662   3.867 -33.356  1.00  0.00     0.049 A 
HETATM    3  C   UNL     1      -9.897   3.352 -33.810  1.00  0.00     0.061 A 
HETATM    4  C   UNL     1      -9.956   2.058 -34.344  1.00  0.00     0.050 A 
HETATM    5  N   UNL     1     -11.118   1.374 -34.740  1.00  0.00    -0.324 N 
HETATM    6  C   UNL     1     -12.388   1.488 -34.240  1.00  0.00     0.245 C 
HETATM    7  O   UNL     1     -13.220   0.645 -34.584  1.00  0.00    -0.271 OA
HETATM    8  C   UNL     1     -12.647   2.506 -33.131  1.00  0.00     0.180 C 
HETATM    9  N   UNL     1     -12.301   3.847 -33.571  1.00  0.00    -0.334 N 
HETATM   10  C   UNL     1     -11.031   4.311 -33.809  1.00  0.00     0.256 C 
HETATM   11  O   UNL     1     -10.801   5.500 -34.017  1.00  0.00    -0.267 OA
HETATM   12  C   UNL     1     -14.133   2.598 -32.760  1.00  0.00     0.037 C 
HETATM   13  C   UNL     1     -14.326   4.069 -32.421  1.00  0.00     0.022 C 
HETATM   14  C   UNL     1     -13.419   4.761 -33.424  1.00  0.00     0.127 C 
HETATM   15  C   UNL     1      -8.761   1.344 -34.503  1.00  0.00     0.033 A 
HETATM   16  C   UNL     1      -7.546   1.859 -34.045  1.00  0.00     0.032 A 
HETATM   17  H   UNL     1     -11.015   0.539 -35.305  1.00  0.00     0.169 HD
ENDROOT
BRANCH   1  18
HETATM   18  N   UNL     1      -6.251   3.513 -32.899  1.00  0.00    -0.323 N 
HETATM   19  C   UNL     1      -5.303   4.326 -33.495  1.00  0.00     0.256 C 
HETATM   20  O   UNL     1      -5.278   4.684 -34.666  1.00  0.00    -0.267 OA
HETATM   21  H   UNL     1      -6.046   3.187 -31.963  1.00  0.00     0.169 HD
BRANCH  19  22
HETATM   22  C   UNL     1      -4.217   4.798 -32.588  1.00  0.00     0.033 A 
HETATM   23  C   UNL     1      -4.498   5.643 -31.503  1.00  0.00     0.030 A 
HETATM   24  C   UNL     1      -3.440   6.113 -30.699  1.00  0.00    -0.007 A 
HETATM   25  C   UNL     1      -2.126   5.741 -31.006  1.00  0.00     0.044 A 
HETATM   26  C   UNL     1      -3.388   6.959 -29.561  1.00  0.00     0.031 A 
HETATM   27  N   UNL     1      -1.305   6.366 -30.082  1.00  0.00    -0.352 N 
HETATM   28  C   UNL     1      -1.836   4.900 -32.094  1.00  0.00     0.031 A 
HETATM   29  C   UNL     1      -2.071   7.091 -29.198  1.00  0.00     0.092 A 
HETATM   30  C   UNL     1      -2.899   4.442 -32.880  1.00  0.00     0.019 A 
BRANCH  27  31
HETATM   31  C   UNL     1       0.156   6.300 -30.048  1.00  0.00     0.081 C 
HETATM   32  C   UNL     1       0.774   6.845 -31.337  1.00  0.00     0.032 C 
HETATM   33  C   UNL     1       0.650   4.884 -29.745  1.00  0.00     0.032 C 
ENDBRANCH  27  31
ENDBRANCH  19  22
ENDBRANCH   1  18
TORSDOF 3
ENDMDL
MODEL 10
REMARK VINA RESULT:      -8.1      7.543     10.148
REMARK  3 active torsions:
REMARK  status: ('A' for Active; 'I' for Inactive)
REMARK    1  A    between atoms: C_2  and  N_3 
REMARK    2  A    between atoms: C_7  and  C_8 
REMARK       I    between atoms: C_8  and  N_9 
REMARK    3  A    between atoms: N_9  and  C_10 
ROOT
HETATM    1  C   UNL     1      -5.838   4.721 -29.385  1.00  0.00     0.036 A 
HETATM    2  C   UNL     1      -5.578   3.445 -29.882  1.00  0.00     0.049 A 
HETATM    3  C   UNL     1      -6.609   2.646 -30.424  1.00  0.00     0.061 A 
HETATM    4  C   UNL     1      -7.919   3.141 -30.475  1.00  0.00     0.050 A 
HETATM    5  N   UNL     1      -9.024   2.512 -31.072  1.00  0.00    -0.324 N 
HETATM    6  C   UNL     1      -9.044   1.663 -32.147  1.00  0.00     0.245 C 
HETATM    7  O   UNL     1     -10.140   1.389 -32.643  1.00  0.00    -0.271 OA
HETATM    8  C   UNL     1      -7.718   1.281 -32.800  1.00  0.00     0.180 C 
HETATM    9  N   UNL     1      -6.836   0.639 -31.840  1.00  0.00    -0.334 N 
HETATM   10  C   UNL     1      -6.225   1.254 -30.776  1.00  0.00     0.256 C 
HETATM   11  O   UNL     1      -5.364   0.690 -30.105  1.00  0.00    -0.267 OA
HETATM   12  C   UNL     1      -7.895   0.237 -33.912  1.00  0.00     0.037 C 
HETATM   13  C   UNL     1      -6.638  -0.615 -33.805  1.00  0.00     0.022 C 
HETATM   14  C   UNL     1      -6.399  -0.664 -32.307  1.00  0.00     0.127 C 
HETATM   15  C   UNL     1      -8.187   4.387 -29.890  1.00  0.00     0.033 A 
HETATM   16  C   UNL     1      -7.158   5.172 -29.362  1.00  0.00     0.032 A 
HETATM   17  H   UNL     1      -9.950   2.862 -30.857  1.00  0.00     0.169 HD
ENDROOT
BRANCH   1  18
HETATM   18  N   UNL     1      -4.846   5.617 -28.937  1.00  0.00    -0.323 N 
HETATM   19  C   UNL     1      -4.840   6.340 -27.757  1.00  0.00     0.256 C 
HETATM   20  O   UNL     1      -5.778   6.486 -26.984  1.00  0.00    -0.267 OA
HETATM   21  H   UNL     1      -4.038   5.720 -29.537  1.00  0.00     0.169 HD
BRANCH  19  22
HETATM   22  C   UNL     1      -3.541   6.992 -27.425  1.00  0.00     0.033 A 
HETATM   23  C   UNL     1      -2.535   7.136 -28.393  1.00  0.00     0.030 A 
HETATM   24  C   UNL     1      -1.300   7.709 -28.030  1.00  0.00    -0.007 A 
HETATM   25  C   UNL     1      -1.091   8.109 -26.706  1.00  0.00     0.044 A 
HETATM   26  C   UNL     1      -0.109   7.986 -28.752  1.00  0.00     0.031 A 
HETATM   27  N   UNL     1       0.202   8.598 -26.633  1.00  0.00    -0.352 N 
HETATM   28  C   UNL     1      -2.090   7.962 -25.728  1.00  0.00     0.031 A 
HETATM   29  C   UNL     1       0.791   8.538 -27.875  1.00  0.00     0.092 A 
HETATM   30  C   UNL     1      -3.311   7.394 -26.108  1.00  0.00     0.019 A 
BRANCH  27  31
HETATM   31  C   UNL     1       0.870   9.085 -25.425  1.00  0.00     0.081 C 
HETATM   32  C   UNL     1       0.783  10.608 -25.311  1.00  0.00     0.032 C 
HETATM   33  C   UNL     1       2.318   8.600 -25.346  1.00  0.00     0.032 C 
ENDBRANCH  27  31
ENDBRANCH  19  22
ENDBRANCH   1  18
TORSDOF 3
ENDMDL
