MODEL 1
REMARK VINA RESULT:      -9.5      0.000      0.000
REMARK  8 active torsions:
REMARK  status: ('A' for Active; 'I' for Inactive)
REMARK    1  A    between atoms: C_4  and  N_5 
REMARK       I    between atoms: N_5  and  C_6 
REMARK    2  A    between atoms: C_6  and  C_7 
REMARK    3  A    between atoms: C_10  and  N_11 
REMARK       I    between atoms: N_11  and  C_12 
REMARK       I    between atoms: C_12  and  N_21 
REMARK    4  A    between atoms: N_21  and  CA_22 
REMARK    5  A    between atoms: CA_22  and  C_23 
REMARK    6  A    between atoms: CA_22  and  CB_25 
REMARK    7  A    between atoms: C_23  and  O_24 
REMARK    8  A    between atoms: CB_25  and  CG_26 
ROOT
HETATM    1  N   UNK A   0      -6.007   4.852 -33.603  1.00  0.00    -0.309 N 
HETATM    2  C   UNK A   0      -6.884   3.827 -33.746  1.00  0.00     0.321 C 
HETATM    3  O   UNK A   0      -7.991   4.068 -34.229  1.00  0.00    -0.247 OA
HETATM    4  H   UNK A   0      -6.408   5.691 -34.006  1.00  0.00     0.170 HD
ATOM      5  N   TRP A   1      -6.498   2.576 -33.386  1.00  0.00    -0.336 N 
ATOM      6  H   TRP A   1      -5.541   2.372 -33.642  1.00  0.00     0.164 HD
ENDROOT
BRANCH   1   7
HETATM    7  C   UNK A   0      -4.771   5.020 -32.956  1.00  0.00     0.036 A 
HETATM    8  C   UNK A   0      -3.556   4.472 -33.366  1.00  0.00     0.030 A 
HETATM    9  C   UNK A   0      -2.382   4.669 -32.615  1.00  0.00     0.019 A 
HETATM   10  C   UNK A   0      -2.413   5.398 -31.422  1.00  0.00     0.032 A 
HETATM   11  C   UNK A   0      -3.630   5.961 -31.017  1.00  0.00     0.019 A 
HETATM   12  C   UNK A   0      -4.791   5.772 -31.774  1.00  0.00     0.030 A 
BRANCH  10  13
HETATM   13  C   UNK A   0      -1.227   5.607 -30.527  1.00  0.00     0.256 C 
HETATM   14  N   UNK A   0      -1.393   6.495 -29.476  1.00  0.00    -0.323 N 
HETATM   15  H   UNK A   0      -2.304   6.901 -29.335  1.00  0.00     0.169 HD
HETATM   16  O   UNK A   0      -0.195   5.000 -30.796  1.00  0.00    -0.267 OA
BRANCH  14  17
HETATM   17  C   UNK A   0      -0.394   6.957 -28.588  1.00  0.00     0.035 A 
HETATM   18  C   UNK A   0       0.591   7.886 -28.930  1.00  0.00     0.029 A 
HETATM   19  C   UNK A   0       1.519   8.322 -27.979  1.00  0.00     0.002 A 
HETATM   20  C   UNK A   0       1.477   7.828 -26.678  1.00  0.00     0.000 A 
HETATM   21  C   UNK A   0       0.505   6.896 -26.326  1.00  0.00     0.002 A 
HETATM   22  C   UNK A   0      -0.429   6.467 -27.274  1.00  0.00     0.029 A 
ENDBRANCH  14  17
ENDBRANCH  10  13
ENDBRANCH   1   7
BRANCH   5  23
ATOM     23  CA  TRP A   1      -7.406   1.438 -33.607  1.00  0.00     0.114 C 
BRANCH  23  24
ATOM     24  C   TRP A   1      -7.266   0.943 -35.058  1.00  0.00     0.189 C 
BRANCH  24  25
ATOM     25  O   TRP A   1      -8.492   0.354 -35.495  1.00  0.00    -0.399 OA
ATOM     26  H   TRP A   1      -8.251  -0.450 -35.990  1.00  0.00     0.209 HD
ENDBRANCH  24  25
ENDBRANCH  23  24
BRANCH  23  27
ATOM     27  CB  TRP A   1      -7.131   0.295 -32.606  1.00  0.00     0.068 C 
BRANCH  27  28
ATOM     28  CG  TRP A   1      -5.970  -0.564 -33.018  1.00  0.00    -0.028 A 
ATOM     29  CD2 TRP A   1      -6.013  -1.816 -33.711  1.00  0.00    -0.002 A 
ATOM     30  CE2 TRP A   1      -4.695  -2.227 -33.919  1.00  0.00     0.042 A 
ATOM     31  CE3 TRP A   1      -7.051  -2.640 -34.191  1.00  0.00     0.014 A 
ATOM     32  CZ2 TRP A   1      -4.365  -3.405 -34.599  1.00  0.00     0.030 A 
ATOM     33  NE1 TRP A   1      -3.882  -1.279 -33.347  1.00  0.00    -0.365 N 
ATOM     34  CH2 TRP A   1      -5.414  -4.190 -35.083  1.00  0.00     0.002 A 
ATOM     35  CZ3 TRP A   1      -6.740  -3.818 -34.880  1.00  0.00     0.001 A 
ATOM     36  HE1 TRP A   1      -2.872  -1.319 -33.343  1.00  0.00     0.165 HD
ATOM     37  CD1 TRP A   1      -4.635  -0.279 -32.796  1.00  0.00     0.096 A 
ENDBRANCH  27  28
ENDBRANCH  23  27
ENDBRANCH   5  23
TORSDOF 8
ENDMDL
MODEL 2
REMARK VINA RESULT:      -9.4      2.495      9.418
REMARK  8 active torsions:
REMARK  status: ('A' for Active; 'I' for Inactive)
REMARK    1  A    between atoms: C_4  and  N_5 
REMARK       I    between atoms: N_5  and  C_6 
REMARK    2  A    between atoms: C_6  and  C_7 
REMARK    3  A    between atoms: C_10  and  N_11 
REMARK       I    between atoms: N_11  and  C_12 
REMARK       I    between atoms: C_12  and  N_21 
REMARK    4  A    between atoms: N_21  and  CA_22 
REMARK    5  A    between atoms: CA_22  and  C_23 
REMARK    6  A    between atoms: CA_22  and  CB_25 
REMARK    7  A    between atoms: C_23  and  O_24 
REMARK    8  A    between atoms: CB_25  and  CG_26 
ROOT
HETATM    1  N   UNK A   0      -4.719   6.583 -29.643  1.00  0.00    -0.309 N 
HETATM    2  C   UNK A   0      -3.758   7.377 -29.107  1.00  0.00     0.321 C 
HETATM    3  O   UNK A   0      -4.006   8.573 -28.955  1.00  0.00    -0.247 OA
HETATM    4  H   UNK A   0      -5.563   7.128 -29.776  1.00  0.00     0.170 HD
ATOM      5  N   TRP A   1      -2.579   6.819 -28.727  1.00  0.00    -0.336 N 
ATOM      6  H   TRP A   1      -2.696   5.916 -28.288  1.00  0.00     0.164 HD
ENDROOT
BRANCH   1   7
HETATM    7  C   UNK A   0      -4.764   5.264 -30.126  1.00  0.00     0.036 A 
HETATM    8  C   UNK A   0      -4.004   4.758 -31.180  1.00  0.00     0.030 A 
HETATM    9  C   UNK A   0      -4.162   3.428 -31.614  1.00  0.00     0.019 A 
HETATM   10  C   UNK A   0      -5.107   2.590 -31.012  1.00  0.00     0.032 A 
HETATM   11  C   UNK A   0      -5.861   3.095 -29.945  1.00  0.00     0.019 A 
HETATM   12  C   UNK A   0      -5.690   4.413 -29.511  1.00  0.00     0.030 A 
BRANCH  10  13
HETATM   13  C   UNK A   0      -5.387   1.182 -31.447  1.00  0.00     0.256 C 
HETATM   14  N   UNK A   0      -5.067   0.862 -32.756  1.00  0.00    -0.323 N 
HETATM   15  H   UNK A   0      -4.614   1.563 -33.321  1.00  0.00     0.169 HD
HETATM   16  O   UNK A   0      -5.896   0.423 -30.628  1.00  0.00    -0.267 OA
BRANCH  14  17
HETATM   17  C   UNK A   0      -5.359  -0.345 -33.433  1.00  0.00     0.035 A 
HETATM   18  C   UNK A   0      -6.593  -0.638 -34.016  1.00  0.00     0.029 A 
HETATM   19  C   UNK A   0      -6.787  -1.841 -34.704  1.00  0.00     0.002 A 
HETATM   20  C   UNK A   0      -5.753  -2.766 -34.808  1.00  0.00     0.000 A 
HETATM   21  C   UNK A   0      -4.519  -2.490 -34.224  1.00  0.00     0.002 A 
HETATM   22  C   UNK A   0      -4.322  -1.283 -33.545  1.00  0.00     0.029 A 
ENDBRANCH  14  17
ENDBRANCH  10  13
ENDBRANCH   1   7
BRANCH   5  23
ATOM     23  CA  TRP A   1      -1.555   7.649 -28.073  1.00  0.00     0.114 C 
BRANCH  23  24
ATOM     24  C   TRP A   1      -1.279   7.103 -26.659  1.00  0.00     0.189 C 
BRANCH  24  25
ATOM     25  O   TRP A   1      -0.810   5.756 -26.736  1.00  0.00    -0.399 OA
ATOM     26  H   TRP A   1      -0.832   5.404 -25.828  1.00  0.00     0.209 HD
ENDBRANCH  24  25
ENDBRANCH  23  24
BRANCH  23  27
ATOM     27  CB  TRP A   1      -0.255   7.700 -28.905  1.00  0.00     0.068 C 
BRANCH  27  28
ATOM     28  CG  TRP A   1      -0.242   6.690 -30.016  1.00  0.00    -0.028 A 
ATOM     29  CD2 TRP A   1      -0.808   6.823 -31.324  1.00  0.00    -0.002 A 
ATOM     30  CE2 TRP A   1      -0.515   5.655 -32.030  1.00  0.00     0.042 A 
ATOM     31  CE3 TRP A   1      -1.540   7.833 -31.982  1.00  0.00     0.014 A 
ATOM     32  CZ2 TRP A   1      -0.896   5.456 -33.362  1.00  0.00     0.030 A 
ATOM     33  NE1 TRP A   1       0.175   4.829 -31.176  1.00  0.00    -0.365 N 
ATOM     34  CH2 TRP A   1      -1.601   6.484 -33.995  1.00  0.00     0.002 A 
ATOM     35  CZ3 TRP A   1      -1.923   7.656 -33.316  1.00  0.00     0.001 A 
ATOM     36  HE1 TRP A   1       0.515   3.909 -31.420  1.00  0.00     0.165 HD
ATOM     37  CD1 TRP A   1       0.340   5.436 -29.961  1.00  0.00     0.096 A 
ENDBRANCH  27  28
ENDBRANCH  23  27
ENDBRANCH   5  23
TORSDOF 8
ENDMDL
MODEL 3
REMARK VINA RESULT:      -9.2      2.785      9.509
REMARK  8 active torsions:
REMARK  status: ('A' for Active; 'I' for Inactive)
REMARK    1  A    between atoms: C_4  and  N_5 
REMARK       I    between atoms: N_5  and  C_6 
REMARK    2  A    between atoms: C_6  and  C_7 
REMARK    3  A    between atoms: C_10  and  N_11 
REMARK       I    between atoms: N_11  and  C_12 
REMARK       I    between atoms: C_12  and  N_21 
REMARK    4  A    between atoms: N_21  and  CA_22 
REMARK    5  A    between atoms: CA_22  and  C_23 
REMARK    6  A    between atoms: CA_22  and  CB_25 
REMARK    7  A    between atoms: C_23  and  O_24 
REMARK    8  A    between atoms: CB_25  and  CG_26 
ROOT
HETATM    1  N   UNK A   0      -6.251   5.557 -30.729  1.00  0.00    -0.309 N 
HETATM    2  C   UNK A   0      -5.610   6.451 -29.935  1.00  0.00     0.321 C 
HETATM    3  O   UNK A   0      -5.961   7.630 -29.979  1.00  0.00    -0.247 OA
HETATM    4  H   UNK A   0      -7.010   6.026 -31.210  1.00  0.00     0.170 HD
ATOM      5  N   TRP A   1      -4.634   6.007 -29.100  1.00  0.00    -0.336 N 
ATOM      6  H   TRP A   1      -4.859   5.121 -28.669  1.00  0.00     0.164 HD
ENDROOT
BRANCH   1   7
HETATM    7  C   UNK A   0      -6.038   4.217 -31.092  1.00  0.00     0.036 A 
HETATM    8  C   UNK A   0      -5.245   3.777 -32.151  1.00  0.00     0.030 A 
HETATM    9  C   UNK A   0      -5.137   2.407 -32.455  1.00  0.00     0.019 A 
HETATM   10  C   UNK A   0      -5.846   1.454 -31.715  1.00  0.00     0.032 A 
HETATM   11  C   UNK A   0      -6.632   1.895 -30.642  1.00  0.00     0.019 A 
HETATM   12  C   UNK A   0      -6.725   3.257 -30.338  1.00  0.00     0.030 A 
BRANCH  10  13
HETATM   13  C   UNK A   0      -5.840  -0.018 -32.004  1.00  0.00     0.256 C 
HETATM   14  N   UNK A   0      -5.552  -0.392 -33.306  1.00  0.00    -0.323 N 
HETATM   15  H   UNK A   0      -5.306   0.328 -33.966  1.00  0.00     0.169 HD
HETATM   16  O   UNK A   0      -6.109  -0.781 -31.082  1.00  0.00    -0.267 OA
BRANCH  14  17
HETATM   17  C   UNK A   0      -5.619  -1.696 -33.851  1.00  0.00     0.035 A 
HETATM   18  C   UNK A   0      -6.769  -2.251 -34.416  1.00  0.00     0.029 A 
HETATM   19  C   UNK A   0      -6.740  -3.535 -34.971  1.00  0.00     0.002 A 
HETATM   20  C   UNK A   0      -5.564  -4.280 -34.959  1.00  0.00     0.000 A 
HETATM   21  C   UNK A   0      -4.413  -3.741 -34.392  1.00  0.00     0.002 A 
HETATM   22  C   UNK A   0      -4.439  -2.454 -33.846  1.00  0.00     0.029 A 
ENDBRANCH  14  17
ENDBRANCH  10  13
ENDBRANCH   1   7
BRANCH   5  23
ATOM     23  CA  TRP A   1      -3.980   6.947 -28.175  1.00  0.00     0.114 C 
BRANCH  23  24
ATOM     24  C   TRP A   1      -4.209   6.483 -26.724  1.00  0.00     0.189 C 
BRANCH  24  25
ATOM     25  O   TRP A   1      -4.850   5.205 -26.714  1.00  0.00    -0.399 OA
ATOM     26  H   TRP A   1      -5.775   5.364 -26.455  1.00  0.00     0.209 HD
ENDBRANCH  24  25
ENDBRANCH  23  24
BRANCH  23  27
ATOM     27  CB  TRP A   1      -2.473   7.080 -28.478  1.00  0.00     0.068 C 
BRANCH  27  28
ATOM     28  CG  TRP A   1      -2.205   7.529 -29.887  1.00  0.00    -0.028 A 
ATOM     29  CD2 TRP A   1      -1.910   6.709 -31.023  1.00  0.00    -0.002 A 
ATOM     30  CE2 TRP A   1      -1.780   7.553 -32.127  1.00  0.00     0.042 A 
ATOM     31  CE3 TRP A   1      -1.745   5.323 -31.220  1.00  0.00     0.014 A 
ATOM     32  CZ2 TRP A   1      -1.517   7.079 -33.419  1.00  0.00     0.030 A 
ATOM     33  NE1 TRP A   1      -1.958   8.838 -31.677  1.00  0.00    -0.365 N 
ATOM     34  CH2 TRP A   1      -1.382   5.699 -33.588  1.00  0.00     0.002 A 
ATOM     35  CZ3 TRP A   1      -1.490   4.830 -32.505  1.00  0.00     0.001 A 
ATOM     36  HE1 TRP A   1      -1.916   9.661 -32.263  1.00  0.00     0.165 HD
ATOM     37  CD1 TRP A   1      -2.207   8.839 -30.332  1.00  0.00     0.096 A 
ENDBRANCH  27  28
ENDBRANCH  23  27
ENDBRANCH   5  23
TORSDOF 8
ENDMDL
MODEL 4
REMARK VINA RESULT:      -9.0      4.627      8.288
REMARK  8 active torsions:
REMARK  status: ('A' for Active; 'I' for Inactive)
REMARK    1  A    between atoms: C_4  and  N_5 
REMARK       I    between atoms: N_5  and  C_6 
REMARK    2  A    between atoms: C_6  and  C_7 
REMARK    3  A    between atoms: C_10  and  N_11 
REMARK       I    between atoms: N_11  and  C_12 
REMARK       I    between atoms: C_12  and  N_21 
REMARK    4  A    between atoms: N_21  and  CA_22 
REMARK    5  A    between atoms: CA_22  and  C_23 
REMARK    6  A    between atoms: CA_22  and  CB_25 
REMARK    7  A    between atoms: C_23  and  O_24 
REMARK    8  A    between atoms: CB_25  and  CG_26 
ROOT
HETATM    1  N   UNK A   0      -6.601   5.311 -32.764  1.00  0.00    -0.309 N 
HETATM    2  C   UNK A   0      -7.749   6.034 -32.750  1.00  0.00     0.321 C 
HETATM    3  O   UNK A   0      -7.693   7.214 -32.405  1.00  0.00    -0.247 OA
HETATM    4  H   UNK A   0      -5.823   5.921 -32.539  1.00  0.00     0.170 HD
ATOM      5  N   TRP A   1      -8.904   5.440 -33.148  1.00  0.00    -0.336 N 
ATOM      6  H   TRP A   1      -8.779   4.834 -33.948  1.00  0.00     0.164 HD
ENDROOT
BRANCH   1   7
HETATM    7  C   UNK A   0      -6.283   3.950 -32.912  1.00  0.00     0.036 A 
HETATM    8  C   UNK A   0      -6.607   3.154 -34.010  1.00  0.00     0.030 A 
HETATM    9  C   UNK A   0      -6.278   1.785 -34.034  1.00  0.00     0.019 A 
HETATM   10  C   UNK A   0      -5.642   1.186 -32.942  1.00  0.00     0.032 A 
HETATM   11  C   UNK A   0      -5.305   1.989 -31.845  1.00  0.00     0.019 A 
HETATM   12  C   UNK A   0      -5.623   3.350 -31.832  1.00  0.00     0.030 A 
BRANCH  10  13
HETATM   13  C   UNK A   0      -5.309  -0.274 -32.854  1.00  0.00     0.256 C 
HETATM   14  N   UNK A   0      -5.295  -0.980 -34.046  1.00  0.00    -0.323 N 
HETATM   15  H   UNK A   0      -5.447  -0.471 -34.902  1.00  0.00     0.169 HD
HETATM   16  O   UNK A   0      -5.095  -0.745 -31.741  1.00  0.00    -0.267 OA
BRANCH  14  17
HETATM   17  C   UNK A   0      -5.146  -2.377 -34.206  1.00  0.00     0.035 A 
HETATM   18  C   UNK A   0      -4.015  -3.095 -33.811  1.00  0.00     0.029 A 
HETATM   19  C   UNK A   0      -3.964  -4.484 -33.968  1.00  0.00     0.002 A 
HETATM   20  C   UNK A   0      -5.039  -5.169 -34.527  1.00  0.00     0.000 A 
HETATM   21  C   UNK A   0      -6.169  -4.464 -34.932  1.00  0.00     0.002 A 
HETATM   22  C   UNK A   0      -6.225  -3.077 -34.766  1.00  0.00     0.029 A 
ENDBRANCH  14  17
ENDBRANCH  10  13
ENDBRANCH   1   7
BRANCH   5  23
ATOM     23  CA  TRP A   1     -10.146   6.229 -33.214  1.00  0.00     0.114 C 
BRANCH  23  24
ATOM     24  C   TRP A   1     -10.284   6.852 -34.616  1.00  0.00     0.189 C 
BRANCH  24  25
ATOM     25  O   TRP A   1      -9.518   6.104 -35.563  1.00  0.00    -0.399 OA
ATOM     26  H   TRP A   1      -9.820   5.181 -35.493  1.00  0.00     0.209 HD
ENDBRANCH  24  25
ENDBRANCH  23  24
BRANCH  23  27
ATOM     27  CB  TRP A   1     -11.380   5.366 -32.872  1.00  0.00     0.068 C 
BRANCH  27  28
ATOM     28  CG  TRP A   1     -11.259   3.958 -33.383  1.00  0.00    -0.028 A 
ATOM     29  CD2 TRP A   1     -10.495   2.887 -32.817  1.00  0.00    -0.002 A 
ATOM     30  CE2 TRP A   1     -10.718   1.754 -33.601  1.00  0.00     0.042 A 
ATOM     31  CE3 TRP A   1      -9.637   2.771 -31.706  1.00  0.00     0.014 A 
ATOM     32  CZ2 TRP A   1     -10.145   0.509 -33.316  1.00  0.00     0.030 A 
ATOM     33  NE1 TRP A   1     -11.559   2.126 -34.621  1.00  0.00    -0.365 N 
ATOM     34  CH2 TRP A   1      -9.316   0.418 -32.194  1.00  0.00     0.002 A 
ATOM     35  CZ3 TRP A   1      -9.060   1.532 -31.400  1.00  0.00     0.001 A 
ATOM     36  HE1 TRP A   1     -11.889   1.505 -35.346  1.00  0.00     0.165 HD
ATOM     37  CD1 TRP A   1     -11.885   3.450 -34.506  1.00  0.00     0.096 A 
ENDBRANCH  27  28
ENDBRANCH  23  27
ENDBRANCH   5  23
TORSDOF 8
ENDMDL
MODEL 5
REMARK VINA RESULT:      -8.9      2.054      2.470
REMARK  8 active torsions:
REMARK  status: ('A' for Active; 'I' for Inactive)
REMARK    1  A    between atoms: C_4  and  N_5 
REMARK       I    between atoms: N_5  and  C_6 
REMARK    2  A    between atoms: C_6  and  C_7 
REMARK    3  A    between atoms: C_10  and  N_11 
REMARK       I    between atoms: N_11  and  C_12 
REMARK       I    between atoms: C_12  and  N_21 
REMARK    4  A    between atoms: N_21  and  CA_22 
REMARK    5  A    between atoms: CA_22  and  C_23 
REMARK    6  A    between atoms: CA_22  and  CB_25 
REMARK    7  A    between atoms: C_23  and  O_24 
REMARK    8  A    between atoms: CB_25  and  CG_26 
ROOT
HETATM    1  N   UNK A   0      -7.647   2.254 -30.626  1.00  0.00    -0.309 N 
HETATM    2  C   UNK A   0      -8.126   1.322 -31.489  1.00  0.00     0.321 C 
HETATM    3  O   UNK A   0      -8.956   0.513 -31.074  1.00  0.00    -0.247 OA
HETATM    4  H   UNK A   0      -8.135   2.168 -29.741  1.00  0.00     0.170 HD
ATOM      5  N   TRP A   1      -7.701   1.340 -32.778  1.00  0.00    -0.336 N 
ATOM      6  H   TRP A   1      -7.613   2.276 -33.150  1.00  0.00     0.164 HD
ENDROOT
BRANCH   1   7
HETATM    7  C   UNK A   0      -6.604   3.194 -30.657  1.00  0.00     0.036 A 
HETATM    8  C   UNK A   0      -5.302   2.951 -31.094  1.00  0.00     0.030 A 
HETATM    9  C   UNK A   0      -4.320   3.958 -31.038  1.00  0.00     0.019 A 
HETATM   10  C   UNK A   0      -4.621   5.221 -30.518  1.00  0.00     0.032 A 
HETATM   11  C   UNK A   0      -5.932   5.469 -30.091  1.00  0.00     0.019 A 
HETATM   12  C   UNK A   0      -6.907   4.468 -30.160  1.00  0.00     0.030 A 
BRANCH  10  13
HETATM   13  C   UNK A   0      -3.626   6.332 -30.363  1.00  0.00     0.256 C 
HETATM   14  N   UNK A   0      -2.669   6.174 -29.374  1.00  0.00    -0.323 N 
HETATM   15  H   UNK A   0      -2.654   5.308 -28.859  1.00  0.00     0.169 HD
HETATM   16  O   UNK A   0      -3.738   7.305 -31.101  1.00  0.00    -0.267 OA
BRANCH  14  17
HETATM   17  C   UNK A   0      -1.718   7.131 -28.949  1.00  0.00     0.035 A 
HETATM   18  C   UNK A   0      -2.041   8.305 -28.264  1.00  0.00     0.029 A 
HETATM   19  C   UNK A   0      -1.035   9.181 -27.842  1.00  0.00     0.002 A 
HETATM   20  C   UNK A   0       0.302   8.897 -28.108  1.00  0.00     0.000 A 
HETATM   21  C   UNK A   0       0.636   7.734 -28.796  1.00  0.00     0.002 A 
HETATM   22  C   UNK A   0      -0.368   6.853 -29.209  1.00  0.00     0.029 A 
ENDBRANCH  14  17
ENDBRANCH  10  13
ENDBRANCH   1   7
BRANCH   5  23
ATOM     23  CA  TRP A   1      -8.267   0.387 -33.748  1.00  0.00     0.114 C 
BRANCH  23  24
ATOM     24  C   TRP A   1      -9.568   0.964 -34.335  1.00  0.00     0.189 C 
BRANCH  24  25
ATOM     25  O   TRP A   1     -10.688   0.544 -33.553  1.00  0.00    -0.399 OA
ATOM     26  H   TRP A   1     -10.349   0.376 -32.656  1.00  0.00     0.209 HD
ENDBRANCH  24  25
ENDBRANCH  23  24
BRANCH  23  27
ATOM     27  CB  TRP A   1      -7.257   0.056 -34.868  1.00  0.00     0.068 C 
BRANCH  27  28
ATOM     28  CG  TRP A   1      -6.106  -0.778 -34.379  1.00  0.00    -0.028 A 
ATOM     29  CD2 TRP A   1      -5.949  -2.197 -34.486  1.00  0.00    -0.002 A 
ATOM     30  CE2 TRP A   1      -4.709  -2.524 -33.935  1.00  0.00     0.042 A 
ATOM     31  CE3 TRP A   1      -6.743  -3.238 -35.006  1.00  0.00     0.014 A 
ATOM     32  CZ2 TRP A   1      -4.216  -3.834 -33.899  1.00  0.00     0.030 A 
ATOM     33  NE1 TRP A   1      -4.147  -1.356 -33.482  1.00  0.00    -0.365 N 
ATOM     34  CH2 TRP A   1      -5.015  -4.843 -34.443  1.00  0.00     0.002 A 
ATOM     35  CZ3 TRP A   1      -6.264  -4.553 -34.986  1.00  0.00     0.001 A 
ATOM     36  HE1 TRP A   1      -3.244  -1.292 -33.032  1.00  0.00     0.165 HD
ATOM     37  CD1 TRP A   1      -4.979  -0.300 -33.736  1.00  0.00     0.096 A 
ENDBRANCH  27  28
ENDBRANCH  23  27
ENDBRANCH   5  23
TORSDOF 8
ENDMDL
MODEL 6
REMARK VINA RESULT:      -8.8      1.303      1.767
REMARK  8 active torsions:
REMARK  status: ('A' for Active; 'I' for Inactive)
REMARK    1  A    between atoms: C_4  and  N_5 
REMARK       I    between atoms: N_5  and  C_6 
REMARK    2  A    between atoms: C_6  and  C_7 
REMARK    3  A    between atoms: C_10  and  N_11 
REMARK       I    between atoms: N_11  and  C_12 
REMARK       I    between atoms: C_12  and  N_21 
REMARK    4  A    between atoms: N_21  and  CA_22 
REMARK    5  A    between atoms: CA_22  and  C_23 
REMARK    6  A    between atoms: CA_22  and  CB_25 
REMARK    7  A    between atoms: C_23  and  O_24 
REMARK    8  A    between atoms: CB_25  and  CG_26 
ROOT
HETATM    1  N   UNK A   0      -5.281   3.801 -33.775  1.00  0.00    -0.309 N 
HETATM    2  C   UNK A   0      -6.116   2.766 -33.503  1.00  0.00     0.321 C 
HETATM    3  O   UNK A   0      -6.987   2.485 -34.326  1.00  0.00    -0.247 OA
HETATM    4  H   UNK A   0      -5.483   4.154 -34.704  1.00  0.00     0.170 HD
ATOM      5  N   TRP A   1      -5.935   2.060 -32.357  1.00  0.00    -0.336 N 
ATOM      6  H   TRP A   1      -4.960   1.905 -32.141  1.00  0.00     0.164 HD
ENDROOT
BRANCH   1   7
HETATM    7  C   UNK A   0      -4.320   4.522 -33.047  1.00  0.00     0.036 A 
HETATM    8  C   UNK A   0      -2.972   4.187 -32.924  1.00  0.00     0.030 A 
HETATM    9  C   UNK A   0      -2.104   4.957 -32.129  1.00  0.00     0.019 A 
HETATM   10  C   UNK A   0      -2.580   6.066 -31.421  1.00  0.00     0.032 A 
HETATM   11  C   UNK A   0      -3.931   6.410 -31.555  1.00  0.00     0.019 A 
HETATM   12  C   UNK A   0      -4.787   5.647 -32.356  1.00  0.00     0.030 A 
BRANCH  10  13
HETATM   13  C   UNK A   0      -1.743   6.907 -30.503  1.00  0.00     0.256 C 
HETATM   14  N   UNK A   0      -0.977   6.231 -29.568  1.00  0.00    -0.323 N 
HETATM   15  H   UNK A   0      -0.975   5.223 -29.593  1.00  0.00     0.169 HD
HETATM   16  O   UNK A   0      -1.810   8.126 -30.627  1.00  0.00    -0.267 OA
BRANCH  14  17
HETATM   17  C   UNK A   0      -0.220   6.799 -28.517  1.00  0.00     0.035 A 
HETATM   18  C   UNK A   0      -0.309   6.398 -27.182  1.00  0.00     0.029 A 
HETATM   19  C   UNK A   0       0.506   6.985 -26.208  1.00  0.00     0.002 A 
HETATM   20  C   UNK A   0       1.411   7.982 -26.557  1.00  0.00     0.000 A 
HETATM   21  C   UNK A   0       1.505   8.396 -27.883  1.00  0.00     0.002 A 
HETATM   22  C   UNK A   0       0.697   7.803 -28.858  1.00  0.00     0.029 A 
ENDBRANCH  14  17
ENDBRANCH  10  13
ENDBRANCH   1   7
BRANCH   5  23
ATOM     23  CA  TRP A   1      -6.780   0.886 -32.081  1.00  0.00     0.114 C 
BRANCH  23  24
ATOM     24  C   TRP A   1      -8.170   1.352 -31.610  1.00  0.00     0.189 C 
BRANCH  24  25
ATOM     25  O   TRP A   1      -8.055   2.062 -30.374  1.00  0.00    -0.399 OA
ATOM     26  H   TRP A   1      -8.849   1.840 -29.855  1.00  0.00     0.209 HD
ENDBRANCH  24  25
ENDBRANCH  23  24
BRANCH  23  27
ATOM     27  CB  TRP A   1      -6.897  -0.027 -33.320  1.00  0.00     0.068 C 
BRANCH  27  28
ATOM     28  CG  TRP A   1      -5.811  -1.065 -33.377  1.00  0.00    -0.028 A 
ATOM     29  CD2 TRP A   1      -5.879  -2.367 -33.968  1.00  0.00    -0.002 A 
ATOM     30  CE2 TRP A   1      -4.624  -2.960 -33.823  1.00  0.00     0.042 A 
ATOM     31  CE3 TRP A   1      -6.890  -3.100 -34.622  1.00  0.00     0.014 A 
ATOM     32  CZ2 TRP A   1      -4.324  -4.235 -34.316  1.00  0.00     0.030 A 
ATOM     33  NE1 TRP A   1      -3.832  -2.067 -33.142  1.00  0.00    -0.365 N 
ATOM     34  CH2 TRP A   1      -5.339  -4.929 -34.979  1.00  0.00     0.002 A 
ATOM     35  CZ3 TRP A   1      -6.607  -4.374 -35.129  1.00  0.00     0.001 A 
ATOM     36  HE1 TRP A   1      -2.866  -2.232 -32.893  1.00  0.00     0.165 HD
ATOM     37  CD1 TRP A   1      -4.535  -0.927 -32.862  1.00  0.00     0.096 A 
ENDBRANCH  27  28
ENDBRANCH  23  27
ENDBRANCH   5  23
TORSDOF 8
ENDMDL
MODEL 7
REMARK VINA RESULT:      -8.8      2.730     10.626
REMARK  8 active torsions:
REMARK  status: ('A' for Active; 'I' for Inactive)
REMARK    1  A    between atoms: C_4  and  N_5 
REMARK       I    between atoms: N_5  and  C_6 
REMARK    2  A    between atoms: C_6  and  C_7 
REMARK    3  A    between atoms: C_10  and  N_11 
REMARK       I    between atoms: N_11  and  C_12 
REMARK       I    between atoms: C_12  and  N_21 
REMARK    4  A    between atoms: N_21  and  CA_22 
REMARK    5  A    between atoms: CA_22  and  C_23 
REMARK    6  A    between atoms: CA_22  and  CB_25 
REMARK    7  A    between atoms: C_23  and  O_24 
REMARK    8  A    between atoms: CB_25  and  CG_26 
ROOT
HETATM    1  N   UNK A   0      -3.565   5.545 -31.395  1.00  0.00    -0.309 N 
HETATM    2  C   UNK A   0      -3.565   6.360 -30.310  1.00  0.00     0.321 C 
HETATM    3  O   UNK A   0      -2.880   7.383 -30.347  1.00  0.00    -0.247 OA
HETATM    4  H   UNK A   0      -3.018   5.976 -32.132  1.00  0.00     0.170 HD
ATOM      5  N   TRP A   1      -4.344   6.037 -29.245  1.00  0.00    -0.336 N 
ATOM      6  H   TRP A   1      -5.245   5.668 -29.515  1.00  0.00     0.164 HD
ENDROOT
BRANCH   1   7
HETATM    7  C   UNK A   0      -4.045   4.254 -31.668  1.00  0.00     0.036 A 
HETATM    8  C   UNK A   0      -5.373   3.917 -31.929  1.00  0.00     0.030 A 
HETATM    9  C   UNK A   0      -5.751   2.579 -32.146  1.00  0.00     0.019 A 
HETATM   10  C   UNK A   0      -4.805   1.550 -32.080  1.00  0.00     0.032 A 
HETATM   11  C   UNK A   0      -3.469   1.890 -31.832  1.00  0.00     0.019 A 
HETATM   12  C   UNK A   0      -3.097   3.223 -31.628  1.00  0.00     0.030 A 
BRANCH  10  13
HETATM   13  C   UNK A   0      -5.127   0.093 -32.237  1.00  0.00     0.256 C 
HETATM   14  N   UNK A   0      -4.918  -0.455 -33.492  1.00  0.00    -0.323 N 
HETATM   15  H   UNK A   0      -4.512   0.129 -34.206  1.00  0.00     0.169 HD
HETATM   16  O   UNK A   0      -5.568  -0.503 -31.260  1.00  0.00    -0.267 OA
BRANCH  14  17
HETATM   17  C   UNK A   0      -5.271  -1.756 -33.921  1.00  0.00     0.035 A 
HETATM   18  C   UNK A   0      -6.527  -2.101 -34.425  1.00  0.00     0.029 A 
HETATM   19  C   UNK A   0      -6.782  -3.404 -34.867  1.00  0.00     0.002 A 
HETATM   20  C   UNK A   0      -5.788  -4.376 -34.802  1.00  0.00     0.000 A 
HETATM   21  C   UNK A   0      -4.534  -4.046 -34.294  1.00  0.00     0.002 A 
HETATM   22  C   UNK A   0      -4.276  -2.742 -33.862  1.00  0.00     0.029 A 
ENDBRANCH  14  17
ENDBRANCH  10  13
ENDBRANCH   1   7
BRANCH   5  23
ATOM     23  CA  TRP A   1      -4.418   6.948 -28.090  1.00  0.00     0.114 C 
BRANCH  23  24
ATOM     24  C   TRP A   1      -5.894   7.232 -27.754  1.00  0.00     0.189 C 
BRANCH  24  25
ATOM     25  O   TRP A   1      -5.981   8.233 -26.738  1.00  0.00    -0.399 OA
ATOM     26  H   TRP A   1      -6.826   8.695 -26.879  1.00  0.00     0.209 HD
ENDBRANCH  24  25
ENDBRANCH  23  24
BRANCH  23  27
ATOM     27  CB  TRP A   1      -3.677   6.368 -26.867  1.00  0.00     0.068 C 
BRANCH  27  28
ATOM     28  CG  TRP A   1      -2.583   7.272 -26.373  1.00  0.00    -0.028 A 
ATOM     29  CD2 TRP A   1      -1.259   7.408 -26.899  1.00  0.00    -0.002 A 
ATOM     30  CE2 TRP A   1      -0.610   8.393 -26.154  1.00  0.00     0.042 A 
ATOM     31  CE3 TRP A   1      -0.548   6.789 -27.948  1.00  0.00     0.014 A 
ATOM     32  CZ2 TRP A   1       0.702   8.805 -26.418  1.00  0.00     0.030 A 
ATOM     33  NE1 TRP A   1      -1.492   8.819 -25.191  1.00  0.00    -0.365 N 
ATOM     34  CH2 TRP A   1       1.374   8.190 -27.478  1.00  0.00     0.002 A 
ATOM     35  CZ3 TRP A   1       0.762   7.193 -28.232  1.00  0.00     0.001 A 
ATOM     36  HE1 TRP A   1      -1.289   9.531 -24.503  1.00  0.00     0.165 HD
ATOM     37  CD1 TRP A   1      -2.679   8.148 -25.307  1.00  0.00     0.096 A 
ENDBRANCH  27  28
ENDBRANCH  23  27
ENDBRANCH   5  23
TORSDOF 8
ENDMDL
MODEL 8
REMARK VINA RESULT:      -8.8      6.204     10.506
REMARK  8 active torsions:
REMARK  status: ('A' for Active; 'I' for Inactive)
REMARK    1  A    between atoms: C_4  and  N_5 
REMARK       I    between atoms: N_5  and  C_6 
REMARK    2  A    between atoms: C_6  and  C_7 
REMARK    3  A    between atoms: C_10  and  N_11 
REMARK       I    between atoms: N_11  and  C_12 
REMARK       I    between atoms: C_12  and  N_21 
REMARK    4  A    between atoms: N_21  and  CA_22 
REMARK    5  A    between atoms: CA_22  and  C_23 
REMARK    6  A    between atoms: CA_22  and  CB_25 
REMARK    7  A    between atoms: C_23  and  O_24 
REMARK    8  A    between atoms: CB_25  and  CG_26 
ROOT
HETATM    1  N   UNK A   0      -9.813   1.984 -34.342  1.00  0.00    -0.309 N 
HETATM    2  C   UNK A   0      -8.581   1.793 -33.805  1.00  0.00     0.321 C 
HETATM    3  O   UNK A   0      -7.632   1.611 -34.567  1.00  0.00    -0.247 OA
HETATM    4  H   UNK A   0      -9.732   2.016 -35.352  1.00  0.00     0.170 HD
ATOM      5  N   TRP A   1      -8.437   1.845 -32.455  1.00  0.00    -0.336 N 
ATOM      6  H   TRP A   1      -8.992   2.574 -32.029  1.00  0.00     0.164 HD
ENDROOT
BRANCH   1   7
HETATM    7  C   UNK A   0     -11.121   2.039 -33.834  1.00  0.00     0.036 A 
HETATM    8  C   UNK A   0     -12.079   1.032 -33.942  1.00  0.00     0.030 A 
HETATM    9  C   UNK A   0     -13.379   1.211 -33.434  1.00  0.00     0.019 A 
HETATM   10  C   UNK A   0     -13.749   2.418 -32.831  1.00  0.00     0.032 A 
HETATM   11  C   UNK A   0     -12.783   3.425 -32.711  1.00  0.00     0.019 A 
HETATM   12  C   UNK A   0     -11.490   3.237 -33.207  1.00  0.00     0.030 A 
BRANCH  10  13
HETATM   13  C   UNK A   0     -15.126   2.721 -32.318  1.00  0.00     0.256 C 
HETATM   14  N   UNK A   0     -15.574   4.022 -32.476  1.00  0.00    -0.323 N 
HETATM   15  H   UNK A   0     -14.986   4.672 -32.973  1.00  0.00     0.169 HD
HETATM   16  O   UNK A   0     -15.747   1.810 -31.779  1.00  0.00    -0.267 OA
BRANCH  14  17
HETATM   17  C   UNK A   0     -16.766   4.580 -31.958  1.00  0.00     0.035 A 
HETATM   18  C   UNK A   0     -18.048   4.147 -32.302  1.00  0.00     0.029 A 
HETATM   19  C   UNK A   0     -19.177   4.726 -31.712  1.00  0.00     0.002 A 
HETATM   20  C   UNK A   0     -19.036   5.749 -30.779  1.00  0.00     0.000 A 
HETATM   21  C   UNK A   0     -17.763   6.195 -30.433  1.00  0.00     0.002 A 
HETATM   22  C   UNK A   0     -16.635   5.610 -31.015  1.00  0.00     0.029 A 
ENDBRANCH  14  17
ENDBRANCH  10  13
ENDBRANCH   1   7
BRANCH   5  23
ATOM     23  CA  TRP A   1      -7.098   1.718 -31.857  1.00  0.00     0.114 C 
BRANCH  23  24
ATOM     24  C   TRP A   1      -6.890   2.838 -30.821  1.00  0.00     0.189 C 
BRANCH  24  25
ATOM     25  O   TRP A   1      -7.053   2.320 -29.499  1.00  0.00    -0.399 OA
ATOM     26  H   TRP A   1      -6.192   2.423 -29.055  1.00  0.00     0.209 HD
ENDBRANCH  24  25
ENDBRANCH  23  24
BRANCH  23  27
ATOM     27  CB  TRP A   1      -6.898   0.329 -31.213  1.00  0.00     0.068 C 
BRANCH  27  28
ATOM     28  CG  TRP A   1      -5.801  -0.459 -31.870  1.00  0.00    -0.028 A 
ATOM     29  CD2 TRP A   1      -5.908  -1.328 -33.003  1.00  0.00    -0.002 A 
ATOM     30  CE2 TRP A   1      -4.629  -1.807 -33.288  1.00  0.00     0.042 A 
ATOM     31  CE3 TRP A   1      -6.975  -1.750 -33.822  1.00  0.00     0.014 A 
ATOM     32  CZ2 TRP A   1      -4.360  -2.666 -34.360  1.00  0.00     0.030 A 
ATOM     33  NE1 TRP A   1      -3.780  -1.277 -32.347  1.00  0.00    -0.365 N 
ATOM     34  CH2 TRP A   1      -5.434  -3.050 -35.168  1.00  0.00     0.002 A 
ATOM     35  CZ3 TRP A   1      -6.725  -2.602 -34.903  1.00  0.00     0.001 A 
ATOM     36  HE1 TRP A   1      -2.786  -1.456 -32.307  1.00  0.00     0.165 HD
ATOM     37  CD1 TRP A   1      -4.472  -0.471 -31.485  1.00  0.00     0.096 A 
ENDBRANCH  27  28
ENDBRANCH  23  27
ENDBRANCH   5  23
TORSDOF 8
ENDMDL
MODEL 9
REMARK VINA RESULT:      -8.6      3.491     10.609
REMARK  8 active torsions:
REMARK  status: ('A' for Active; 'I' for Inactive)
REMARK    1  A    between atoms: C_4  and  N_5 
REMARK       I    between atoms: N_5  and  C_6 
REMARK    2  A    between atoms: C_6  and  C_7 
REMARK    3  A    between atoms: C_10  and  N_11 
REMARK       I    between atoms: N_11  and  C_12 
REMARK       I    between atoms: C_12  and  N_21 
REMARK    4  A    between atoms: N_21  and  CA_22 
REMARK    5  A    between atoms: CA_22  and  C_23 
REMARK    6  A    between atoms: CA_22  and  CB_25 
REMARK    7  A    between atoms: C_23  and  O_24 
REMARK    8  A    between atoms: CB_25  and  CG_26 
ROOT
HETATM    1  N   UNK A   0      -3.223   3.378 -31.202  1.00  0.00    -0.309 N 
HETATM    2  C   UNK A   0      -2.322   4.367 -31.428  1.00  0.00     0.321 C 
HETATM    3  O   UNK A   0      -1.157   4.189 -31.070  1.00  0.00    -0.247 OA
HETATM    4  H   UNK A   0      -2.743   2.575 -30.811  1.00  0.00     0.170 HD
ATOM      5  N   TRP A   1      -2.728   5.493 -32.068  1.00  0.00    -0.336 N 
ATOM      6  H   TRP A   1      -3.369   5.304 -32.827  1.00  0.00     0.164 HD
ENDROOT
BRANCH   1   7
HETATM    7  C   UNK A   0      -4.621   3.267 -31.289  1.00  0.00     0.036 A 
HETATM    8  C   UNK A   0      -5.520   3.469 -30.243  1.00  0.00     0.030 A 
HETATM    9  C   UNK A   0      -6.903   3.287 -30.431  1.00  0.00     0.019 A 
HETATM   10  C   UNK A   0      -7.406   2.873 -31.669  1.00  0.00     0.032 A 
HETATM   11  C   UNK A   0      -6.504   2.684 -32.724  1.00  0.00     0.019 A 
HETATM   12  C   UNK A   0      -5.133   2.878 -32.534  1.00  0.00     0.030 A 
BRANCH  10  13
HETATM   13  C   UNK A   0      -8.855   2.596 -31.943  1.00  0.00     0.256 C 
HETATM   14  N   UNK A   0      -9.137   1.833 -33.065  1.00  0.00    -0.323 N 
HETATM   15  H   UNK A   0      -8.365   1.460 -33.595  1.00  0.00     0.169 HD
HETATM   16  O   UNK A   0      -9.683   3.076 -31.177  1.00  0.00    -0.267 OA
BRANCH  14  17
HETATM   17  C   UNK A   0     -10.415   1.555 -33.605  1.00  0.00     0.035 A 
HETATM   18  C   UNK A   0     -11.217   0.484 -33.208  1.00  0.00     0.029 A 
HETATM   19  C   UNK A   0     -12.488   0.303 -33.764  1.00  0.00     0.002 A 
HETATM   20  C   UNK A   0     -12.966   1.186 -34.727  1.00  0.00     0.000 A 
HETATM   21  C   UNK A   0     -12.173   2.254 -35.137  1.00  0.00     0.002 A 
HETATM   22  C   UNK A   0     -10.907   2.441 -34.575  1.00  0.00     0.029 A 
ENDBRANCH  14  17
ENDBRANCH  10  13
ENDBRANCH   1   7
BRANCH   5  23
ATOM     23  CA  TRP A   1      -1.749   6.544 -32.392  1.00  0.00     0.114 C 
BRANCH  23  24
ATOM     24  C   TRP A   1      -1.638   6.690 -33.921  1.00  0.00     0.189 C 
BRANCH  24  25
ATOM     25  O   TRP A   1      -1.934   8.033 -34.308  1.00  0.00    -0.399 OA
ATOM     26  H   TRP A   1      -1.164   8.350 -34.813  1.00  0.00     0.209 HD
ENDBRANCH  24  25
ENDBRANCH  23  24
BRANCH  23  27
ATOM     27  CB  TRP A   1      -2.129   7.890 -31.738  1.00  0.00     0.068 C 
BRANCH  27  28
ATOM     28  CG  TRP A   1      -2.266   7.787 -30.245  1.00  0.00    -0.028 A 
ATOM     29  CD2 TRP A   1      -1.219   7.624 -29.282  1.00  0.00    -0.002 A 
ATOM     30  CE2 TRP A   1      -1.808   7.623 -28.017  1.00  0.00     0.042 A 
ATOM     31  CE3 TRP A   1       0.181   7.482 -29.365  1.00  0.00     0.014 A 
ATOM     32  CZ2 TRP A   1      -1.068   7.511 -26.834  1.00  0.00     0.030 A 
ATOM     33  NE1 TRP A   1      -3.164   7.749 -28.202  1.00  0.00    -0.365 N 
ATOM     34  CH2 TRP A   1       0.320   7.395 -26.946  1.00  0.00     0.002 A 
ATOM     35  CZ3 TRP A   1       0.939   7.377 -28.193  1.00  0.00     0.001 A 
ATOM     36  HE1 TRP A   1      -3.843   7.776 -27.455  1.00  0.00     0.165 HD
ATOM     37  CD1 TRP A   1      -3.452   7.841 -29.536  1.00  0.00     0.096 A 
ENDBRANCH  27  28
ENDBRANCH  23  27
ENDBRANCH   5  23
TORSDOF 8
ENDMDL
MODEL 10
REMARK VINA RESULT:      -8.5      2.648      9.418
REMARK  8 active torsions:
REMARK  status: ('A' for Active; 'I' for Inactive)
REMARK    1  A    between atoms: C_4  and  N_5 
REMARK       I    between atoms: N_5  and  C_6 
REMARK    2  A    between atoms: C_6  and  C_7 
REMARK    3  A    between atoms: C_10  and  N_11 
REMARK       I    between atoms: N_11  and  C_12 
REMARK       I    between atoms: C_12  and  N_21 
REMARK    4  A    between atoms: N_21  and  CA_22 
REMARK    5  A    between atoms: CA_22  and  C_23 
REMARK    6  A    between atoms: CA_22  and  CB_25 
REMARK    7  A    between atoms: C_23  and  O_24 
REMARK    8  A    between atoms: CB_25  and  CG_26 
ROOT
HETATM    1  N   UNK A   0      -6.084   4.282 -29.084  1.00  0.00    -0.309 N 
HETATM    2  C   UNK A   0      -5.626   5.535 -28.835  1.00  0.00     0.321 C 
HETATM    3  O   UNK A   0      -5.921   6.063 -27.763  1.00  0.00    -0.247 OA
HETATM    4  H   UNK A   0      -6.569   3.937 -28.263  1.00  0.00     0.170 HD
ATOM      5  N   TRP A   1      -4.835   6.141 -29.758  1.00  0.00    -0.336 N 
ATOM      6  H   TRP A   1      -4.171   5.508 -30.182  1.00  0.00     0.164 HD
ENDROOT
BRANCH   1   7
HETATM    7  C   UNK A   0      -6.123   3.442 -30.210  1.00  0.00     0.036 A 
HETATM    8  C   UNK A   0      -6.773   3.721 -31.411  1.00  0.00     0.030 A 
HETATM    9  C   UNK A   0      -6.786   2.785 -32.462  1.00  0.00     0.019 A 
HETATM   10  C   UNK A   0      -6.166   1.540 -32.316  1.00  0.00     0.032 A 
HETATM   11  C   UNK A   0      -5.501   1.265 -31.114  1.00  0.00     0.019 A 
HETATM   12  C   UNK A   0      -5.482   2.204 -30.077  1.00  0.00     0.030 A 
BRANCH  10  13
HETATM   13  C   UNK A   0      -6.180   0.460 -33.356  1.00  0.00     0.256 C 
HETATM   14  N   UNK A   0      -5.974  -0.835 -32.908  1.00  0.00    -0.323 N 
HETATM   15  H   UNK A   0      -5.886  -0.988 -31.916  1.00  0.00     0.169 HD
HETATM   16  O   UNK A   0      -6.351   0.794 -34.524  1.00  0.00    -0.267 OA
BRANCH  14  17
HETATM   17  C   UNK A   0      -5.808  -1.994 -33.702  1.00  0.00     0.035 A 
HETATM   18  C   UNK A   0      -4.574  -2.585 -33.978  1.00  0.00     0.029 A 
HETATM   19  C   UNK A   0      -4.501  -3.756 -34.740  1.00  0.00     0.002 A 
HETATM   20  C   UNK A   0      -5.660  -4.343 -35.241  1.00  0.00     0.000 A 
HETATM   21  C   UNK A   0      -6.896  -3.758 -34.980  1.00  0.00     0.002 A 
HETATM   22  C   UNK A   0      -6.970  -2.594 -34.210  1.00  0.00     0.029 A 
ENDBRANCH  14  17
ENDBRANCH  10  13
ENDBRANCH   1   7
BRANCH   5  23
ATOM     23  CA  TRP A   1      -4.265   7.468 -29.473  1.00  0.00     0.114 C 
BRANCH  23  24
ATOM     24  C   TRP A   1      -2.876   7.302 -28.827  1.00  0.00     0.189 C 
BRANCH  24  25
ATOM     25  O   TRP A   1      -2.992   7.331 -27.403  1.00  0.00    -0.399 OA
ATOM     26  H   TRP A   1      -3.195   8.252 -27.162  1.00  0.00     0.209 HD
ENDBRANCH  24  25
ENDBRANCH  23  24
BRANCH  23  27
ATOM     27  CB  TRP A   1      -4.177   8.330 -30.751  1.00  0.00     0.068 C 
BRANCH  27  28
ATOM     28  CG  TRP A   1      -3.128   7.838 -31.707  1.00  0.00    -0.028 A 
ATOM     29  CD2 TRP A   1      -3.277   6.849 -32.732  1.00  0.00    -0.002 A 
ATOM     30  CE2 TRP A   1      -2.055   6.748 -33.399  1.00  0.00     0.042 A 
ATOM     31  CE3 TRP A   1      -4.341   6.031 -33.163  1.00  0.00     0.014 A 
ATOM     32  CZ2 TRP A   1      -1.850   5.889 -34.485  1.00  0.00     0.030 A 
ATOM     33  NE1 TRP A   1      -1.186   7.617 -32.785  1.00  0.00    -0.365 N 
ATOM     34  CH2 TRP A   1      -2.929   5.106 -34.905  1.00  0.00     0.002 A 
ATOM     35  CZ3 TRP A   1      -4.158   5.171 -34.253  1.00  0.00     0.001 A 
ATOM     36  HE1 TRP A   1      -0.223   7.753 -33.058  1.00  0.00     0.165 HD
ATOM     37  CD1 TRP A   1      -1.816   8.273 -31.762  1.00  0.00     0.096 A 
ENDBRANCH  27  28
ENDBRANCH  23  27
ENDBRANCH   5  23
TORSDOF 8
ENDMDL
