MODEL 1
REMARK VINA RESULT:      -8.8      0.000      0.000
REMARK  7 active torsions:
REMARK  status: ('A' for Active; 'I' for Inactive)
REMARK    1  A    between atoms: C_3  and  C_4 
REMARK    2  A    between atoms: C_6  and  O_7 
REMARK    3  A    between atoms: C_9  and  O_10 
REMARK    4  A    between atoms: O_10  and  C_11 
REMARK    5  A    between atoms: C_11  and  C_12 
REMARK       I    between atoms: C_12  and  N_13 
REMARK    6  A    between atoms: N_13  and  N_14 
REMARK       I    between atoms: N_14  and  C_15 
REMARK    7  A    between atoms: C_15  and  C_16 
ROOT
HETATM    1  C   UNL     1      -2.133   4.309 -32.597  1.00  0.00     0.260 C 
HETATM    2  N   UNL     1      -2.767   3.407 -31.765  1.00  0.00    -0.265 N 
HETATM    3  O   UNL     1      -2.332   4.355 -33.812  1.00  0.00    -0.269 OA
HETATM    4  H   UNL     1      -2.739   3.518 -30.752  1.00  0.00     0.190 HD
ENDROOT
BRANCH   2   5
HETATM    5  N   UNL     1      -3.793   2.624 -32.299  1.00  0.00    -0.263 N 
HETATM    6  C   UNL     1      -3.868   1.284 -31.978  1.00  0.00     0.272 C 
HETATM    7  O   UNL     1      -2.988   0.715 -31.334  1.00  0.00    -0.266 OA
HETATM    8  H   UNL     1      -4.497   3.100 -32.851  1.00  0.00     0.190 HD
BRANCH   6   9
HETATM    9  C   UNL     1      -5.031   0.585 -32.520  1.00  0.00     0.061 A 
HETATM   10  C   UNL     1      -5.130  -0.644 -33.262  1.00  0.00     0.008 A 
HETATM   11  C   UNL     1      -6.494  -0.897 -33.479  1.00  0.00     0.045 A 
HETATM   12  C   UNL     1      -4.193  -1.568 -33.785  1.00  0.00     0.015 A 
HETATM   13  C   UNL     1      -6.941  -2.054 -34.142  1.00  0.00     0.030 A 
HETATM   14  N   UNL     1      -7.189   0.166 -32.948  1.00  0.00    -0.359 N 
HETATM   15  C   UNL     1      -5.991  -2.962 -34.613  1.00  0.00     0.002 A 
HETATM   16  C   UNL     1      -4.634  -2.720 -34.446  1.00  0.00     0.001 A 
HETATM   17  C   UNL     1      -8.622   0.359 -32.967  1.00  0.00     0.156 C 
HETATM   18  C   UNL     1      -6.322   1.065 -32.391  1.00  0.00     0.108 A 
ENDBRANCH   6   9
ENDBRANCH   2   5
BRANCH   1  19
HETATM   19  C   UNL     1      -1.209   5.287 -31.877  1.00  0.00     0.280 C 
BRANCH  19  20
HETATM   20  O   UNL     1      -1.898   5.908 -30.795  1.00  0.00    -0.339 OA
BRANCH  20  21
HETATM   21  C   UNL     1      -1.086   6.513 -29.867  1.00  0.00     0.102 A 
HETATM   22  C   UNL     1      -1.355   7.858 -29.558  1.00  0.00     0.102 A 
HETATM   23  C   UNL     1      -0.519   8.536 -28.662  1.00  0.00     0.051 A 
HETATM   24  C   UNL     1       0.565   7.883 -28.062  1.00  0.00    -0.034 A 
HETATM   25  C   UNL     1       0.825   6.546 -28.383  1.00  0.00     0.014 A 
HETATM   26  C   UNL     1       0.008   5.865 -29.288  1.00  0.00     0.040 A 
BRANCH  22  27
HETATM   27  O   UNL     1      -2.446   8.415 -30.179  1.00  0.00    -0.353 OA
HETATM   28  C   UNL     1      -2.436   9.824 -30.363  1.00  0.00     0.210 C 
ENDBRANCH  22  27
BRANCH  24  29
HETATM   29  C   UNL     1       1.435   8.632 -27.151  1.00  0.00     0.007 C 
HETATM   30  C   UNL     1       1.901   8.119 -26.001  1.00  0.00    -0.030 C 
HETATM   31  C   UNL     1       2.777   8.874 -25.054  1.00  0.00     0.036 C 
ENDBRANCH  24  29
ENDBRANCH  20  21
ENDBRANCH  19  20
ENDBRANCH   1  19
TORSDOF 7
ENDMDL
MODEL 2
REMARK VINA RESULT:      -8.8      1.567      2.631
REMARK  7 active torsions:
REMARK  status: ('A' for Active; 'I' for Inactive)
REMARK    1  A    between atoms: C_3  and  C_4 
REMARK    2  A    between atoms: C_6  and  O_7 
REMARK    3  A    between atoms: C_9  and  O_10 
REMARK    4  A    between atoms: O_10  and  C_11 
REMARK    5  A    between atoms: C_11  and  C_12 
REMARK       I    between atoms: C_12  and  N_13 
REMARK    6  A    between atoms: N_13  and  N_14 
REMARK       I    between atoms: N_14  and  C_15 
REMARK    7  A    between atoms: C_15  and  C_16 
ROOT
HETATM    1  C   UNL     1      -2.774   4.490 -31.786  1.00  0.00     0.260 C 
HETATM    2  N   UNL     1      -3.209   3.568 -30.854  1.00  0.00    -0.265 N 
HETATM    3  O   UNL     1      -2.292   4.168 -32.873  1.00  0.00    -0.269 OA
HETATM    4  H   UNL     1      -3.780   3.855 -30.059  1.00  0.00     0.190 HD
ENDROOT
BRANCH   2   5
HETATM    5  N   UNL     1      -3.253   2.223 -31.226  1.00  0.00    -0.263 N 
HETATM    6  C   UNL     1      -4.454   1.654 -31.595  1.00  0.00     0.272 C 
HETATM    7  O   UNL     1      -5.523   2.255 -31.490  1.00  0.00    -0.266 OA
HETATM    8  H   UNL     1      -2.369   1.730 -31.281  1.00  0.00     0.190 HD
BRANCH   6   9
HETATM    9  C   UNL     1      -4.367   0.268 -32.047  1.00  0.00     0.061 A 
HETATM   10  C   UNL     1      -5.094  -0.438 -33.069  1.00  0.00     0.008 A 
HETATM   11  C   UNL     1      -4.567  -1.737 -33.141  1.00  0.00     0.045 A 
HETATM   12  C   UNL     1      -6.163  -0.107 -33.937  1.00  0.00     0.015 A 
HETATM   13  C   UNL     1      -5.030  -2.678 -34.078  1.00  0.00     0.030 A 
HETATM   14  N   UNL     1      -3.604  -1.835 -32.162  1.00  0.00    -0.359 N 
HETATM   15  C   UNL     1      -6.060  -2.307 -34.944  1.00  0.00     0.002 A 
HETATM   16  C   UNL     1      -6.627  -1.041 -34.870  1.00  0.00     0.001 A 
HETATM   17  C   UNL     1      -2.814  -3.002 -31.839  1.00  0.00     0.156 C 
HETATM   18  C   UNL     1      -3.492  -0.648 -31.491  1.00  0.00     0.108 A 
ENDBRANCH   6   9
ENDBRANCH   2   5
BRANCH   1  19
HETATM   19  C   UNL     1      -2.996   5.945 -31.383  1.00  0.00     0.280 C 
BRANCH  19  20
HETATM   20  O   UNL     1      -1.853   6.728 -31.714  1.00  0.00    -0.339 OA
BRANCH  20  21
HETATM   21  C   UNL     1      -1.229   7.318 -30.642  1.00  0.00     0.102 A 
HETATM   22  C   UNL     1       0.073   6.885 -30.337  1.00  0.00     0.102 A 
HETATM   23  C   UNL     1       0.728   7.414 -29.219  1.00  0.00     0.051 A 
HETATM   24  C   UNL     1       0.106   8.381 -28.418  1.00  0.00    -0.034 A 
HETATM   25  C   UNL     1      -1.192   8.799 -28.729  1.00  0.00     0.014 A 
HETATM   26  C   UNL     1      -1.862   8.266 -29.832  1.00  0.00     0.040 A 
BRANCH  22  27
HETATM   27  O   UNL     1       0.611   5.947 -31.184  1.00  0.00    -0.353 OA
HETATM   28  C   UNL     1       0.899   4.668 -30.634  1.00  0.00     0.210 C 
ENDBRANCH  22  27
BRANCH  24  29
HETATM   29  C   UNL     1       0.810   8.892 -27.239  1.00  0.00     0.007 C 
HETATM   30  C   UNL     1       1.714   8.169 -26.559  1.00  0.00    -0.030 C 
HETATM   31  C   UNL     1       2.431   8.670 -25.347  1.00  0.00     0.036 C 
ENDBRANCH  24  29
ENDBRANCH  20  21
ENDBRANCH  19  20
ENDBRANCH   1  19
TORSDOF 7
ENDMDL
MODEL 3
REMARK VINA RESULT:      -8.7      1.710      2.329
REMARK  7 active torsions:
REMARK  status: ('A' for Active; 'I' for Inactive)
REMARK    1  A    between atoms: C_3  and  C_4 
REMARK    2  A    between atoms: C_6  and  O_7 
REMARK    3  A    between atoms: C_9  and  O_10 
REMARK    4  A    between atoms: O_10  and  C_11 
REMARK    5  A    between atoms: C_11  and  C_12 
REMARK       I    between atoms: C_12  and  N_13 
REMARK    6  A    between atoms: N_13  and  N_14 
REMARK       I    between atoms: N_14  and  C_15 
REMARK    7  A    between atoms: C_15  and  C_16 
ROOT
HETATM    1  C   UNL     1      -2.336   4.808 -31.738  1.00  0.00     0.260 C 
HETATM    2  N   UNL     1      -3.270   4.055 -31.053  1.00  0.00    -0.265 N 
HETATM    3  O   UNL     1      -1.512   4.313 -32.509  1.00  0.00    -0.269 OA
HETATM    4  H   UNL     1      -4.059   4.499 -30.583  1.00  0.00     0.190 HD
ENDROOT
BRANCH   2   5
HETATM    5  N   UNL     1      -3.388   2.700 -31.369  1.00  0.00    -0.263 N 
HETATM    6  C   UNL     1      -4.563   2.226 -31.915  1.00  0.00     0.272 C 
HETATM    7  O   UNL     1      -5.567   2.929 -32.021  1.00  0.00    -0.266 OA
HETATM    8  H   UNL     1      -2.563   2.125 -31.251  1.00  0.00     0.190 HD
BRANCH   6   9
HETATM    9  C   UNL     1      -4.543   0.813 -32.288  1.00  0.00     0.061 A 
HETATM   10  C   UNL     1      -5.327   0.080 -33.246  1.00  0.00     0.008 A 
HETATM   11  C   UNL     1      -4.854  -1.241 -33.256  1.00  0.00     0.045 A 
HETATM   12  C   UNL     1      -6.407   0.404 -34.103  1.00  0.00     0.015 A 
HETATM   13  C   UNL     1      -5.381  -2.216 -34.123  1.00  0.00     0.030 A 
HETATM   14  N   UNL     1      -3.868  -1.322 -32.298  1.00  0.00    -0.359 N 
HETATM   15  C   UNL     1      -6.421  -1.853 -34.981  1.00  0.00     0.002 A 
HETATM   16  C   UNL     1      -6.935  -0.563 -34.967  1.00  0.00     0.001 A 
HETATM   17  C   UNL     1      -3.116  -2.500 -31.928  1.00  0.00     0.156 C 
HETATM   18  C   UNL     1      -3.690  -0.104 -31.702  1.00  0.00     0.108 A 
ENDBRANCH   6   9
ENDBRANCH   2   5
BRANCH   1  19
HETATM   19  C   UNL     1      -2.450   6.312 -31.509  1.00  0.00     0.280 C 
BRANCH  19  20
HETATM   20  O   UNL     1      -2.680   6.584 -30.129  1.00  0.00    -0.339 OA
BRANCH  20  21
HETATM   21  C   UNL     1      -1.571   6.998 -29.432  1.00  0.00     0.102 A 
HETATM   22  C   UNL     1      -1.750   7.321 -28.075  1.00  0.00     0.102 A 
HETATM   23  C   UNL     1      -0.663   7.804 -27.337  1.00  0.00     0.051 A 
HETATM   24  C   UNL     1       0.598   7.949 -27.931  1.00  0.00    -0.034 A 
HETATM   25  C   UNL     1       0.760   7.629 -29.283  1.00  0.00     0.014 A 
HETATM   26  C   UNL     1      -0.321   7.163 -30.034  1.00  0.00     0.040 A 
BRANCH  22  27
HETATM   27  O   UNL     1      -3.013   7.134 -27.570  1.00  0.00    -0.353 OA
HETATM   28  C   UNL     1      -3.131   6.976 -26.163  1.00  0.00     0.210 C 
ENDBRANCH  22  27
BRANCH  24  29
HETATM   29  C   UNL     1       1.706   8.484 -27.135  1.00  0.00     0.007 C 
HETATM   30  C   UNL     1       1.760   8.380 -25.798  1.00  0.00    -0.030 C 
HETATM   31  C   UNL     1       2.875   8.932 -24.970  1.00  0.00     0.036 C 
ENDBRANCH  24  29
ENDBRANCH  20  21
ENDBRANCH  19  20
ENDBRANCH   1  19
TORSDOF 7
ENDMDL
MODEL 4
REMARK VINA RESULT:      -8.7      1.598      2.303
REMARK  7 active torsions:
REMARK  status: ('A' for Active; 'I' for Inactive)
REMARK    1  A    between atoms: C_3  and  C_4 
REMARK    2  A    between atoms: C_6  and  O_7 
REMARK    3  A    between atoms: C_9  and  O_10 
REMARK    4  A    between atoms: O_10  and  C_11 
REMARK    5  A    between atoms: C_11  and  C_12 
REMARK       I    between atoms: C_12  and  N_13 
REMARK    6  A    between atoms: N_13  and  N_14 
REMARK       I    between atoms: N_14  and  C_15 
REMARK    7  A    between atoms: C_15  and  C_16 
ROOT
HETATM    1  C   UNL     1      -2.663   4.979 -33.516  1.00  0.00     0.260 C 
HETATM    2  N   UNL     1      -3.293   4.218 -32.551  1.00  0.00    -0.265 N 
HETATM    3  O   UNL     1      -2.033   4.485 -34.453  1.00  0.00    -0.269 OA
HETATM    4  H   UNL     1      -3.967   4.637 -31.910  1.00  0.00     0.190 HD
ENDROOT
BRANCH   2   5
HETATM    5  N   UNL     1      -3.353   2.835 -32.734  1.00  0.00    -0.263 N 
HETATM    6  C   UNL     1      -4.154   2.071 -31.910  1.00  0.00     0.272 C 
HETATM    7  O   UNL     1      -4.728   2.545 -30.931  1.00  0.00    -0.266 OA
HETATM    8  H   UNL     1      -2.854   2.452 -33.528  1.00  0.00     0.190 HD
BRANCH   6   9
HETATM    9  C   UNL     1      -4.208   0.651 -32.249  1.00  0.00     0.061 A 
HETATM   10  C   UNL     1      -5.041  -0.066 -33.178  1.00  0.00     0.008 A 
HETATM   11  C   UNL     1      -4.632  -1.409 -33.162  1.00  0.00     0.045 A 
HETATM   12  C   UNL     1      -6.117   0.289 -34.026  1.00  0.00     0.015 A 
HETATM   13  C   UNL     1      -5.219  -2.377 -33.997  1.00  0.00     0.030 A 
HETATM   14  N   UNL     1      -3.636  -1.515 -32.217  1.00  0.00    -0.359 N 
HETATM   15  C   UNL     1      -6.253  -1.984 -34.849  1.00  0.00     0.002 A 
HETATM   16  C   UNL     1      -6.704  -0.671 -34.858  1.00  0.00     0.001 A 
HETATM   17  C   UNL     1      -2.935  -2.719 -31.830  1.00  0.00     0.156 C 
HETATM   18  C   UNL     1      -3.390  -0.293 -31.653  1.00  0.00     0.108 A 
ENDBRANCH   6   9
ENDBRANCH   2   5
BRANCH   1  19
HETATM   19  C   UNL     1      -2.864   6.483 -33.363  1.00  0.00     0.280 C 
BRANCH  19  20
HETATM   20  O   UNL     1      -1.604   7.141 -33.263  1.00  0.00    -0.339 OA
BRANCH  20  21
HETATM   21  C   UNL     1      -1.049   7.134 -32.007  1.00  0.00     0.102 A 
HETATM   22  C   UNL     1      -1.481   8.125 -31.108  1.00  0.00     0.102 A 
HETATM   23  C   UNL     1      -0.902   8.197 -29.836  1.00  0.00     0.051 A 
HETATM   24  C   UNL     1       0.085   7.281 -29.447  1.00  0.00    -0.034 A 
HETATM   25  C   UNL     1       0.510   6.304 -30.353  1.00  0.00     0.014 A 
HETATM   26  C   UNL     1      -0.048   6.234 -31.631  1.00  0.00     0.040 A 
BRANCH  22  27
HETATM   27  O   UNL     1      -2.462   8.970 -31.566  1.00  0.00    -0.353 OA
HETATM   28  C   UNL     1      -3.395   9.457 -30.610  1.00  0.00     0.210 C 
ENDBRANCH  22  27
BRANCH  24  29
HETATM   29  C   UNL     1       0.688   7.403 -28.117  1.00  0.00     0.007 C 
HETATM   30  C   UNL     1       1.413   8.468 -27.740  1.00  0.00    -0.030 C 
HETATM   31  C   UNL     1       2.048   8.602 -26.394  1.00  0.00     0.036 C 
ENDBRANCH  24  29
ENDBRANCH  20  21
ENDBRANCH  19  20
ENDBRANCH   1  19
TORSDOF 7
ENDMDL
MODEL 5
REMARK VINA RESULT:      -8.6      1.681      2.052
REMARK  7 active torsions:
REMARK  status: ('A' for Active; 'I' for Inactive)
REMARK    1  A    between atoms: C_3  and  C_4 
REMARK    2  A    between atoms: C_6  and  O_7 
REMARK    3  A    between atoms: C_9  and  O_10 
REMARK    4  A    between atoms: O_10  and  C_11 
REMARK    5  A    between atoms: C_11  and  C_12 
REMARK       I    between atoms: C_12  and  N_13 
REMARK    6  A    between atoms: N_13  and  N_14 
REMARK       I    between atoms: N_14  and  C_15 
REMARK    7  A    between atoms: C_15  and  C_16 
ROOT
HETATM    1  C   UNL     1      -2.958   5.578 -34.441  1.00  0.00     0.260 C 
HETATM    2  N   UNL     1      -3.160   4.717 -33.380  1.00  0.00    -0.265 N 
HETATM    3  O   UNL     1      -3.672   5.581 -35.445  1.00  0.00    -0.269 OA
HETATM    4  H   UNL     1      -2.688   4.866 -32.487  1.00  0.00     0.190 HD
ENDROOT
BRANCH   2   5
HETATM    5  N   UNL     1      -4.314   3.931 -33.375  1.00  0.00    -0.263 N 
HETATM    6  C   UNL     1      -4.378   2.817 -32.564  1.00  0.00     0.272 C 
HETATM    7  O   UNL     1      -3.405   2.411 -31.930  1.00  0.00    -0.266 OA
HETATM    8  H   UNL     1      -5.099   4.261 -33.923  1.00  0.00     0.190 HD
BRANCH   6   9
HETATM    9  C   UNL     1      -5.663   2.122 -32.574  1.00  0.00     0.061 A 
HETATM   10  C   UNL     1      -6.047   0.858 -33.146  1.00  0.00     0.008 A 
HETATM   11  C   UNL     1      -7.390   0.631 -32.805  1.00  0.00     0.045 A 
HETATM   12  C   UNL     1      -5.390  -0.116 -33.935  1.00  0.00     0.015 A 
HETATM   13  C   UNL     1      -8.064  -0.547 -33.174  1.00  0.00     0.030 A 
HETATM   14  N   UNL     1      -7.821   1.739 -32.110  1.00  0.00    -0.359 N 
HETATM   15  C   UNL     1      -7.374  -1.503 -33.922  1.00  0.00     0.002 A 
HETATM   16  C   UNL     1      -6.057  -1.289 -34.306  1.00  0.00     0.001 A 
HETATM   17  C   UNL     1      -9.148   1.968 -31.585  1.00  0.00     0.156 C 
HETATM   18  C   UNL     1      -6.802   2.642 -31.984  1.00  0.00     0.108 A 
ENDBRANCH   6   9
ENDBRANCH   2   5
BRANCH   1  19
HETATM   19  C   UNL     1      -1.815   6.568 -34.241  1.00  0.00     0.280 C 
BRANCH  19  20
HETATM   20  O   UNL     1      -2.166   7.531 -33.252  1.00  0.00    -0.339 OA
BRANCH  20  21
HETATM   21  C   UNL     1      -1.457   7.437 -32.079  1.00  0.00     0.102 A 
HETATM   22  C   UNL     1      -1.804   8.324 -31.045  1.00  0.00     0.102 A 
HETATM   23  C   UNL     1      -1.072   8.307 -29.852  1.00  0.00     0.051 A 
HETATM   24  C   UNL     1      -0.015   7.404 -29.675  1.00  0.00    -0.034 A 
HETATM   25  C   UNL     1       0.324   6.531 -30.714  1.00  0.00     0.014 A 
HETATM   26  C   UNL     1      -0.389   6.551 -31.915  1.00  0.00     0.040 A 
BRANCH  22  27
HETATM   27  O   UNL     1      -2.862   9.162 -31.298  1.00  0.00    -0.353 OA
HETATM   28  C   UNL     1      -4.053   8.944 -30.552  1.00  0.00     0.210 C 
ENDBRANCH  22  27
BRANCH  24  29
HETATM   29  C   UNL     1       0.747   7.433 -28.423  1.00  0.00     0.007 C 
HETATM   30  C   UNL     1       1.143   8.574 -27.837  1.00  0.00    -0.030 C 
HETATM   31  C   UNL     1       1.933   8.621 -26.569  1.00  0.00     0.036 C 
ENDBRANCH  24  29
ENDBRANCH  20  21
ENDBRANCH  19  20
ENDBRANCH   1  19
TORSDOF 7
ENDMDL
MODEL 6
REMARK VINA RESULT:      -8.5      2.310     10.709
REMARK  7 active torsions:
REMARK  status: ('A' for Active; 'I' for Inactive)
REMARK    1  A    between atoms: C_3  and  C_4 
REMARK    2  A    between atoms: C_6  and  O_7 
REMARK    3  A    between atoms: C_9  and  O_10 
REMARK    4  A    between atoms: O_10  and  C_11 
REMARK    5  A    between atoms: C_11  and  C_12 
REMARK       I    between atoms: C_12  and  N_13 
REMARK    6  A    between atoms: N_13  and  N_14 
REMARK       I    between atoms: N_14  and  C_15 
REMARK    7  A    between atoms: C_15  and  C_16 
ROOT
HETATM    1  C   UNL     1      -3.601   4.011 -31.867  1.00  0.00     0.260 C 
HETATM    2  N   UNL     1      -3.991   5.199 -31.281  1.00  0.00    -0.265 N 
HETATM    3  O   UNL     1      -2.591   3.395 -31.524  1.00  0.00    -0.269 OA
HETATM    4  H   UNL     1      -4.924   5.581 -31.440  1.00  0.00     0.190 HD
ENDROOT
BRANCH   2   5
HETATM    5  N   UNL     1      -3.301   5.636 -30.148  1.00  0.00    -0.263 N 
HETATM    6  C   UNL     1      -3.271   6.981 -29.844  1.00  0.00     0.272 C 
HETATM    7  O   UNL     1      -3.725   7.836 -30.604  1.00  0.00    -0.266 OA
HETATM    8  H   UNL     1      -2.907   4.924 -29.545  1.00  0.00     0.190 HD
BRANCH   6   9
HETATM    9  C   UNL     1      -2.596   7.314 -28.591  1.00  0.00     0.061 A 
HETATM   10  C   UNL     1      -1.222   7.645 -28.319  1.00  0.00     0.008 A 
HETATM   11  C   UNL     1      -1.123   7.946 -26.952  1.00  0.00     0.045 A 
HETATM   12  C   UNL     1      -0.042   7.706 -29.099  1.00  0.00     0.015 A 
HETATM   13  C   UNL     1       0.087   8.355 -26.364  1.00  0.00     0.030 A 
HETATM   14  N   UNL     1      -2.370   7.745 -26.404  1.00  0.00    -0.359 N 
HETATM   15  C   UNL     1       1.224   8.441 -27.170  1.00  0.00     0.002 A 
HETATM   16  C   UNL     1       1.165   8.112 -28.518  1.00  0.00     0.001 A 
HETATM   17  C   UNL     1      -2.741   7.899 -25.016  1.00  0.00     0.156 C 
HETATM   18  C   UNL     1      -3.252   7.348 -27.373  1.00  0.00     0.108 A 
ENDBRANCH   6   9
ENDBRANCH   2   5
BRANCH   1  19
HETATM   19  C   UNL     1      -4.560   3.490 -32.933  1.00  0.00     0.280 C 
BRANCH  19  20
HETATM   20  O   UNL     1      -5.615   2.748 -32.326  1.00  0.00    -0.339 OA
BRANCH  20  21
HETATM   21  C   UNL     1      -5.972   1.603 -32.995  1.00  0.00     0.102 A 
HETATM   22  C   UNL     1      -5.606   0.377 -32.413  1.00  0.00     0.102 A 
HETATM   23  C   UNL     1      -5.895  -0.816 -33.085  1.00  0.00     0.051 A 
HETATM   24  C   UNL     1      -6.562  -0.798 -34.318  1.00  0.00    -0.034 A 
HETATM   25  C   UNL     1      -6.916   0.429 -34.889  1.00  0.00     0.014 A 
HETATM   26  C   UNL     1      -6.617   1.626 -34.235  1.00  0.00     0.040 A 
BRANCH  22  27
HETATM   27  O   UNL     1      -4.971   0.451 -31.197  1.00  0.00    -0.353 OA
HETATM   28  C   UNL     1      -3.642  -0.047 -31.130  1.00  0.00     0.210 C 
ENDBRANCH  22  27
BRANCH  24  29
HETATM   29  C   UNL     1      -6.824  -2.064 -35.007  1.00  0.00     0.007 C 
HETATM   30  C   UNL     1      -6.256  -3.224 -34.642  1.00  0.00    -0.030 C 
HETATM   31  C   UNL     1      -6.501  -4.522 -35.342  1.00  0.00     0.036 C 
ENDBRANCH  24  29
ENDBRANCH  20  21
ENDBRANCH  19  20
ENDBRANCH   1  19
TORSDOF 7
ENDMDL
MODEL 7
REMARK VINA RESULT:      -8.5      2.069     10.921
REMARK  7 active torsions:
REMARK  status: ('A' for Active; 'I' for Inactive)
REMARK    1  A    between atoms: C_3  and  C_4 
REMARK    2  A    between atoms: C_6  and  O_7 
REMARK    3  A    between atoms: C_9  and  O_10 
REMARK    4  A    between atoms: O_10  and  C_11 
REMARK    5  A    between atoms: C_11  and  C_12 
REMARK       I    between atoms: C_12  and  N_13 
REMARK    6  A    between atoms: N_13  and  N_14 
REMARK       I    between atoms: N_14  and  C_15 
REMARK    7  A    between atoms: C_15  and  C_16 
ROOT
HETATM    1  C   UNL     1      -4.476   4.513 -31.107  1.00  0.00     0.260 C 
HETATM    2  N   UNL     1      -3.131   4.802 -30.987  1.00  0.00    -0.265 N 
HETATM    3  O   UNL     1      -5.342   5.062 -30.424  1.00  0.00    -0.269 OA
HETATM    4  H   UNL     1      -2.462   4.488 -31.691  1.00  0.00     0.190 HD
ENDROOT
BRANCH   2   5
HETATM    5  N   UNL     1      -2.753   5.871 -30.173  1.00  0.00    -0.263 N 
HETATM    6  C   UNL     1      -1.441   6.299 -30.171  1.00  0.00     0.272 C 
HETATM    7  O   UNL     1      -0.553   5.692 -30.768  1.00  0.00    -0.266 OA
HETATM    8  H   UNL     1      -3.489   6.346 -29.664  1.00  0.00     0.190 HD
BRANCH   6   9
HETATM    9  C   UNL     1      -1.180   7.479 -29.350  1.00  0.00     0.061 A 
HETATM   10  C   UNL     1      -0.192   7.718 -28.331  1.00  0.00     0.008 A 
HETATM   11  C   UNL     1      -0.337   9.049 -27.907  1.00  0.00     0.045 A 
HETATM   12  C   UNL     1       0.808   6.930 -27.711  1.00  0.00     0.015 A 
HETATM   13  C   UNL     1       0.512   9.620 -26.942  1.00  0.00     0.030 A 
HETATM   14  N   UNL     1      -1.407   9.575 -28.594  1.00  0.00    -0.359 N 
HETATM   15  C   UNL     1       1.512   8.825 -26.378  1.00  0.00     0.002 A 
HETATM   16  C   UNL     1       1.653   7.494 -26.750  1.00  0.00     0.001 A 
HETATM   17  C   UNL     1      -1.950  10.909 -28.461  1.00  0.00     0.156 C 
HETATM   18  C   UNL     1      -1.929   8.638 -29.444  1.00  0.00     0.108 A 
ENDBRANCH   6   9
ENDBRANCH   2   5
BRANCH   1  19
HETATM   19  C   UNL     1      -4.808   3.503 -32.201  1.00  0.00     0.280 C 
BRANCH  19  20
HETATM   20  O   UNL     1      -4.427   2.192 -31.793  1.00  0.00    -0.339 OA
BRANCH  20  21
HETATM   21  C   UNL     1      -5.007   1.175 -32.510  1.00  0.00     0.102 A 
HETATM   22  C   UNL     1      -4.482  -0.117 -32.332  1.00  0.00     0.102 A 
HETATM   23  C   UNL     1      -5.001  -1.178 -33.084  1.00  0.00     0.051 A 
HETATM   24  C   UNL     1      -6.046  -0.966 -33.993  1.00  0.00    -0.034 A 
HETATM   25  C   UNL     1      -6.555   0.326 -34.165  1.00  0.00     0.014 A 
HETATM   26  C   UNL     1      -6.034   1.394 -33.432  1.00  0.00     0.040 A 
BRANCH  22  27
HETATM   27  O   UNL     1      -3.471  -0.237 -31.411  1.00  0.00    -0.353 OA
HETATM   28  C   UNL     1      -2.392  -1.101 -31.742  1.00  0.00     0.210 C 
ENDBRANCH  22  27
BRANCH  24  29
HETATM   29  C   UNL     1      -6.545  -2.095 -34.783  1.00  0.00     0.007 C 
HETATM   30  C   UNL     1      -6.087  -3.347 -34.636  1.00  0.00    -0.030 C 
HETATM   31  C   UNL     1      -6.575  -4.507 -35.443  1.00  0.00     0.036 C 
ENDBRANCH  24  29
ENDBRANCH  20  21
ENDBRANCH  19  20
ENDBRANCH   1  19
TORSDOF 7
ENDMDL
MODEL 8
REMARK VINA RESULT:      -8.5      2.728      9.917
REMARK  7 active torsions:
REMARK  status: ('A' for Active; 'I' for Inactive)
REMARK    1  A    between atoms: C_3  and  C_4 
REMARK    2  A    between atoms: C_6  and  O_7 
REMARK    3  A    between atoms: C_9  and  O_10 
REMARK    4  A    between atoms: O_10  and  C_11 
REMARK    5  A    between atoms: C_11  and  C_12 
REMARK       I    between atoms: C_12  and  N_13 
REMARK    6  A    between atoms: N_13  and  N_14 
REMARK       I    between atoms: N_14  and  C_15 
REMARK    7  A    between atoms: C_15  and  C_16 
ROOT
HETATM    1  C   UNL     1      -6.394   4.896 -33.615  1.00  0.00     0.260 C 
HETATM    2  N   UNL     1      -6.427   5.393 -32.327  1.00  0.00    -0.265 N 
HETATM    3  O   UNL     1      -5.473   5.128 -34.400  1.00  0.00    -0.269 OA
HETATM    4  H   UNL     1      -7.089   5.029 -31.641  1.00  0.00     0.190 HD
ENDROOT
BRANCH   2   5
HETATM    5  N   UNL     1      -5.295   6.052 -31.843  1.00  0.00    -0.263 N 
HETATM    6  C   UNL     1      -4.764   5.690 -30.623  1.00  0.00     0.272 C 
HETATM    7  O   UNL     1      -5.323   4.888 -29.876  1.00  0.00    -0.266 OA
HETATM    8  H   UNL     1      -4.859   6.731 -32.456  1.00  0.00     0.190 HD
BRANCH   6   9
HETATM    9  C   UNL     1      -3.531   6.384 -30.258  1.00  0.00     0.061 A 
HETATM   10  C   UNL     1      -2.163   6.132 -30.627  1.00  0.00     0.008 A 
HETATM   11  C   UNL     1      -1.378   7.144 -30.052  1.00  0.00     0.045 A 
HETATM   12  C   UNL     1      -1.506   5.134 -31.386  1.00  0.00     0.015 A 
HETATM   13  C   UNL     1       0.012   7.217 -30.257  1.00  0.00     0.030 A 
HETATM   14  N   UNL     1      -2.224   7.938 -29.312  1.00  0.00    -0.359 N 
HETATM   15  C   UNL     1       0.622   6.236 -31.042  1.00  0.00     0.002 A 
HETATM   16  C   UNL     1      -0.123   5.202 -31.592  1.00  0.00     0.001 A 
HETATM   17  C   UNL     1      -1.857   9.087 -28.515  1.00  0.00     0.156 C 
HETATM   18  C   UNL     1      -3.509   7.480 -29.414  1.00  0.00     0.108 A 
ENDBRANCH   6   9
ENDBRANCH   2   5
BRANCH   1  19
HETATM   19  C   UNL     1      -7.564   3.982 -33.968  1.00  0.00     0.280 C 
BRANCH  19  20
HETATM   20  O   UNL     1      -7.708   2.963 -32.981  1.00  0.00    -0.339 OA
BRANCH  20  21
HETATM   21  C   UNL     1      -7.350   1.705 -33.397  1.00  0.00     0.102 A 
HETATM   22  C   UNL     1      -6.161   1.169 -32.872  1.00  0.00     0.102 A 
HETATM   23  C   UNL     1      -5.722  -0.087 -33.310  1.00  0.00     0.051 A 
HETATM   24  C   UNL     1      -6.466  -0.817 -34.247  1.00  0.00    -0.034 A 
HETATM   25  C   UNL     1      -7.644  -0.269 -34.765  1.00  0.00     0.014 A 
HETATM   26  C   UNL     1      -8.082   0.990 -34.349  1.00  0.00     0.040 A 
BRANCH  22  27
HETATM   27  O   UNL     1      -5.504   1.944 -31.948  1.00  0.00    -0.353 OA
HETATM   28  C   UNL     1      -4.145   2.262 -32.218  1.00  0.00     0.210 C 
ENDBRANCH  22  27
BRANCH  24  29
HETATM   29  C   UNL     1      -5.962  -2.115 -34.703  1.00  0.00     0.007 C 
HETATM   30  C   UNL     1      -6.750  -3.191 -34.853  1.00  0.00    -0.030 C 
HETATM   31  C   UNL     1      -6.251  -4.526 -35.304  1.00  0.00     0.036 C 
ENDBRANCH  24  29
ENDBRANCH  20  21
ENDBRANCH  19  20
ENDBRANCH   1  19
TORSDOF 7
ENDMDL
MODEL 9
REMARK VINA RESULT:      -8.4      2.265     10.895
REMARK  7 active torsions:
REMARK  status: ('A' for Active; 'I' for Inactive)
REMARK    1  A    between atoms: C_3  and  C_4 
REMARK    2  A    between atoms: C_6  and  O_7 
REMARK    3  A    between atoms: C_9  and  O_10 
REMARK    4  A    between atoms: O_10  and  C_11 
REMARK    5  A    between atoms: C_11  and  C_12 
REMARK       I    between atoms: C_12  and  N_13 
REMARK    6  A    between atoms: N_13  and  N_14 
REMARK       I    between atoms: N_14  and  C_15 
REMARK    7  A    between atoms: C_15  and  C_16 
ROOT
HETATM    1  C   UNL     1      -4.156   4.231 -31.210  1.00  0.00     0.260 C 
HETATM    2  N   UNL     1      -2.842   4.630 -31.066  1.00  0.00    -0.265 N 
HETATM    3  O   UNL     1      -5.069   4.664 -30.505  1.00  0.00    -0.269 OA
HETATM    4  H   UNL     1      -2.146   4.414 -31.780  1.00  0.00     0.190 HD
ENDROOT
BRANCH   2   5
HETATM    5  N   UNL     1      -2.562   5.684 -30.194  1.00  0.00    -0.263 N 
HETATM    6  C   UNL     1      -1.925   6.812 -30.668  1.00  0.00     0.272 C 
HETATM    7  O   UNL     1      -1.476   6.879 -31.812  1.00  0.00    -0.266 OA
HETATM    8  H   UNL     1      -2.913   5.605 -29.247  1.00  0.00     0.190 HD
BRANCH   6   9
HETATM    9  C   UNL     1      -1.763   7.885 -29.690  1.00  0.00     0.061 A 
HETATM   10  C   UNL     1      -0.650   8.231 -28.846  1.00  0.00     0.008 A 
HETATM   11  C   UNL     1      -0.999   9.395 -28.143  1.00  0.00     0.045 A 
HETATM   12  C   UNL     1       0.622   7.662 -28.595  1.00  0.00     0.015 A 
HETATM   13  C   UNL     1      -0.107  10.027 -27.258  1.00  0.00     0.030 A 
HETATM   14  N   UNL     1      -2.292   9.707 -28.498  1.00  0.00    -0.359 N 
HETATM   15  C   UNL     1       1.153   9.459 -27.062  1.00  0.00     0.002 A 
HETATM   16  C   UNL     1       1.512   8.287 -27.714  1.00  0.00     0.001 A 
HETATM   17  C   UNL     1      -3.085  10.808 -28.000  1.00  0.00     0.156 C 
HETATM   18  C   UNL     1      -2.763   8.799 -29.407  1.00  0.00     0.108 A 
ENDBRANCH   6   9
ENDBRANCH   2   5
BRANCH   1  19
HETATM   19  C   UNL     1      -4.396   3.255 -32.358  1.00  0.00     0.280 C 
BRANCH  19  20
HETATM   20  O   UNL     1      -5.393   2.304 -31.995  1.00  0.00    -0.339 OA
BRANCH  20  21
HETATM   21  C   UNL     1      -5.316   1.106 -32.662  1.00  0.00     0.102 A 
HETATM   22  C   UNL     1      -6.500   0.615 -33.240  1.00  0.00     0.102 A 
HETATM   23  C   UNL     1      -6.486  -0.630 -33.881  1.00  0.00     0.051 A 
HETATM   24  C   UNL     1      -5.303  -1.376 -33.966  1.00  0.00    -0.034 A 
HETATM   25  C   UNL     1      -4.133  -0.879 -33.381  1.00  0.00     0.014 A 
HETATM   26  C   UNL     1      -4.140   0.354 -32.725  1.00  0.00     0.040 A 
BRANCH  22  27
HETATM   27  O   UNL     1      -7.607   1.418 -33.124  1.00  0.00    -0.353 OA
HETATM   28  C   UNL     1      -8.390   1.615 -34.294  1.00  0.00     0.210 C 
ENDBRANCH  22  27
BRANCH  24  29
HETATM   29  C   UNL     1      -5.332  -2.688 -34.619  1.00  0.00     0.007 C 
HETATM   30  C   UNL     1      -6.467  -3.368 -34.839  1.00  0.00    -0.030 C 
HETATM   31  C   UNL     1      -6.513  -4.713 -35.490  1.00  0.00     0.036 C 
ENDBRANCH  24  29
ENDBRANCH  20  21
ENDBRANCH  19  20
ENDBRANCH   1  19
TORSDOF 7
ENDMDL
MODEL 10
REMARK VINA RESULT:      -7.9      6.961      9.745
REMARK  7 active torsions:
REMARK  status: ('A' for Active; 'I' for Inactive)
REMARK    1  A    between atoms: C_3  and  C_4 
REMARK    2  A    between atoms: C_6  and  O_7 
REMARK    3  A    between atoms: C_9  and  O_10 
REMARK    4  A    between atoms: O_10  and  C_11 
REMARK    5  A    between atoms: C_11  and  C_12 
REMARK       I    between atoms: C_12  and  N_13 
REMARK    6  A    between atoms: N_13  and  N_14 
REMARK       I    between atoms: N_14  and  C_15 
REMARK    7  A    between atoms: C_15  and  C_16 
ROOT
HETATM    1  C   UNL     1      -9.951   1.435 -32.958  1.00  0.00     0.260 C 
HETATM    2  N   UNL     1      -9.358   0.741 -33.994  1.00  0.00    -0.265 N 
HETATM    3  O   UNL     1      -9.650   1.261 -31.776  1.00  0.00    -0.269 OA
HETATM    4  H   UNL     1      -9.476   1.040 -34.962  1.00  0.00     0.190 HD
ENDROOT
BRANCH   2   5
HETATM    5  N   UNL     1      -8.263  -0.075 -33.703  1.00  0.00    -0.263 N 
HETATM    6  C   UNL     1      -7.175  -0.087 -34.551  1.00  0.00     0.272 C 
HETATM    7  O   UNL     1      -7.179   0.503 -35.631  1.00  0.00    -0.266 OA
HETATM    8  H   UNL     1      -8.283  -0.578 -32.823  1.00  0.00     0.190 HD
BRANCH   6   9
HETATM    9  C   UNL     1      -6.053  -0.908 -34.102  1.00  0.00     0.061 A 
HETATM   10  C   UNL     1      -5.783  -2.311 -34.275  1.00  0.00     0.008 A 
HETATM   11  C   UNL     1      -4.529  -2.574 -33.702  1.00  0.00     0.045 A 
HETATM   12  C   UNL     1      -6.488  -3.395 -34.853  1.00  0.00     0.015 A 
HETATM   13  C   UNL     1      -3.944  -3.852 -33.741  1.00  0.00     0.030 A 
HETATM   14  N   UNL     1      -4.085  -1.394 -33.149  1.00  0.00    -0.359 N 
HETATM   15  C   UNL     1      -4.651  -4.891 -34.351  1.00  0.00     0.002 A 
HETATM   16  C   UNL     1      -5.910  -4.669 -34.893  1.00  0.00     0.001 A 
HETATM   17  C   UNL     1      -2.852  -1.189 -32.421  1.00  0.00     0.156 C 
HETATM   18  C   UNL     1      -4.998  -0.399 -33.366  1.00  0.00     0.108 A 
ENDBRANCH   6   9
ENDBRANCH   2   5
BRANCH   1  19
HETATM   19  C   UNL     1     -10.966   2.484 -33.402  1.00  0.00     0.280 C 
BRANCH  19  20
HETATM   20  O   UNL     1     -10.726   2.859 -34.756  1.00  0.00    -0.339 OA
BRANCH  20  21
HETATM   21  C   UNL     1     -11.151   4.122 -35.087  1.00  0.00     0.102 A 
HETATM   22  C   UNL     1     -10.205   5.159 -35.009  1.00  0.00     0.102 A 
HETATM   23  C   UNL     1     -10.604   6.474 -35.279  1.00  0.00     0.051 A 
HETATM   24  C   UNL     1     -11.926   6.758 -35.644  1.00  0.00    -0.034 A 
HETATM   25  C   UNL     1     -12.859   5.718 -35.713  1.00  0.00     0.014 A 
HETATM   26  C   UNL     1     -12.476   4.405 -35.429  1.00  0.00     0.040 A 
BRANCH  22  27
HETATM   27  O   UNL     1      -8.929   4.789 -34.659  1.00  0.00    -0.353 OA
HETATM   28  C   UNL     1      -8.299   5.534 -33.625  1.00  0.00     0.210 C 
ENDBRANCH  22  27
BRANCH  24  29
HETATM   29  C   UNL     1     -12.315   8.149 -35.893  1.00  0.00     0.007 C 
HETATM   30  C   UNL     1     -13.402   8.712 -35.344  1.00  0.00    -0.030 C 
HETATM   31  C   UNL     1     -13.821  10.124 -35.599  1.00  0.00     0.036 C 
ENDBRANCH  24  29
ENDBRANCH  20  21
ENDBRANCH  19  20
ENDBRANCH   1  19
TORSDOF 7
ENDMDL
