MODEL 1
REMARK VINA RESULT:      -8.6      0.000      0.000
REMARK  8 active torsions:
REMARK  status: ('A' for Active; 'I' for Inactive)
REMARK    1  A    between atoms: C_4  and  C_5 
REMARK    2  A    between atoms: C_5  and  N_6 
REMARK       I    between atoms: N_6  and  C_7 
REMARK    3  A    between atoms: C_7  and  C_8 
REMARK    4  A    between atoms: C_11  and  C_12 
REMARK    5  A    between atoms: C_12  and  O_13 
REMARK    6  A    between atoms: O_13  and  C_14 
REMARK    7  A    between atoms: C_25  and  C_26 
REMARK    8  A    between atoms: C_26  and  O_27 
ROOT
HETATM    1  N   UNL     1      -6.074   3.234 -33.682  1.00  0.00    -0.351 N 
HETATM    2  C   UNL     1      -6.194   4.595 -33.824  1.00  0.00     0.251 C 
HETATM    3  O   UNL     1      -7.218   5.129 -34.238  1.00  0.00    -0.268 OA
HETATM    4  H   UNL     1      -5.190   2.780 -33.480  1.00  0.00     0.163 HD
ENDROOT
BRANCH   2   5
HETATM    5  C   UNL     1      -4.998   5.419 -33.495  1.00  0.00     0.032 A 
HETATM    6  C   UNL     1      -3.933   5.424 -34.405  1.00  0.00     0.017 A 
HETATM    7  C   UNL     1      -2.777   6.160 -34.137  1.00  0.00     0.010 A 
HETATM    8  C   UNL     1      -2.667   6.904 -32.956  1.00  0.00    -0.034 A 
HETATM    9  C   UNL     1      -3.752   6.931 -32.067  1.00  0.00     0.010 A 
HETATM   10  C   UNL     1      -4.910   6.191 -32.332  1.00  0.00     0.017 A 
BRANCH   8  11
HETATM   11  C   UNL     1      -1.406   7.684 -32.665  1.00  0.00     0.214 C 
BRANCH  11  12
HETATM   12  O   UNL     1      -0.326   6.766 -32.519  1.00  0.00    -0.347 OA
BRANCH  12  13
HETATM   13  C   UNL     1       0.011   6.409 -31.242  1.00  0.00     0.069 A 
HETATM   14  C   UNL     1       0.534   5.178 -30.841  1.00  0.00     0.037 A 
HETATM   15  C   UNL     1       0.838   4.947 -29.495  1.00  0.00     0.003 A 
HETATM   16  C   UNL     1       0.620   5.943 -28.545  1.00  0.00     0.000 A 
HETATM   17  C   UNL     1       0.096   7.172 -28.938  1.00  0.00     0.003 A 
HETATM   18  C   UNL     1      -0.206   7.402 -30.282  1.00  0.00     0.037 A 
ENDBRANCH  12  13
ENDBRANCH  11  12
ENDBRANCH   8  11
ENDBRANCH   2   5
BRANCH   1  19
HETATM   19  C   UNL     1      -7.144   2.351 -34.092  1.00  0.00     0.182 C 
BRANCH  19  20
HETATM   20  C   UNL     1      -6.714   0.901 -34.145  1.00  0.00     0.052 A 
HETATM   21  N   UNL     1      -5.752   0.478 -33.278  1.00  0.00    -0.256 NA
HETATM   22  C   UNL     1      -5.364  -0.824 -33.333  1.00  0.00     0.040 A 
HETATM   23  C   UNL     1      -4.305  -1.215 -32.341  1.00  0.00     0.071 C 
HETATM   24  C   UNL     1      -5.901  -1.744 -34.245  1.00  0.00    -0.006 A 
HETATM   25  C   UNL     1      -6.889  -1.273 -35.120  1.00  0.00     0.014 A 
HETATM   26  C   UNL     1      -7.299   0.054 -35.075  1.00  0.00     0.029 A 
BRANCH  24  27
HETATM   27  C   UNL     1      -5.488  -3.198 -34.276  1.00  0.00     0.149 C 
HETATM   28  C   UNL     1      -6.504  -4.050 -35.028  1.00  0.00     0.044 C 
BRANCH  27  29
HETATM   29  O   UNL     1      -4.216  -3.326 -34.916  1.00  0.00    -0.391 OA
HETATM   30  H   UNL     1      -3.561  -3.514 -34.222  1.00  0.00     0.210 HD
ENDBRANCH  27  29
ENDBRANCH  24  27
ENDBRANCH  19  20
ENDBRANCH   1  19
TORSDOF 8
ENDMDL
MODEL 2
REMARK VINA RESULT:      -8.5      5.210      9.033
REMARK  8 active torsions:
REMARK  status: ('A' for Active; 'I' for Inactive)
REMARK    1  A    between atoms: C_4  and  C_5 
REMARK    2  A    between atoms: C_5  and  N_6 
REMARK       I    between atoms: N_6  and  C_7 
REMARK    3  A    between atoms: C_7  and  C_8 
REMARK    4  A    between atoms: C_11  and  C_12 
REMARK    5  A    between atoms: C_12  and  O_13 
REMARK    6  A    between atoms: O_13  and  C_14 
REMARK    7  A    between atoms: C_25  and  C_26 
REMARK    8  A    between atoms: C_26  and  O_27 
ROOT
HETATM    1  N   UNL     1      -9.278   3.043 -33.149  1.00  0.00    -0.351 N 
HETATM    2  C   UNL     1      -8.602   2.694 -32.005  1.00  0.00     0.251 C 
HETATM    3  O   UNL     1      -8.898   3.138 -30.900  1.00  0.00    -0.268 OA
HETATM    4  H   UNL     1      -8.950   2.796 -34.076  1.00  0.00     0.163 HD
ENDROOT
BRANCH   2   5
HETATM    5  C   UNL     1      -7.441   1.773 -32.158  1.00  0.00     0.032 A 
HETATM    6  C   UNL     1      -7.539   0.494 -31.597  1.00  0.00     0.017 A 
HETATM    7  C   UNL     1      -6.474  -0.403 -31.690  1.00  0.00     0.010 A 
HETATM    8  C   UNL     1      -5.292  -0.036 -32.345  1.00  0.00    -0.034 A 
HETATM    9  C   UNL     1      -5.212   1.231 -32.943  1.00  0.00     0.010 A 
HETATM   10  C   UNL     1      -6.279   2.133 -32.848  1.00  0.00     0.017 A 
BRANCH   8  11
HETATM   11  C   UNL     1      -4.136  -1.005 -32.426  1.00  0.00     0.214 C 
BRANCH  11  12
HETATM   12  O   UNL     1      -3.986  -1.426 -33.778  1.00  0.00    -0.347 OA
BRANCH  12  13
HETATM   13  C   UNL     1      -4.724  -2.509 -34.172  1.00  0.00     0.069 A 
HETATM   14  C   UNL     1      -6.001  -2.476 -34.737  1.00  0.00     0.037 A 
HETATM   15  C   UNL     1      -6.642  -3.666 -35.097  1.00  0.00     0.003 A 
HETATM   16  C   UNL     1      -6.012  -4.892 -34.893  1.00  0.00     0.000 A 
HETATM   17  C   UNL     1      -4.741  -4.933 -34.328  1.00  0.00     0.003 A 
HETATM   18  C   UNL     1      -4.101  -3.744 -33.969  1.00  0.00     0.037 A 
ENDBRANCH  12  13
ENDBRANCH  11  12
ENDBRANCH   8  11
ENDBRANCH   2   5
BRANCH   1  19
HETATM   19  C   UNL     1     -10.340   4.024 -33.109  1.00  0.00     0.182 C 
BRANCH  19  20
HETATM   20  C   UNL     1     -11.713   3.391 -33.030  1.00  0.00     0.052 A 
HETATM   21  N   UNL     1     -11.853   2.096 -33.426  1.00  0.00    -0.256 NA
HETATM   22  C   UNL     1     -13.089   1.532 -33.359  1.00  0.00     0.040 A 
HETATM   23  C   UNL     1     -13.161   0.100 -33.806  1.00  0.00     0.071 C 
HETATM   24  C   UNL     1     -14.223   2.228 -32.913  1.00  0.00    -0.006 A 
HETATM   25  C   UNL     1     -14.039   3.558 -32.513  1.00  0.00     0.014 A 
HETATM   26  C   UNL     1     -12.782   4.147 -32.572  1.00  0.00     0.029 A 
BRANCH  24  27
HETATM   27  C   UNL     1     -15.586   1.583 -32.810  1.00  0.00     0.149 C 
HETATM   28  C   UNL     1     -16.575   2.485 -32.079  1.00  0.00     0.044 C 
BRANCH  27  29
HETATM   29  O   UNL     1     -16.093   1.311 -34.119  1.00  0.00    -0.391 OA
HETATM   30  H   UNL     1     -16.982   1.701 -34.173  1.00  0.00     0.210 HD
ENDBRANCH  27  29
ENDBRANCH  24  27
ENDBRANCH  19  20
ENDBRANCH   1  19
TORSDOF 8
ENDMDL
MODEL 3
REMARK VINA RESULT:      -8.5      1.457      1.907
REMARK  8 active torsions:
REMARK  status: ('A' for Active; 'I' for Inactive)
REMARK    1  A    between atoms: C_4  and  C_5 
REMARK    2  A    between atoms: C_5  and  N_6 
REMARK       I    between atoms: N_6  and  C_7 
REMARK    3  A    between atoms: C_7  and  C_8 
REMARK    4  A    between atoms: C_11  and  C_12 
REMARK    5  A    between atoms: C_12  and  O_13 
REMARK    6  A    between atoms: O_13  and  C_14 
REMARK    7  A    between atoms: C_25  and  C_26 
REMARK    8  A    between atoms: C_26  and  O_27 
ROOT
HETATM    1  N   UNL     1      -5.497   3.203 -33.128  1.00  0.00    -0.351 N 
HETATM    2  C   UNL     1      -4.956   4.362 -33.627  1.00  0.00     0.251 C 
HETATM    3  O   UNL     1      -5.362   4.895 -34.655  1.00  0.00    -0.268 OA
HETATM    4  H   UNL     1      -5.075   2.684 -32.367  1.00  0.00     0.163 HD
ENDROOT
BRANCH   2   5
HETATM    5  C   UNL     1      -3.800   4.944 -32.887  1.00  0.00     0.032 A 
HETATM    6  C   UNL     1      -2.523   4.442 -33.165  1.00  0.00     0.017 A 
HETATM    7  C   UNL     1      -1.407   4.934 -32.486  1.00  0.00     0.010 A 
HETATM    8  C   UNL     1      -1.549   5.936 -31.517  1.00  0.00    -0.034 A 
HETATM    9  C   UNL     1      -2.825   6.466 -31.271  1.00  0.00     0.010 A 
HETATM   10  C   UNL     1      -3.945   5.972 -31.949  1.00  0.00     0.017 A 
BRANCH   8  11
HETATM   11  C   UNL     1      -0.339   6.449 -30.773  1.00  0.00     0.214 C 
BRANCH  11  12
HETATM   12  O   UNL     1      -0.302   5.839 -29.486  1.00  0.00    -0.347 OA
BRANCH  12  13
HETATM   13  C   UNL     1       0.195   6.595 -28.460  1.00  0.00     0.069 A 
HETATM   14  C   UNL     1       0.009   6.357 -27.096  1.00  0.00     0.037 A 
HETATM   15  C   UNL     1       0.580   7.214 -26.149  1.00  0.00     0.003 A 
HETATM   16  C   UNL     1       1.336   8.311 -26.558  1.00  0.00     0.000 A 
HETATM   17  C   UNL     1       1.522   8.555 -27.916  1.00  0.00     0.003 A 
HETATM   18  C   UNL     1       0.953   7.698 -28.862  1.00  0.00     0.037 A 
ENDBRANCH  12  13
ENDBRANCH  11  12
ENDBRANCH   8  11
ENDBRANCH   2   5
BRANCH   1  19
HETATM   19  C   UNL     1      -6.541   2.506 -33.849  1.00  0.00     0.182 C 
BRANCH  19  20
HETATM   20  C   UNL     1      -6.272   1.022 -33.969  1.00  0.00     0.052 A 
HETATM   21  N   UNL     1      -5.350   0.460 -33.140  1.00  0.00    -0.256 NA
HETATM   22  C   UNL     1      -5.107  -0.874 -33.255  1.00  0.00     0.040 A 
HETATM   23  C   UNL     1      -4.083  -1.419 -32.302  1.00  0.00     0.071 C 
HETATM   24  C   UNL     1      -5.755  -1.690 -34.195  1.00  0.00    -0.006 A 
HETATM   25  C   UNL     1      -6.698  -1.076 -35.030  1.00  0.00     0.014 A 
HETATM   26  C   UNL     1      -6.960   0.284 -34.922  1.00  0.00     0.029 A 
BRANCH  24  27
HETATM   27  C   UNL     1      -5.504  -3.177 -34.293  1.00  0.00     0.149 C 
HETATM   28  C   UNL     1      -6.667  -3.894 -34.970  1.00  0.00     0.044 C 
BRANCH  27  29
HETATM   29  O   UNL     1      -4.313  -3.418 -35.047  1.00  0.00    -0.391 OA
HETATM   30  H   UNL     1      -4.560  -3.410 -35.987  1.00  0.00     0.210 HD
ENDBRANCH  27  29
ENDBRANCH  24  27
ENDBRANCH  19  20
ENDBRANCH   1  19
TORSDOF 8
ENDMDL
MODEL 4
REMARK VINA RESULT:      -8.5      2.435      9.655
REMARK  8 active torsions:
REMARK  status: ('A' for Active; 'I' for Inactive)
REMARK    1  A    between atoms: C_4  and  C_5 
REMARK    2  A    between atoms: C_5  and  N_6 
REMARK       I    between atoms: N_6  and  C_7 
REMARK    3  A    between atoms: C_7  and  C_8 
REMARK    4  A    between atoms: C_11  and  C_12 
REMARK    5  A    between atoms: C_12  and  O_13 
REMARK    6  A    between atoms: O_13  and  C_14 
REMARK    7  A    between atoms: C_25  and  C_26 
REMARK    8  A    between atoms: C_26  and  O_27 
ROOT
HETATM    1  N   UNL     1      -2.498   5.066 -33.302  1.00  0.00    -0.351 N 
HETATM    2  C   UNL     1      -3.738   4.877 -32.743  1.00  0.00     0.251 C 
HETATM    3  O   UNL     1      -4.352   5.775 -32.176  1.00  0.00    -0.268 OA
HETATM    4  H   UNL     1      -1.928   4.300 -33.641  1.00  0.00     0.163 HD
ENDROOT
BRANCH   2   5
HETATM    5  C   UNL     1      -4.309   3.503 -32.807  1.00  0.00     0.032 A 
HETATM    6  C   UNL     1      -5.537   3.331 -33.457  1.00  0.00     0.017 A 
HETATM    7  C   UNL     1      -6.130   2.069 -33.528  1.00  0.00     0.010 A 
HETATM    8  C   UNL     1      -5.503   0.957 -32.950  1.00  0.00    -0.034 A 
HETATM    9  C   UNL     1      -4.253   1.125 -32.337  1.00  0.00     0.010 A 
HETATM   10  C   UNL     1      -3.658   2.390 -32.263  1.00  0.00     0.017 A 
BRANCH   8  11
HETATM   11  C   UNL     1      -6.160  -0.402 -33.015  1.00  0.00     0.214 C 
BRANCH  11  12
HETATM   12  O   UNL     1      -5.968  -0.940 -34.319  1.00  0.00    -0.347 OA
BRANCH  12  13
HETATM   13  C   UNL     1      -5.736  -2.286 -34.404  1.00  0.00     0.069 A 
HETATM   14  C   UNL     1      -6.648  -3.255 -34.829  1.00  0.00     0.037 A 
HETATM   15  C   UNL     1      -6.275  -4.602 -34.869  1.00  0.00     0.003 A 
HETATM   16  C   UNL     1      -4.993  -4.988 -34.483  1.00  0.00     0.000 A 
HETATM   17  C   UNL     1      -4.080  -4.028 -34.055  1.00  0.00     0.003 A 
HETATM   18  C   UNL     1      -4.453  -2.682 -34.017  1.00  0.00     0.037 A 
ENDBRANCH  12  13
ENDBRANCH  11  12
ENDBRANCH   8  11
ENDBRANCH   2   5
BRANCH   1  19
HETATM   19  C   UNL     1      -1.819   6.337 -33.179  1.00  0.00     0.182 C 
BRANCH  19  20
HETATM   20  C   UNL     1      -1.139   6.505 -31.837  1.00  0.00     0.052 A 
HETATM   21  N   UNL     1      -0.346   5.496 -31.381  1.00  0.00    -0.256 NA
HETATM   22  C   UNL     1       0.258   5.648 -30.172  1.00  0.00     0.040 A 
HETATM   23  C   UNL     1       1.121   4.496 -29.742  1.00  0.00     0.071 C 
HETATM   24  C   UNL     1       0.094   6.789 -29.373  1.00  0.00    -0.006 A 
HETATM   25  C   UNL     1      -0.728   7.807 -29.877  1.00  0.00     0.014 A 
HETATM   26  C   UNL     1      -1.350   7.669 -31.112  1.00  0.00     0.029 A 
BRANCH  24  27
HETATM   27  C   UNL     1       0.796   6.965 -28.047  1.00  0.00     0.149 C 
HETATM   28  C   UNL     1       1.274   8.400 -27.855  1.00  0.00     0.044 C 
BRANCH  27  29
HETATM   29  O   UNL     1      -0.094   6.629 -26.980  1.00  0.00    -0.391 OA
HETATM   30  H   UNL     1      -0.499   5.773 -27.200  1.00  0.00     0.210 HD
ENDBRANCH  27  29
ENDBRANCH  24  27
ENDBRANCH  19  20
ENDBRANCH   1  19
TORSDOF 8
ENDMDL
MODEL 5
REMARK VINA RESULT:      -8.4      2.538      9.895
REMARK  8 active torsions:
REMARK  status: ('A' for Active; 'I' for Inactive)
REMARK    1  A    between atoms: C_4  and  C_5 
REMARK    2  A    between atoms: C_5  and  N_6 
REMARK       I    between atoms: N_6  and  C_7 
REMARK    3  A    between atoms: C_7  and  C_8 
REMARK    4  A    between atoms: C_11  and  C_12 
REMARK    5  A    between atoms: C_12  and  O_13 
REMARK    6  A    between atoms: O_13  and  C_14 
REMARK    7  A    between atoms: C_25  and  C_26 
REMARK    8  A    between atoms: C_26  and  O_27 
ROOT
HETATM    1  N   UNL     1      -2.133   5.338 -33.088  1.00  0.00    -0.351 N 
HETATM    2  C   UNL     1      -3.499   5.243 -33.194  1.00  0.00     0.251 C 
HETATM    3  O   UNL     1      -4.220   6.222 -33.362  1.00  0.00    -0.268 OA
HETATM    4  H   UNL     1      -1.551   4.557 -32.807  1.00  0.00     0.163 HD
ENDROOT
BRANCH   2   5
HETATM    5  C   UNL     1      -4.099   3.887 -33.050  1.00  0.00     0.032 A 
HETATM    6  C   UNL     1      -3.339   2.898 -32.413  1.00  0.00     0.017 A 
HETATM    7  C   UNL     1      -3.841   1.603 -32.270  1.00  0.00     0.010 A 
HETATM    8  C   UNL     1      -5.112   1.276 -32.762  1.00  0.00    -0.034 A 
HETATM    9  C   UNL     1      -5.887   2.280 -33.362  1.00  0.00     0.010 A 
HETATM   10  C   UNL     1      -5.384   3.578 -33.508  1.00  0.00     0.017 A 
BRANCH   8  11
HETATM   11  C   UNL     1      -5.641  -0.132 -32.620  1.00  0.00     0.214 C 
BRANCH  11  12
HETATM   12  O   UNL     1      -5.968  -0.629 -33.914  1.00  0.00    -0.347 OA
BRANCH  12  13
HETATM   13  C   UNL     1      -5.707  -1.950 -34.152  1.00  0.00     0.069 A 
HETATM   14  C   UNL     1      -4.481  -2.595 -33.969  1.00  0.00     0.037 A 
HETATM   15  C   UNL     1      -4.354  -3.959 -34.250  1.00  0.00     0.003 A 
HETATM   16  C   UNL     1      -5.449  -4.685 -34.716  1.00  0.00     0.000 A 
HETATM   17  C   UNL     1      -6.673  -4.048 -34.903  1.00  0.00     0.003 A 
HETATM   18  C   UNL     1      -6.799  -2.686 -34.621  1.00  0.00     0.037 A 
ENDBRANCH  12  13
ENDBRANCH  11  12
ENDBRANCH   8  11
ENDBRANCH   2   5
BRANCH   1  19
HETATM   19  C   UNL     1      -1.480   6.628 -33.095  1.00  0.00     0.182 C 
BRANCH  19  20
HETATM   20  C   UNL     1      -0.954   7.021 -31.731  1.00  0.00     0.052 A 
HETATM   21  N   UNL     1      -1.695   7.874 -30.971  1.00  0.00    -0.256 NA
HETATM   22  C   UNL     1      -1.216   8.229 -29.748  1.00  0.00     0.040 A 
HETATM   23  C   UNL     1      -2.094   9.166 -28.969  1.00  0.00     0.071 C 
HETATM   24  C   UNL     1       0.007   7.765 -29.243  1.00  0.00    -0.006 A 
HETATM   25  C   UNL     1       0.741   6.888 -30.053  1.00  0.00     0.014 A 
HETATM   26  C   UNL     1       0.264   6.513 -31.303  1.00  0.00     0.029 A 
BRANCH  24  27
HETATM   27  C   UNL     1       0.516   8.137 -27.869  1.00  0.00     0.149 C 
HETATM   28  C   UNL     1       0.654   6.910 -26.974  1.00  0.00     0.044 C 
BRANCH  27  29
HETATM   29  O   UNL     1       1.791   8.772 -27.981  1.00  0.00    -0.391 OA
HETATM   30  H   UNL     1       1.928   9.292 -27.170  1.00  0.00     0.210 HD
ENDBRANCH  27  29
ENDBRANCH  24  27
ENDBRANCH  19  20
ENDBRANCH   1  19
TORSDOF 8
ENDMDL
MODEL 6
REMARK VINA RESULT:      -8.4      7.115     13.348
REMARK  8 active torsions:
REMARK  status: ('A' for Active; 'I' for Inactive)
REMARK    1  A    between atoms: C_4  and  C_5 
REMARK    2  A    between atoms: C_5  and  N_6 
REMARK       I    between atoms: N_6  and  C_7 
REMARK    3  A    between atoms: C_7  and  C_8 
REMARK    4  A    between atoms: C_11  and  C_12 
REMARK    5  A    between atoms: C_12  and  O_13 
REMARK    6  A    between atoms: O_13  and  C_14 
REMARK    7  A    between atoms: C_25  and  C_26 
REMARK    8  A    between atoms: C_26  and  O_27 
ROOT
HETATM    1  N   UNL     1       2.593   9.510 -25.450  1.00  0.00    -0.351 N 
HETATM    2  C   UNL     1       1.309   9.025 -25.500  1.00  0.00     0.251 C 
HETATM    3  O   UNL     1       0.483   9.246 -24.620  1.00  0.00    -0.268 OA
HETATM    4  H   UNL     1       3.316   9.214 -26.094  1.00  0.00     0.163 HD
ENDROOT
BRANCH   2   5
HETATM    5  C   UNL     1       0.956   8.162 -26.661  1.00  0.00     0.032 A 
HETATM    6  C   UNL     1       0.300   6.951 -26.405  1.00  0.00     0.017 A 
HETATM    7  C   UNL     1      -0.035   6.092 -27.453  1.00  0.00     0.010 A 
HETATM    8  C   UNL     1       0.280   6.430 -28.776  1.00  0.00    -0.034 A 
HETATM    9  C   UNL     1       0.899   7.662 -29.033  1.00  0.00     0.010 A 
HETATM   10  C   UNL     1       1.238   8.523 -27.983  1.00  0.00     0.017 A 
BRANCH   8  11
HETATM   11  C   UNL     1      -0.069   5.487 -29.903  1.00  0.00     0.214 C 
BRANCH  11  12
HETATM   12  O   UNL     1      -1.313   5.890 -30.468  1.00  0.00    -0.347 OA
BRANCH  12  13
HETATM   13  C   UNL     1      -1.480   5.677 -31.809  1.00  0.00     0.069 A 
HETATM   14  C   UNL     1      -2.045   4.545 -32.400  1.00  0.00     0.037 A 
HETATM   15  C   UNL     1      -2.157   4.460 -33.792  1.00  0.00     0.003 A 
HETATM   16  C   UNL     1      -1.704   5.502 -34.598  1.00  0.00     0.000 A 
HETATM   17  C   UNL     1      -1.137   6.632 -34.015  1.00  0.00     0.003 A 
HETATM   18  C   UNL     1      -1.027   6.717 -32.625  1.00  0.00     0.037 A 
ENDBRANCH  12  13
ENDBRANCH  11  12
ENDBRANCH   8  11
ENDBRANCH   2   5
BRANCH   1  19
HETATM   19  C   UNL     1       3.056  10.256 -24.299  1.00  0.00     0.182 C 
BRANCH  19  20
HETATM   20  C   UNL     1       3.912   9.420 -23.372  1.00  0.00     0.052 A 
HETATM   21  N   UNL     1       5.237   9.285 -23.659  1.00  0.00    -0.256 NA
HETATM   22  C   UNL     1       6.002   8.529 -22.826  1.00  0.00     0.040 A 
HETATM   23  C   UNL     1       7.452   8.434 -23.206  1.00  0.00     0.071 C 
HETATM   24  C   UNL     1       5.487   7.877 -21.696  1.00  0.00    -0.006 A 
HETATM   25  C   UNL     1       4.120   8.041 -21.433  1.00  0.00     0.014 A 
HETATM   26  C   UNL     1       3.325   8.813 -22.272  1.00  0.00     0.029 A 
BRANCH  24  27
HETATM   27  C   UNL     1       6.351   7.066 -20.758  1.00  0.00     0.149 C 
HETATM   28  C   UNL     1       6.811   7.898 -19.565  1.00  0.00     0.044 C 
BRANCH  27  29
HETATM   29  O   UNL     1       5.616   5.939 -20.276  1.00  0.00    -0.391 OA
HETATM   30  H   UNL     1       4.947   6.273 -19.655  1.00  0.00     0.210 HD
ENDBRANCH  27  29
ENDBRANCH  24  27
ENDBRANCH  19  20
ENDBRANCH   1  19
TORSDOF 8
ENDMDL
MODEL 7
REMARK VINA RESULT:      -8.0      7.448     13.764
REMARK  8 active torsions:
REMARK  status: ('A' for Active; 'I' for Inactive)
REMARK    1  A    between atoms: C_4  and  C_5 
REMARK    2  A    between atoms: C_5  and  N_6 
REMARK       I    between atoms: N_6  and  C_7 
REMARK    3  A    between atoms: C_7  and  C_8 
REMARK    4  A    between atoms: C_11  and  C_12 
REMARK    5  A    between atoms: C_12  and  O_13 
REMARK    6  A    between atoms: O_13  and  C_14 
REMARK    7  A    between atoms: C_25  and  C_26 
REMARK    8  A    between atoms: C_26  and  O_27 
ROOT
HETATM    1  N   UNL     1       2.919   8.146 -24.181  1.00  0.00    -0.351 N 
HETATM    2  C   UNL     1       2.336   8.972 -25.111  1.00  0.00     0.251 C 
HETATM    3  O   UNL     1       2.340  10.194 -25.006  1.00  0.00    -0.268 OA
HETATM    4  H   UNL     1       2.794   7.141 -24.186  1.00  0.00     0.163 HD
ENDROOT
BRANCH   2   5
HETATM    5  C   UNL     1       1.639   8.320 -26.255  1.00  0.00     0.032 A 
HETATM    6  C   UNL     1       0.808   7.227 -25.981  1.00  0.00     0.017 A 
HETATM    7  C   UNL     1       0.148   6.563 -27.017  1.00  0.00     0.010 A 
HETATM    8  C   UNL     1       0.309   6.980 -28.344  1.00  0.00    -0.034 A 
HETATM    9  C   UNL     1       1.109   8.101 -28.611  1.00  0.00     0.010 A 
HETATM   10  C   UNL     1       1.774   8.767 -27.574  1.00  0.00     0.017 A 
BRANCH   8  11
HETATM   11  C   UNL     1      -0.393   6.245 -29.461  1.00  0.00     0.214 C 
BRANCH  11  12
HETATM   12  O   UNL     1       0.220   6.600 -30.697  1.00  0.00    -0.347 OA
BRANCH  12  13
HETATM   13  C   UNL     1      -0.557   6.506 -31.820  1.00  0.00     0.069 A 
HETATM   14  C   UNL     1      -1.067   7.574 -32.562  1.00  0.00     0.037 A 
HETATM   15  C   UNL     1      -1.848   7.333 -33.697  1.00  0.00     0.003 A 
HETATM   16  C   UNL     1      -2.124   6.026 -34.094  1.00  0.00     0.000 A 
HETATM   17  C   UNL     1      -1.622   4.957 -33.357  1.00  0.00     0.003 A 
HETATM   18  C   UNL     1      -0.840   5.199 -32.225  1.00  0.00     0.037 A 
ENDBRANCH  12  13
ENDBRANCH  11  12
ENDBRANCH   8  11
ENDBRANCH   2   5
BRANCH   1  19
HETATM   19  C   UNL     1       3.511   8.691 -22.978  1.00  0.00     0.182 C 
BRANCH  19  20
HETATM   20  C   UNL     1       4.930   8.211 -22.761  1.00  0.00     0.052 A 
HETATM   21  N   UNL     1       5.938   8.851 -23.415  1.00  0.00    -0.256 NA
HETATM   22  C   UNL     1       7.212   8.413 -23.221  1.00  0.00     0.040 A 
HETATM   23  C   UNL     1       8.267   9.174 -23.971  1.00  0.00     0.071 C 
HETATM   24  C   UNL     1       7.529   7.329 -22.389  1.00  0.00    -0.006 A 
HETATM   25  C   UNL     1       6.465   6.697 -21.732  1.00  0.00     0.014 A 
HETATM   26  C   UNL     1       5.158   7.134 -21.916  1.00  0.00     0.029 A 
BRANCH  24  27
HETATM   27  C   UNL     1       8.949   6.871 -22.153  1.00  0.00     0.149 C 
HETATM   28  C   UNL     1       9.123   6.293 -20.752  1.00  0.00     0.044 C 
BRANCH  27  29
HETATM   29  O   UNL     1       9.300   5.869 -23.111  1.00  0.00    -0.391 OA
HETATM   30  H   UNL     1       8.767   5.080 -22.913  1.00  0.00     0.210 HD
ENDBRANCH  27  29
ENDBRANCH  24  27
ENDBRANCH  19  20
ENDBRANCH   1  19
TORSDOF 8
ENDMDL
MODEL 8
REMARK VINA RESULT:      -7.8      3.123      4.586
REMARK  8 active torsions:
REMARK  status: ('A' for Active; 'I' for Inactive)
REMARK    1  A    between atoms: C_4  and  C_5 
REMARK    2  A    between atoms: C_5  and  N_6 
REMARK       I    between atoms: N_6  and  C_7 
REMARK    3  A    between atoms: C_7  and  C_8 
REMARK    4  A    between atoms: C_11  and  C_12 
REMARK    5  A    between atoms: C_12  and  O_13 
REMARK    6  A    between atoms: O_13  and  C_14 
REMARK    7  A    between atoms: C_25  and  C_26 
REMARK    8  A    between atoms: C_26  and  O_27 
ROOT
HETATM    1  N   UNL     1      -6.121   1.706 -32.352  1.00  0.00    -0.351 N 
HETATM    2  C   UNL     1      -5.503   2.729 -31.675  1.00  0.00     0.251 C 
HETATM    3  O   UNL     1      -5.743   2.986 -30.500  1.00  0.00    -0.268 OA
HETATM    4  H   UNL     1      -6.036   1.581 -33.354  1.00  0.00     0.163 HD
ENDROOT
BRANCH   2   5
HETATM    5  C   UNL     1      -4.543   3.568 -32.446  1.00  0.00     0.032 A 
HETATM    6  C   UNL     1      -3.174   3.362 -32.236  1.00  0.00     0.017 A 
HETATM    7  C   UNL     1      -2.230   4.135 -32.913  1.00  0.00     0.010 A 
HETATM    8  C   UNL     1      -2.639   5.128 -33.813  1.00  0.00    -0.034 A 
HETATM    9  C   UNL     1      -4.010   5.304 -34.053  1.00  0.00     0.010 A 
HETATM   10  C   UNL     1      -4.958   4.531 -33.372  1.00  0.00     0.017 A 
BRANCH   8  11
HETATM   11  C   UNL     1      -1.612   5.973 -34.529  1.00  0.00     0.214 C 
BRANCH  11  12
HETATM   12  O   UNL     1      -1.637   7.286 -33.977  1.00  0.00    -0.347 OA
BRANCH  12  13
HETATM   13  C   UNL     1      -1.311   7.406 -32.654  1.00  0.00     0.069 A 
HETATM   14  C   UNL     1      -0.195   6.850 -32.026  1.00  0.00     0.037 A 
HETATM   15  C   UNL     1       0.019   7.056 -30.659  1.00  0.00     0.003 A 
HETATM   16  C   UNL     1      -0.880   7.816 -29.915  1.00  0.00     0.000 A 
HETATM   17  C   UNL     1      -1.997   8.371 -30.534  1.00  0.00     0.003 A 
HETATM   18  C   UNL     1      -2.209   8.166 -31.899  1.00  0.00     0.037 A 
ENDBRANCH  12  13
ENDBRANCH  11  12
ENDBRANCH   8  11
ENDBRANCH   2   5
BRANCH   1  19
HETATM   19  C   UNL     1      -7.154   0.918 -31.715  1.00  0.00     0.182 C 
BRANCH  19  20
HETATM   20  C   UNL     1      -8.537   1.241 -32.240  1.00  0.00     0.052 A 
HETATM   21  N   UNL     1      -9.007   2.510 -32.092  1.00  0.00    -0.256 NA
HETATM   22  C   UNL     1     -10.252   2.795 -32.560  1.00  0.00     0.040 A 
HETATM   23  C   UNL     1     -10.696   4.216 -32.366  1.00  0.00     0.071 C 
HETATM   24  C   UNL     1     -11.073   1.839 -33.176  1.00  0.00    -0.006 A 
HETATM   25  C   UNL     1     -10.555   0.544 -33.312  1.00  0.00     0.014 A 
HETATM   26  C   UNL     1      -9.283   0.238 -32.842  1.00  0.00     0.029 A 
BRANCH  24  27
HETATM   27  C   UNL     1     -12.442   2.172 -33.724  1.00  0.00     0.149 C 
HETATM   28  C   UNL     1     -12.744   1.379 -34.991  1.00  0.00     0.044 C 
BRANCH  27  29
HETATM   29  O   UNL     1     -13.441   1.873 -32.745  1.00  0.00    -0.391 OA
HETATM   30  H   UNL     1     -13.090   2.148 -31.881  1.00  0.00     0.210 HD
ENDBRANCH  27  29
ENDBRANCH  24  27
ENDBRANCH  19  20
ENDBRANCH   1  19
TORSDOF 8
ENDMDL
MODEL 9
REMARK VINA RESULT:      -7.8      3.291     10.168
REMARK  8 active torsions:
REMARK  status: ('A' for Active; 'I' for Inactive)
REMARK    1  A    between atoms: C_4  and  C_5 
REMARK    2  A    between atoms: C_5  and  N_6 
REMARK       I    between atoms: N_6  and  C_7 
REMARK    3  A    between atoms: C_7  and  C_8 
REMARK    4  A    between atoms: C_11  and  C_12 
REMARK    5  A    between atoms: C_12  and  O_13 
REMARK    6  A    between atoms: O_13  and  C_14 
REMARK    7  A    between atoms: C_25  and  C_26 
REMARK    8  A    between atoms: C_26  and  O_27 
ROOT
HETATM    1  N   UNL     1      -2.256   5.895 -31.454  1.00  0.00    -0.351 N 
HETATM    2  C   UNL     1      -3.582   5.561 -31.591  1.00  0.00     0.251 C 
HETATM    3  O   UNL     1      -4.453   6.390 -31.831  1.00  0.00    -0.268 OA
HETATM    4  H   UNL     1      -1.559   5.243 -31.115  1.00  0.00     0.163 HD
ENDROOT
BRANCH   2   5
HETATM    5  C   UNL     1      -3.944   4.130 -31.388  1.00  0.00     0.032 A 
HETATM    6  C   UNL     1      -3.183   3.159 -32.051  1.00  0.00     0.017 A 
HETATM    7  C   UNL     1      -3.491   1.804 -31.916  1.00  0.00     0.010 A 
HETATM    8  C   UNL     1      -4.566   1.397 -31.115  1.00  0.00    -0.034 A 
HETATM    9  C   UNL     1      -5.300   2.369 -30.419  1.00  0.00     0.010 A 
HETATM   10  C   UNL     1      -4.994   3.728 -30.556  1.00  0.00     0.017 A 
BRANCH   8  11
HETATM   11  C   UNL     1      -4.905  -0.069 -30.988  1.00  0.00     0.214 C 
BRANCH  11  12
HETATM   12  O   UNL     1      -6.295  -0.240 -31.249  1.00  0.00    -0.347 OA
BRANCH  12  13
HETATM   13  C   UNL     1      -6.674  -0.297 -32.562  1.00  0.00     0.069 A 
HETATM   14  C   UNL     1      -6.128  -1.127 -33.544  1.00  0.00     0.037 A 
HETATM   15  C   UNL     1      -6.615  -1.083 -34.854  1.00  0.00     0.003 A 
HETATM   16  C   UNL     1      -7.648  -0.210 -35.190  1.00  0.00     0.000 A 
HETATM   17  C   UNL     1      -8.194   0.623 -34.217  1.00  0.00     0.003 A 
HETATM   18  C   UNL     1      -7.708   0.577 -32.909  1.00  0.00     0.037 A 
ENDBRANCH  12  13
ENDBRANCH  11  12
ENDBRANCH   8  11
ENDBRANCH   2   5
BRANCH   1  19
HETATM   19  C   UNL     1      -1.834   7.278 -31.515  1.00  0.00     0.182 C 
BRANCH  19  20
HETATM   20  C   UNL     1      -1.119   7.723 -30.257  1.00  0.00     0.052 A 
HETATM   21  N   UNL     1      -1.671   8.722 -29.516  1.00  0.00    -0.256 NA
HETATM   22  C   UNL     1      -1.022   9.123 -28.390  1.00  0.00     0.040 A 
HETATM   23  C   UNL     1      -1.698  10.225 -27.624  1.00  0.00     0.071 C 
HETATM   24  C   UNL     1       0.191   8.562 -27.966  1.00  0.00    -0.006 A 
HETATM   25  C   UNL     1       0.728   7.534 -28.754  1.00  0.00     0.014 A 
HETATM   26  C   UNL     1       0.076   7.111 -29.906  1.00  0.00     0.029 A 
BRANCH  24  27
HETATM   27  C   UNL     1       0.889   8.990 -26.695  1.00  0.00     0.149 C 
HETATM   28  C   UNL     1       1.835   7.908 -26.188  1.00  0.00     0.044 C 
BRANCH  27  29
HETATM   29  O   UNL     1       1.638  10.183 -26.933  1.00  0.00    -0.391 OA
HETATM   30  H   UNL     1       2.041  10.101 -27.815  1.00  0.00     0.210 HD
ENDBRANCH  27  29
ENDBRANCH  24  27
ENDBRANCH  19  20
ENDBRANCH   1  19
TORSDOF 8
ENDMDL
MODEL 10
REMARK VINA RESULT:      -7.6      7.247     11.013
REMARK  8 active torsions:
REMARK  status: ('A' for Active; 'I' for Inactive)
REMARK    1  A    between atoms: C_4  and  C_5 
REMARK    2  A    between atoms: C_5  and  N_6 
REMARK       I    between atoms: N_6  and  C_7 
REMARK    3  A    between atoms: C_7  and  C_8 
REMARK    4  A    between atoms: C_11  and  C_12 
REMARK    5  A    between atoms: C_12  and  O_13 
REMARK    6  A    between atoms: O_13  and  C_14 
REMARK    7  A    between atoms: C_25  and  C_26 
REMARK    8  A    between atoms: C_26  and  O_27 
ROOT
HETATM    1  N   UNL     1     -13.899   1.560 -32.805  1.00  0.00    -0.351 N 
HETATM    2  C   UNL     1     -13.169   1.367 -33.952  1.00  0.00     0.251 C 
HETATM    3  O   UNL     1     -13.691   1.204 -35.050  1.00  0.00    -0.268 OA
HETATM    4  H   UNL     1     -13.481   1.551 -31.882  1.00  0.00     0.163 HD
ENDROOT
BRANCH   2   5
HETATM    5  C   UNL     1     -11.687   1.316 -33.812  1.00  0.00     0.032 A 
HETATM    6  C   UNL     1     -11.127   0.215 -33.152  1.00  0.00     0.017 A 
HETATM    7  C   UNL     1      -9.746   0.125 -32.972  1.00  0.00     0.010 A 
HETATM    8  C   UNL     1      -8.900   1.135 -33.448  1.00  0.00    -0.034 A 
HETATM    9  C   UNL     1      -9.460   2.217 -34.145  1.00  0.00     0.010 A 
HETATM   10  C   UNL     1     -10.845   2.309 -34.325  1.00  0.00     0.017 A 
BRANCH   8  11
HETATM   11  C   UNL     1      -7.408   1.040 -33.233  1.00  0.00     0.214 C 
BRANCH  11  12
HETATM   12  O   UNL     1      -7.120  -0.184 -32.564  1.00  0.00    -0.347 OA
BRANCH  12  13
HETATM   13  C   UNL     1      -6.414  -1.120 -33.269  1.00  0.00     0.069 A 
HETATM   14  C   UNL     1      -6.934  -2.001 -34.221  1.00  0.00     0.037 A 
HETATM   15  C   UNL     1      -6.092  -2.910 -34.871  1.00  0.00     0.003 A 
HETATM   16  C   UNL     1      -4.732  -2.945 -34.573  1.00  0.00     0.000 A 
HETATM   17  C   UNL     1      -4.208  -2.072 -33.623  1.00  0.00     0.003 A 
HETATM   18  C   UNL     1      -5.049  -1.163 -32.975  1.00  0.00     0.037 A 
ENDBRANCH  12  13
ENDBRANCH  11  12
ENDBRANCH   8  11
ENDBRANCH   2   5
BRANCH   1  19
HETATM   19  C   UNL     1     -15.344   1.503 -32.832  1.00  0.00     0.182 C 
BRANCH  19  20
HETATM   20  C   UNL     1     -15.985   2.769 -32.303  1.00  0.00     0.052 A 
HETATM   21  N   UNL     1     -15.182   3.830 -32.014  1.00  0.00    -0.256 NA
HETATM   22  C   UNL     1     -15.761   4.964 -31.533  1.00  0.00     0.040 A 
HETATM   23  C   UNL     1     -14.811   6.091 -31.246  1.00  0.00     0.071 C 
HETATM   24  C   UNL     1     -17.141   5.083 -31.314  1.00  0.00    -0.006 A 
HETATM   25  C   UNL     1     -17.935   3.970 -31.625  1.00  0.00     0.014 A 
HETATM   26  C   UNL     1     -17.360   2.806 -32.120  1.00  0.00     0.029 A 
BRANCH  24  27
HETATM   27  C   UNL     1     -17.780   6.357 -30.812  1.00  0.00     0.149 C 
HETATM   28  C   UNL     1     -18.590   7.043 -31.907  1.00  0.00     0.044 C 
BRANCH  27  29
HETATM   29  O   UNL     1     -18.646   6.064 -29.714  1.00  0.00    -0.391 OA
HETATM   30  H   UNL     1     -18.249   6.460 -28.919  1.00  0.00     0.210 HD
ENDBRANCH  27  29
ENDBRANCH  24  27
ENDBRANCH  19  20
ENDBRANCH   1  19
TORSDOF 8
ENDMDL
