MODEL 1
REMARK VINA RESULT:      -9.8      0.000      0.000
REMARK  9 active torsions:
REMARK  status: ('A' for Active; 'I' for Inactive)
REMARK    1  A    between atoms: C_2  and  C_3 
REMARK    2  A    between atoms: C_8  and  O_9 
REMARK    3  A    between atoms: C_10  and  C_11 
REMARK    4  A    between atoms: C_11  and  N_12 
REMARK       I    between atoms: N_12  and  C_13 
REMARK    5  A    between atoms: N_12  and  C_23 
REMARK       I    between atoms: C_13  and  N_14 
REMARK    6  A    between atoms: N_14  and  C_15 
REMARK    7  A    between atoms: C_23  and  C_24 
REMARK    8  A    between atoms: C_24  and  C_25 
REMARK    9  A    between atoms: C_25  and  N_26 
ROOT
HETATM    1  N   UNL     1      -6.782   2.290 -33.071  1.00  0.00    -0.330 N 
HETATM    2  C   UNL     1      -6.159   1.068 -32.855  1.00  0.00     0.323 C 
HETATM    3  N   UNL     1      -6.133   0.250 -33.956  1.00  0.00    -0.309 N 
HETATM    4  O   UNL     1      -5.875   0.697 -31.718  1.00  0.00    -0.247 OA
HETATM    5  H   UNL     1      -6.473   0.640 -34.827  1.00  0.00     0.170 HD
ENDROOT
BRANCH   1   6
HETATM    6  C   UNL     1      -6.469   3.361 -32.103  1.00  0.00     0.170 C 
BRANCH   6   7
HETATM    7  C   UNL     1      -5.278   4.206 -32.451  1.00  0.00     0.013 A 
HETATM    8  C   UNL     1      -5.338   5.124 -33.484  1.00  0.00     0.170 A 
HETATM    9  N   UNL     1      -4.345   5.929 -33.885  1.00  0.00    -0.224 NA
HETATM   10  C   UNL     1      -3.178   5.840 -33.225  1.00  0.00     0.070 A 
HETATM   11  C   UNL     1      -2.976   4.925 -32.168  1.00  0.00    -0.006 A 
HETATM   12  C   UNL     1      -2.127   6.668 -33.587  1.00  0.00     0.033 A 
HETATM   13  C   UNL     1      -1.735   4.870 -31.509  1.00  0.00     0.021 A 
HETATM   14  C   UNL     1      -4.047   4.094 -31.802  1.00  0.00     0.027 A 
HETATM   15  C   UNL     1      -0.690   5.727 -31.877  1.00  0.00    -0.058 A 
HETATM   16  C   UNL     1      -0.894   6.622 -32.929  1.00  0.00     0.009 A 
BRANCH   8  17
HETATM   17  O   UNL     1      -6.469   5.290 -34.217  1.00  0.00    -0.344 OA
HETATM   18  H   UNL     1      -6.134   5.931 -34.873  1.00  0.00     0.219 HD
ENDBRANCH   8  17
BRANCH  15  19
HETATM   19  C   UNL     1       0.640   5.670 -31.170  1.00  0.00     0.034 C 
HETATM   20  C   UNL     1       0.526   5.028 -29.796  1.00  0.00     0.010 C 
ENDBRANCH  15  19
ENDBRANCH   6   7
ENDBRANCH   1   6
BRANCH   1  21
HETATM   21  C   UNL     1      -8.174   2.262 -33.531  1.00  0.00     0.129 C 
BRANCH  21  22
HETATM   22  C   UNL     1      -9.167   1.598 -32.554  1.00  0.00     0.048 C 
BRANCH  22  23
HETATM   23  C   UNL     1     -10.152   0.587 -33.154  1.00  0.00     0.236 C 
BRANCH  23  24
HETATM   24  N   UNL     1     -11.537   1.101 -33.442  1.00  0.00    -0.067 N 
HETATM   25  H   UNL     1     -11.866   1.713 -32.681  1.00  0.00     0.280 HD
HETATM   26  C   UNL     1     -11.666   1.972 -34.691  1.00  0.00     0.261 C 
HETATM   27  C   UNL     1     -13.130   2.393 -34.885  1.00  0.00     0.195 C 
HETATM   28  O   UNL     1     -13.983   1.245 -34.979  1.00  0.00    -0.388 OA
HETATM   29  C   UNL     1     -13.949   0.478 -33.772  1.00  0.00     0.195 C 
HETATM   30  C   UNL     1     -12.538  -0.054 -33.510  1.00  0.00     0.261 C 
ENDBRANCH  23  24
ENDBRANCH  22  23
ENDBRANCH  21  22
ENDBRANCH   1  21
BRANCH   3  31
HETATM   31  C   UNL     1      -5.572  -1.043 -34.017  1.00  0.00     0.037 A 
HETATM   32  C   UNL     1      -6.289  -2.032 -34.698  1.00  0.00     0.053 A 
HETATM   33  C   UNL     1      -5.791  -3.335 -34.761  1.00  0.00     0.036 A 
HETATM   34 CL   UNL     1      -6.716  -4.559 -35.539  1.00  0.00    -0.084 Cl
HETATM   35  C   UNL     1      -4.565  -3.659 -34.185  1.00  0.00     0.024 A 
HETATM   36  C   UNL     1      -3.832  -2.669 -33.534  1.00  0.00     0.004 A 
HETATM   37  C   UNL     1      -4.339  -1.370 -33.443  1.00  0.00     0.029 A 
ENDBRANCH   3  31
TORSDOF 9
ENDMDL
MODEL 2
REMARK VINA RESULT:      -9.7      3.184      7.246
REMARK  9 active torsions:
REMARK  status: ('A' for Active; 'I' for Inactive)
REMARK    1  A    between atoms: C_2  and  C_3 
REMARK    2  A    between atoms: C_8  and  O_9 
REMARK    3  A    between atoms: C_10  and  C_11 
REMARK    4  A    between atoms: C_11  and  N_12 
REMARK       I    between atoms: N_12  and  C_13 
REMARK    5  A    between atoms: N_12  and  C_23 
REMARK       I    between atoms: C_13  and  N_14 
REMARK    6  A    between atoms: N_14  and  C_15 
REMARK    7  A    between atoms: C_23  and  C_24 
REMARK    8  A    between atoms: C_24  and  C_25 
REMARK    9  A    between atoms: C_25  and  N_26 
ROOT
HETATM    1  N   UNL     1      -5.626   3.047 -32.338  1.00  0.00    -0.330 N 
HETATM    2  C   UNL     1      -4.688   4.051 -32.533  1.00  0.00     0.323 C 
HETATM    3  N   UNL     1      -3.725   4.116 -31.557  1.00  0.00    -0.309 N 
HETATM    4  O   UNL     1      -4.863   4.923 -33.381  1.00  0.00    -0.247 OA
HETATM    5  H   UNL     1      -3.730   3.383 -30.858  1.00  0.00     0.170 HD
ENDROOT
BRANCH   1   6
HETATM    6  C   UNL     1      -6.403   2.642 -33.528  1.00  0.00     0.170 C 
BRANCH   6   7
HETATM    7  C   UNL     1      -6.310   1.185 -33.882  1.00  0.00     0.013 A 
HETATM    8  C   UNL     1      -7.200   0.615 -34.775  1.00  0.00     0.170 A 
HETATM    9  N   UNL     1      -7.217  -0.665 -35.167  1.00  0.00    -0.224 NA
HETATM   10  C   UNL     1      -6.282  -1.478 -34.645  1.00  0.00     0.070 A 
HETATM   11  C   UNL     1      -5.330  -1.029 -33.703  1.00  0.00    -0.006 A 
HETATM   12  C   UNL     1      -6.242  -2.808 -35.036  1.00  0.00     0.033 A 
HETATM   13  C   UNL     1      -4.373  -1.920 -33.187  1.00  0.00     0.021 A 
HETATM   14  C   UNL     1      -5.372   0.321 -33.316  1.00  0.00     0.027 A 
HETATM   15  C   UNL     1      -4.337  -3.255 -33.606  1.00  0.00    -0.058 A 
HETATM   16  C   UNL     1      -5.287  -3.694 -34.531  1.00  0.00     0.009 A 
BRANCH   8  17
HETATM   17  O   UNL     1      -8.185   1.349 -35.356  1.00  0.00    -0.344 OA
HETATM   18  H   UNL     1      -8.638   1.662 -34.549  1.00  0.00     0.219 HD
ENDBRANCH   8  17
BRANCH  15  19
HETATM   19  C   UNL     1      -3.310  -4.211 -33.054  1.00  0.00     0.034 C 
HETATM   20  C   UNL     1      -2.801  -3.772 -31.690  1.00  0.00     0.010 C 
ENDBRANCH  15  19
ENDBRANCH   6   7
ENDBRANCH   1   6
BRANCH   1  21
HETATM   21  C   UNL     1      -6.386   3.072 -31.085  1.00  0.00     0.129 C 
BRANCH  21  22
HETATM   22  C   UNL     1      -7.808   3.659 -31.200  1.00  0.00     0.048 C 
BRANCH  22  23
HETATM   23  C   UNL     1      -8.932   2.885 -30.499  1.00  0.00     0.236 C 
BRANCH  23  24
HETATM   24  N   UNL     1      -9.852   2.099 -31.394  1.00  0.00    -0.067 N 
HETATM   25  H   UNL     1     -10.732   1.871 -30.906  1.00  0.00     0.280 HD
HETATM   26  C   UNL     1     -10.313   2.821 -32.659  1.00  0.00     0.261 C 
HETATM   27  C   UNL     1     -11.210   1.894 -33.493  1.00  0.00     0.195 C 
HETATM   28  O   UNL     1     -10.521   0.682 -33.826  1.00  0.00    -0.388 OA
HETATM   29  C   UNL     1     -10.175  -0.054 -32.649  1.00  0.00     0.195 C 
HETATM   30  C   UNL     1      -9.223   0.754 -31.766  1.00  0.00     0.261 C 
ENDBRANCH  23  24
ENDBRANCH  22  23
ENDBRANCH  21  22
ENDBRANCH   1  21
BRANCH   3  31
HETATM   31  C   UNL     1      -2.660   5.039 -31.501  1.00  0.00     0.037 A 
HETATM   32  C   UNL     1      -2.817   6.166 -30.689  1.00  0.00     0.053 A 
HETATM   33  C   UNL     1      -1.804   7.125 -30.623  1.00  0.00     0.036 A 
HETATM   34 CL   UNL     1      -2.040   8.543 -29.678  1.00  0.00    -0.084 Cl
HETATM   35  C   UNL     1      -0.615   6.955 -31.327  1.00  0.00     0.024 A 
HETATM   36  C   UNL     1      -0.440   5.817 -32.111  1.00  0.00     0.004 A 
HETATM   37  C   UNL     1      -1.462   4.868 -32.204  1.00  0.00     0.029 A 
ENDBRANCH   3  31
TORSDOF 9
ENDMDL
MODEL 3
REMARK VINA RESULT:      -9.5      2.736      8.557
REMARK  9 active torsions:
REMARK  status: ('A' for Active; 'I' for Inactive)
REMARK    1  A    between atoms: C_2  and  C_3 
REMARK    2  A    between atoms: C_8  and  O_9 
REMARK    3  A    between atoms: C_10  and  C_11 
REMARK    4  A    between atoms: C_11  and  N_12 
REMARK       I    between atoms: N_12  and  C_13 
REMARK    5  A    between atoms: N_12  and  C_23 
REMARK       I    between atoms: C_13  and  N_14 
REMARK    6  A    between atoms: N_14  and  C_15 
REMARK    7  A    between atoms: C_23  and  C_24 
REMARK    8  A    between atoms: C_24  and  C_25 
REMARK    9  A    between atoms: C_25  and  N_26 
ROOT
HETATM    1  N   UNL     1      -6.038   2.585 -33.534  1.00  0.00    -0.330 N 
HETATM    2  C   UNL     1      -7.326   2.277 -33.119  1.00  0.00     0.323 C 
HETATM    3  N   UNL     1      -8.231   2.152 -34.143  1.00  0.00    -0.309 N 
HETATM    4  O   UNL     1      -7.639   2.343 -31.932  1.00  0.00    -0.247 OA
HETATM    5  H   UNL     1      -7.865   2.196 -35.086  1.00  0.00     0.170 HD
ENDROOT
BRANCH   1   6
HETATM    6  C   UNL     1      -4.957   2.306 -32.566  1.00  0.00     0.170 C 
BRANCH   6   7
HETATM    7  C   UNL     1      -4.486   0.881 -32.531  1.00  0.00     0.013 A 
HETATM    8  C   UNL     1      -3.448   0.497 -31.700  1.00  0.00     0.170 A 
HETATM    9  N   UNL     1      -2.944  -0.738 -31.582  1.00  0.00    -0.224 NA
HETATM   10  C   UNL     1      -3.494  -1.700 -32.342  1.00  0.00     0.070 A 
HETATM   11  C   UNL     1      -4.543  -1.437 -33.251  1.00  0.00    -0.006 A 
HETATM   12  C   UNL     1      -3.023  -3.000 -32.240  1.00  0.00     0.033 A 
HETATM   13  C   UNL     1      -5.085  -2.479 -34.024  1.00  0.00     0.021 A 
HETATM   14  C   UNL     1      -5.020  -0.120 -33.345  1.00  0.00     0.027 A 
HETATM   15  C   UNL     1      -4.607  -3.790 -33.896  1.00  0.00    -0.058 A 
HETATM   16  C   UNL     1      -3.564  -4.040 -33.001  1.00  0.00     0.009 A 
BRANCH   8  17
HETATM   17  O   UNL     1      -2.821   1.394 -30.894  1.00  0.00    -0.344 OA
HETATM   18  H   UNL     1      -3.383   2.173 -31.067  1.00  0.00     0.219 HD
ENDBRANCH   8  17
BRANCH  15  19
HETATM   19  C   UNL     1      -5.189  -4.908 -34.723  1.00  0.00     0.034 C 
HETATM   20  C   UNL     1      -6.534  -4.530 -35.324  1.00  0.00     0.010 C 
ENDBRANCH  15  19
ENDBRANCH   6   7
ENDBRANCH   1   6
BRANCH   1  21
HETATM   21  C   UNL     1      -5.860   3.808 -34.322  1.00  0.00     0.129 C 
BRANCH  21  22
HETATM   22  C   UNL     1      -4.799   4.785 -33.772  1.00  0.00     0.048 C 
BRANCH  22  23
HETATM   23  C   UNL     1      -3.669   5.185 -34.729  1.00  0.00     0.236 C 
BRANCH  23  24
HETATM   24  N   UNL     1      -2.367   5.583 -34.087  1.00  0.00    -0.067 N 
HETATM   25  H   UNL     1      -1.577   5.425 -34.731  1.00  0.00     0.280 HD
HETATM   26  C   UNL     1      -2.244   7.060 -33.716  1.00  0.00     0.261 C 
HETATM   27  C   UNL     1      -0.890   7.317 -33.039  1.00  0.00     0.195 C 
HETATM   28  O   UNL     1      -0.734   6.490 -31.879  1.00  0.00    -0.388 OA
HETATM   29  C   UNL     1      -0.744   5.104 -32.230  1.00  0.00     0.195 C 
HETATM   30  C   UNL     1      -2.083   4.715 -32.859  1.00  0.00     0.261 C 
ENDBRANCH  23  24
ENDBRANCH  22  23
ENDBRANCH  21  22
ENDBRANCH   1  21
BRANCH   3  31
HETATM   31  C   UNL     1      -9.602   1.853 -34.007  1.00  0.00     0.037 A 
HETATM   32  C   UNL     1     -10.523   2.823 -34.416  1.00  0.00     0.053 A 
HETATM   33  C   UNL     1     -11.892   2.587 -34.274  1.00  0.00     0.036 A 
HETATM   34 CL   UNL     1     -13.014   3.816 -34.712  1.00  0.00    -0.084 Cl
HETATM   35  C   UNL     1     -12.359   1.378 -33.765  1.00  0.00     0.024 A 
HETATM   36  C   UNL     1     -11.446   0.396 -33.389  1.00  0.00     0.004 A 
HETATM   37  C   UNL     1     -10.074   0.637 -33.501  1.00  0.00     0.029 A 
ENDBRANCH   3  31
TORSDOF 9
ENDMDL
MODEL 4
REMARK VINA RESULT:      -9.2      2.142      8.217
REMARK  9 active torsions:
REMARK  status: ('A' for Active; 'I' for Inactive)
REMARK    1  A    between atoms: C_2  and  C_3 
REMARK    2  A    between atoms: C_8  and  O_9 
REMARK    3  A    between atoms: C_10  and  C_11 
REMARK    4  A    between atoms: C_11  and  N_12 
REMARK       I    between atoms: N_12  and  C_13 
REMARK    5  A    between atoms: N_12  and  C_23 
REMARK       I    between atoms: C_13  and  N_14 
REMARK    6  A    between atoms: N_14  and  C_15 
REMARK    7  A    between atoms: C_23  and  C_24 
REMARK    8  A    between atoms: C_24  and  C_25 
REMARK    9  A    between atoms: C_25  and  N_26 
ROOT
HETATM    1  N   UNL     1      -5.993   2.030 -32.271  1.00  0.00    -0.330 N 
HETATM    2  C   UNL     1      -6.015   1.032 -33.235  1.00  0.00     0.323 C 
HETATM    3  N   UNL     1      -5.883  -0.238 -32.732  1.00  0.00    -0.309 N 
HETATM    4  O   UNL     1      -5.931   1.307 -34.430  1.00  0.00    -0.247 OA
HETATM    5  H   UNL     1      -5.883  -0.334 -31.724  1.00  0.00     0.170 HD
ENDROOT
BRANCH   1   6
HETATM    6  C   UNL     1      -6.555   3.336 -32.672  1.00  0.00     0.170 C 
BRANCH   6   7
HETATM    7  C   UNL     1      -7.940   3.284 -33.250  1.00  0.00     0.013 A 
HETATM    8  C   UNL     1      -8.424   4.320 -34.027  1.00  0.00     0.170 A 
HETATM    9  N   UNL     1      -9.636   4.385 -34.593  1.00  0.00    -0.224 NA
HETATM   10  C   UNL     1     -10.465   3.348 -34.388  1.00  0.00     0.070 A 
HETATM   11  C   UNL     1     -10.105   2.238 -33.594  1.00  0.00    -0.006 A 
HETATM   12  C   UNL     1     -11.723   3.356 -34.972  1.00  0.00     0.033 A 
HETATM   13  C   UNL     1     -11.009   1.176 -33.410  1.00  0.00     0.021 A 
HETATM   14  C   UNL     1      -8.827   2.231 -33.011  1.00  0.00     0.027 A 
HETATM   15  C   UNL     1     -12.268   1.195 -34.021  1.00  0.00    -0.058 A 
HETATM   16  C   UNL     1     -12.622   2.300 -34.798  1.00  0.00     0.009 A 
BRANCH   8  17
HETATM   17  O   UNL     1      -7.668   5.417 -34.291  1.00  0.00    -0.344 OA
HETATM   18  H   UNL     1      -8.004   5.623 -35.184  1.00  0.00     0.219 HD
ENDBRANCH   8  17
BRANCH  15  19
HETATM   19  C   UNL     1     -13.238   0.057 -33.826  1.00  0.00     0.034 C 
HETATM   20  C   UNL     1     -14.681   0.503 -34.000  1.00  0.00     0.010 C 
ENDBRANCH  15  19
ENDBRANCH   6   7
ENDBRANCH   1   6
BRANCH   1  21
HETATM   21  C   UNL     1      -4.810   2.106 -31.410  1.00  0.00     0.129 C 
BRANCH  21  22
HETATM   22  C   UNL     1      -3.529   2.604 -32.111  1.00  0.00     0.048 C 
BRANCH  22  23
HETATM   23  C   UNL     1      -2.883   3.875 -31.544  1.00  0.00     0.236 C 
BRANCH  23  24
HETATM   24  N   UNL     1      -1.987   4.638 -32.483  1.00  0.00    -0.067 N 
HETATM   25  H   UNL     1      -1.030   4.253 -32.472  1.00  0.00     0.280 HD
HETATM   26  C   UNL     1      -2.384   4.584 -33.958  1.00  0.00     0.261 C 
HETATM   27  C   UNL     1      -1.412   5.433 -34.791  1.00  0.00     0.195 C 
HETATM   28  O   UNL     1      -1.387   6.788 -34.324  1.00  0.00    -0.388 OA
HETATM   29  C   UNL     1      -0.917   6.859 -32.975  1.00  0.00     0.195 C 
HETATM   30  C   UNL     1      -1.854   6.096 -32.036  1.00  0.00     0.261 C 
ENDBRANCH  23  24
ENDBRANCH  22  23
ENDBRANCH  21  22
ENDBRANCH   1  21
BRANCH   3  31
HETATM   31  C   UNL     1      -5.866  -1.431 -33.483  1.00  0.00     0.037 A 
HETATM   32  C   UNL     1      -4.733  -2.245 -33.385  1.00  0.00     0.053 A 
HETATM   33  C   UNL     1      -4.653  -3.422 -34.133  1.00  0.00     0.036 A 
HETATM   34 CL   UNL     1      -3.224  -4.377 -34.060  1.00  0.00    -0.084 Cl
HETATM   35  C   UNL     1      -5.708  -3.821 -34.949  1.00  0.00     0.024 A 
HETATM   36  C   UNL     1      -6.853  -3.031 -35.023  1.00  0.00     0.004 A 
HETATM   37  C   UNL     1      -6.926  -1.837 -34.300  1.00  0.00     0.029 A 
ENDBRANCH   3  31
TORSDOF 9
ENDMDL
MODEL 5
REMARK VINA RESULT:      -9.2      1.990      2.770
REMARK  9 active torsions:
REMARK  status: ('A' for Active; 'I' for Inactive)
REMARK    1  A    between atoms: C_2  and  C_3 
REMARK    2  A    between atoms: C_8  and  O_9 
REMARK    3  A    between atoms: C_10  and  C_11 
REMARK    4  A    between atoms: C_11  and  N_12 
REMARK       I    between atoms: N_12  and  C_13 
REMARK    5  A    between atoms: N_12  and  C_23 
REMARK       I    between atoms: C_13  and  N_14 
REMARK    6  A    between atoms: N_14  and  C_15 
REMARK    7  A    between atoms: C_23  and  C_24 
REMARK    8  A    between atoms: C_24  and  C_25 
REMARK    9  A    between atoms: C_25  and  N_26 
ROOT
HETATM    1  N   UNL     1      -5.913   1.434 -32.819  1.00  0.00    -0.330 N 
HETATM    2  C   UNL     1      -5.986   0.049 -32.786  1.00  0.00     0.323 C 
HETATM    3  N   UNL     1      -5.736  -0.555 -33.993  1.00  0.00    -0.309 N 
HETATM    4  O   UNL     1      -6.456  -0.535 -31.812  1.00  0.00    -0.247 OA
HETATM    5  H   UNL     1      -5.432   0.043 -34.751  1.00  0.00     0.170 HD
ENDROOT
BRANCH   1   6
HETATM    6  C   UNL     1      -5.737   2.109 -31.516  1.00  0.00     0.170 C 
BRANCH   6   7
HETATM    7  C   UNL     1      -4.607   3.097 -31.459  1.00  0.00     0.013 A 
HETATM    8  C   UNL     1      -3.292   2.670 -31.432  1.00  0.00     0.170 A 
HETATM    9  N   UNL     1      -2.207   3.454 -31.381  1.00  0.00    -0.224 NA
HETATM   10  C   UNL     1      -2.410   4.782 -31.352  1.00  0.00     0.070 A 
HETATM   11  C   UNL     1      -3.704   5.348 -31.349  1.00  0.00    -0.006 A 
HETATM   12  C   UNL     1      -1.319   5.637 -31.323  1.00  0.00     0.033 A 
HETATM   13  C   UNL     1      -3.864   6.745 -31.318  1.00  0.00     0.021 A 
HETATM   14  C   UNL     1      -4.805   4.478 -31.386  1.00  0.00     0.027 A 
HETATM   15  C   UNL     1      -2.749   7.593 -31.305  1.00  0.00    -0.058 A 
HETATM   16  C   UNL     1      -1.473   7.026 -31.299  1.00  0.00     0.009 A 
BRANCH   8  17
HETATM   17  O   UNL     1      -2.978   1.349 -31.454  1.00  0.00    -0.344 OA
HETATM   18  H   UNL     1      -2.336   1.357 -32.190  1.00  0.00     0.219 HD
ENDBRANCH   8  17
BRANCH  15  19
HETATM   19  C   UNL     1      -2.919   9.091 -31.273  1.00  0.00     0.034 C 
HETATM   20  C   UNL     1      -2.341   9.702 -30.006  1.00  0.00     0.010 C 
ENDBRANCH  15  19
ENDBRANCH   6   7
ENDBRANCH   1   6
BRANCH   1  21
HETATM   21  C   UNL     1      -6.795   2.131 -33.759  1.00  0.00     0.129 C 
BRANCH  21  22
HETATM   22  C   UNL     1      -8.303   1.987 -33.462  1.00  0.00     0.048 C 
BRANCH  22  23
HETATM   23  C   UNL     1      -9.125   1.159 -34.457  1.00  0.00     0.236 C 
BRANCH  23  24
HETATM   24  N   UNL     1     -10.551   1.596 -34.664  1.00  0.00    -0.067 N 
HETATM   25  H   UNL     1     -10.904   1.275 -35.578  1.00  0.00     0.280 HD
HETATM   26  C   UNL     1     -11.561   1.033 -33.665  1.00  0.00     0.261 C 
HETATM   27  C   UNL     1     -12.960   1.588 -33.969  1.00  0.00     0.195 C 
HETATM   28  O   UNL     1     -12.960   3.021 -33.934  1.00  0.00    -0.388 OA
HETATM   29  C   UNL     1     -12.094   3.561 -34.937  1.00  0.00     0.195 C 
HETATM   30  C   UNL     1     -10.648   3.123 -34.695  1.00  0.00     0.261 C 
ENDBRANCH  23  24
ENDBRANCH  22  23
ENDBRANCH  21  22
ENDBRANCH   1  21
BRANCH   3  31
HETATM   31  C   UNL     1      -5.750  -1.943 -34.246  1.00  0.00     0.037 A 
HETATM   32  C   UNL     1      -4.597  -2.671 -33.939  1.00  0.00     0.053 A 
HETATM   33  C   UNL     1      -4.549  -4.042 -34.199  1.00  0.00     0.036 A 
HETATM   34 CL   UNL     1      -3.099  -4.914 -33.886  1.00  0.00    -0.084 Cl
HETATM   35  C   UNL     1      -5.653  -4.707 -34.725  1.00  0.00     0.024 A 
HETATM   36  C   UNL     1      -6.816  -3.992 -35.000  1.00  0.00     0.004 A 
HETATM   37  C   UNL     1      -6.860  -2.614 -34.770  1.00  0.00     0.029 A 
ENDBRANCH   3  31
TORSDOF 9
ENDMDL
MODEL 6
REMARK VINA RESULT:      -9.1      1.734      2.127
REMARK  9 active torsions:
REMARK  status: ('A' for Active; 'I' for Inactive)
REMARK    1  A    between atoms: C_2  and  C_3 
REMARK    2  A    between atoms: C_8  and  O_9 
REMARK    3  A    between atoms: C_10  and  C_11 
REMARK    4  A    between atoms: C_11  and  N_12 
REMARK       I    between atoms: N_12  and  C_13 
REMARK    5  A    between atoms: N_12  and  C_23 
REMARK       I    between atoms: C_13  and  N_14 
REMARK    6  A    between atoms: N_14  and  C_15 
REMARK    7  A    between atoms: C_23  and  C_24 
REMARK    8  A    between atoms: C_24  and  C_25 
REMARK    9  A    between atoms: C_25  and  N_26 
ROOT
HETATM    1  N   UNL     1      -5.807   1.680 -33.409  1.00  0.00    -0.330 N 
HETATM    2  C   UNL     1      -5.358   0.518 -32.797  1.00  0.00     0.323 C 
HETATM    3  N   UNL     1      -4.846  -0.412 -33.667  1.00  0.00    -0.309 N 
HETATM    4  O   UNL     1      -5.618   0.284 -31.619  1.00  0.00    -0.247 OA
HETATM    5  H   UNL     1      -4.754  -0.132 -34.636  1.00  0.00     0.170 HD
ENDROOT
BRANCH   1   6
HETATM    6  C   UNL     1      -5.955   2.862 -32.534  1.00  0.00     0.170 C 
BRANCH   6   7
HETATM    7  C   UNL     1      -4.907   3.922 -32.715  1.00  0.00     0.013 A 
HETATM    8  C   UNL     1      -5.096   4.961 -33.609  1.00  0.00     0.170 A 
HETATM    9  N   UNL     1      -4.237   5.959 -33.855  1.00  0.00    -0.224 NA
HETATM   10  C   UNL     1      -3.080   5.955 -33.171  1.00  0.00     0.070 A 
HETATM   11  C   UNL     1      -2.752   4.939 -32.246  1.00  0.00    -0.006 A 
HETATM   12  C   UNL     1      -2.168   6.980 -33.372  1.00  0.00     0.033 A 
HETATM   13  C   UNL     1      -1.528   4.981 -31.555  1.00  0.00     0.021 A 
HETATM   14  C   UNL     1      -3.684   3.908 -32.042  1.00  0.00     0.027 A 
HETATM   15  C   UNL     1      -0.626   6.033 -31.759  1.00  0.00    -0.058 A 
HETATM   16  C   UNL     1      -0.954   7.029 -32.681  1.00  0.00     0.009 A 
BRANCH   8  17
HETATM   17  O   UNL     1      -6.228   5.054 -34.353  1.00  0.00    -0.344 OA
HETATM   18  H   UNL     1      -5.843   4.898 -35.237  1.00  0.00     0.219 HD
ENDBRANCH   8  17
BRANCH  15  19
HETATM   19  C   UNL     1       0.685   6.079 -31.018  1.00  0.00     0.034 C 
HETATM   20  C   UNL     1       0.736   5.062 -29.888  1.00  0.00     0.010 C 
ENDBRANCH  15  19
ENDBRANCH   6   7
ENDBRANCH   1   6
BRANCH   1  21
HETATM   21  C   UNL     1      -6.843   1.540 -34.436  1.00  0.00     0.129 C 
BRANCH  21  22
HETATM   22  C   UNL     1      -7.718   0.275 -34.307  1.00  0.00     0.048 C 
BRANCH  22  23
HETATM   23  C   UNL     1      -9.058   0.436 -33.578  1.00  0.00     0.236 C 
BRANCH  23  24
HETATM   24  N   UNL     1      -9.299   1.769 -32.921  1.00  0.00    -0.067 N 
HETATM   25  H   UNL     1      -8.611   2.466 -33.243  1.00  0.00     0.280 HD
HETATM   26  C   UNL     1     -10.648   2.418 -33.230  1.00  0.00     0.261 C 
HETATM   27  C   UNL     1     -10.775   3.745 -32.468  1.00  0.00     0.195 C 
HETATM   28  O   UNL     1     -10.624   3.541 -31.057  1.00  0.00    -0.388 OA
HETATM   29  C   UNL     1      -9.324   3.030 -30.747  1.00  0.00     0.195 C 
HETATM   30  C   UNL     1      -9.109   1.666 -31.406  1.00  0.00     0.261 C 
ENDBRANCH  23  24
ENDBRANCH  22  23
ENDBRANCH  21  22
ENDBRANCH   1  21
BRANCH   3  31
HETATM   31  C   UNL     1      -4.327  -1.677 -33.319  1.00  0.00     0.037 A 
HETATM   32  C   UNL     1      -4.698  -2.770 -34.108  1.00  0.00     0.053 A 
HETATM   33  C   UNL     1      -4.237  -4.049 -33.788  1.00  0.00     0.036 A 
HETATM   34 CL   UNL     1      -4.758  -5.396 -34.721  1.00  0.00    -0.084 Cl
HETATM   35  C   UNL     1      -3.375  -4.247 -32.712  1.00  0.00     0.024 A 
HETATM   36  C   UNL     1      -2.976  -3.156 -31.944  1.00  0.00     0.004 A 
HETATM   37  C   UNL     1      -3.459  -1.878 -32.242  1.00  0.00     0.029 A 
ENDBRANCH   3  31
TORSDOF 9
ENDMDL
MODEL 7
REMARK VINA RESULT:      -8.8      3.420      8.225
REMARK  9 active torsions:
REMARK  status: ('A' for Active; 'I' for Inactive)
REMARK    1  A    between atoms: C_2  and  C_3 
REMARK    2  A    between atoms: C_8  and  O_9 
REMARK    3  A    between atoms: C_10  and  C_11 
REMARK    4  A    between atoms: C_11  and  N_12 
REMARK       I    between atoms: N_12  and  C_13 
REMARK    5  A    between atoms: N_12  and  C_23 
REMARK       I    between atoms: C_13  and  N_14 
REMARK    6  A    between atoms: N_14  and  C_15 
REMARK    7  A    between atoms: C_23  and  C_24 
REMARK    8  A    between atoms: C_24  and  C_25 
REMARK    9  A    between atoms: C_25  and  N_26 
ROOT
HETATM    1  N   UNL     1      -4.321   1.653 -31.826  1.00  0.00    -0.330 N 
HETATM    2  C   UNL     1      -3.796   2.934 -31.728  1.00  0.00     0.323 C 
HETATM    3  N   UNL     1      -3.166   3.370 -32.867  1.00  0.00    -0.309 N 
HETATM    4  O   UNL     1      -3.719   3.503 -30.642  1.00  0.00    -0.247 OA
HETATM    5  H   UNL     1      -3.228   2.774 -33.683  1.00  0.00     0.170 HD
ENDROOT
BRANCH   1   6
HETATM    6  C   UNL     1      -5.360   1.298 -30.837  1.00  0.00     0.170 C 
BRANCH   6   7
HETATM    7  C   UNL     1      -6.730   1.839 -31.131  1.00  0.00     0.013 A 
HETATM    8  C   UNL     1      -7.252   2.885 -30.391  1.00  0.00     0.170 A 
HETATM    9  N   UNL     1      -8.456   3.448 -30.559  1.00  0.00    -0.224 NA
HETATM   10  C   UNL     1      -9.233   2.954 -31.537  1.00  0.00     0.070 A 
HETATM   11  C   UNL     1      -8.830   1.871 -32.349  1.00  0.00    -0.006 A 
HETATM   12  C   UNL     1     -10.478   3.519 -31.767  1.00  0.00     0.033 A 
HETATM   13  C   UNL     1      -9.681   1.391 -33.360  1.00  0.00     0.021 A 
HETATM   14  C   UNL     1      -7.564   1.308 -32.116  1.00  0.00     0.027 A 
HETATM   15  C   UNL     1     -10.928   1.984 -33.588  1.00  0.00    -0.058 A 
HETATM   16  C   UNL     1     -11.324   3.049 -32.776  1.00  0.00     0.009 A 
BRANCH   8  17
HETATM   17  O   UNL     1      -6.549   3.452 -29.377  1.00  0.00    -0.344 OA
HETATM   18  H   UNL     1      -7.284   3.615 -28.755  1.00  0.00     0.219 HD
ENDBRANCH   8  17
BRANCH  15  19
HETATM   19  C   UNL     1     -11.841   1.471 -34.673  1.00  0.00     0.034 C 
HETATM   20  C   UNL     1     -13.021   0.698 -34.104  1.00  0.00     0.010 C 
ENDBRANCH  15  19
ENDBRANCH   6   7
ENDBRANCH   1   6
BRANCH   1  21
HETATM   21  C   UNL     1      -3.392   0.570 -32.160  1.00  0.00     0.129 C 
BRANCH  21  22
HETATM   22  C   UNL     1      -3.788  -0.817 -31.612  1.00  0.00     0.048 C 
BRANCH  22  23
HETATM   23  C   UNL     1      -3.513  -2.022 -32.521  1.00  0.00     0.236 C 
BRANCH  23  24
HETATM   24  N   UNL     1      -4.471  -2.222 -33.665  1.00  0.00    -0.067 N 
HETATM   25  H   UNL     1      -4.156  -1.706 -34.501  1.00  0.00     0.280 HD
HETATM   26  C   UNL     1      -4.613  -3.661 -34.158  1.00  0.00     0.261 C 
HETATM   27  C   UNL     1      -5.644  -3.724 -35.294  1.00  0.00     0.195 C 
HETATM   28  O   UNL     1      -6.911  -3.210 -34.863  1.00  0.00    -0.388 OA
HETATM   29  C   UNL     1      -6.809  -1.831 -34.498  1.00  0.00     0.195 C 
HETATM   30  C   UNL     1      -5.849  -1.654 -33.320  1.00  0.00     0.261 C 
ENDBRANCH  23  24
ENDBRANCH  22  23
ENDBRANCH  21  22
ENDBRANCH   1  21
BRANCH   3  31
HETATM   31  C   UNL     1      -2.540   4.622 -33.042  1.00  0.00     0.037 A 
HETATM   32  C   UNL     1      -1.446   4.922 -32.226  1.00  0.00     0.053 A 
HETATM   33  C   UNL     1      -0.811   6.161 -32.339  1.00  0.00     0.036 A 
HETATM   34 CL   UNL     1       0.489   6.547 -31.279  1.00  0.00    -0.084 Cl
HETATM   35  C   UNL     1      -1.228   7.093 -33.285  1.00  0.00     0.024 A 
HETATM   36  C   UNL     1      -2.297   6.785 -34.124  1.00  0.00     0.004 A 
HETATM   37  C   UNL     1      -2.956   5.558 -33.995  1.00  0.00     0.029 A 
ENDBRANCH   3  31
TORSDOF 9
ENDMDL
MODEL 8
REMARK VINA RESULT:      -8.8      3.761      8.161
REMARK  9 active torsions:
REMARK  status: ('A' for Active; 'I' for Inactive)
REMARK    1  A    between atoms: C_2  and  C_3 
REMARK    2  A    between atoms: C_8  and  O_9 
REMARK    3  A    between atoms: C_10  and  C_11 
REMARK    4  A    between atoms: C_11  and  N_12 
REMARK       I    between atoms: N_12  and  C_13 
REMARK    5  A    between atoms: N_12  and  C_23 
REMARK       I    between atoms: C_13  and  N_14 
REMARK    6  A    between atoms: N_14  and  C_15 
REMARK    7  A    between atoms: C_23  and  C_24 
REMARK    8  A    between atoms: C_24  and  C_25 
REMARK    9  A    between atoms: C_25  and  N_26 
ROOT
HETATM    1  N   UNL     1      -5.962   2.964 -32.846  1.00  0.00    -0.330 N 
HETATM    2  C   UNL     1      -5.175   3.959 -33.408  1.00  0.00     0.323 C 
HETATM    3  N   UNL     1      -3.996   4.185 -32.743  1.00  0.00    -0.309 N 
HETATM    4  O   UNL     1      -5.623   4.702 -34.279  1.00  0.00    -0.247 OA
HETATM    5  H   UNL     1      -3.770   3.554 -31.984  1.00  0.00     0.170 HD
ENDROOT
BRANCH   1   6
HETATM    6  C   UNL     1      -6.996   2.378 -33.723  1.00  0.00     0.170 C 
BRANCH   6   7
HETATM    7  C   UNL     1      -6.833   0.912 -34.008  1.00  0.00     0.013 A 
HETATM    8  C   UNL     1      -7.782   0.222 -34.741  1.00  0.00     0.170 A 
HETATM    9  N   UNL     1      -7.745  -1.079 -35.057  1.00  0.00    -0.224 NA
HETATM   10  C   UNL     1      -6.687  -1.786 -34.623  1.00  0.00     0.070 A 
HETATM   11  C   UNL     1      -5.661  -1.208 -33.844  1.00  0.00    -0.006 A 
HETATM   12  C   UNL     1      -6.590  -3.131 -34.944  1.00  0.00     0.033 A 
HETATM   13  C   UNL     1      -4.575  -1.991 -33.414  1.00  0.00     0.021 A 
HETATM   14  C   UNL     1      -5.761   0.157 -33.528  1.00  0.00     0.027 A 
HETATM   15  C   UNL     1      -4.486  -3.345 -33.761  1.00  0.00    -0.058 A 
HETATM   16  C   UNL     1      -5.509  -3.911 -34.525  1.00  0.00     0.009 A 
BRANCH   8  17
HETATM   17  O   UNL     1      -8.890   0.843 -35.223  1.00  0.00    -0.344 OA
HETATM   18  H   UNL     1      -9.528   0.570 -34.536  1.00  0.00     0.219 HD
ENDBRANCH   8  17
BRANCH  15  19
HETATM   19  C   UNL     1      -3.321  -4.185 -33.302  1.00  0.00     0.034 C 
HETATM   20  C   UNL     1      -2.899  -3.843 -31.881  1.00  0.00     0.010 C 
ENDBRANCH  15  19
ENDBRANCH   6   7
ENDBRANCH   1   6
BRANCH   1  21
HETATM   21  C   UNL     1      -6.366   3.137 -31.447  1.00  0.00     0.129 C 
BRANCH  21  22
HETATM   22  C   UNL     1      -7.844   3.532 -31.243  1.00  0.00     0.048 C 
BRANCH  22  23
HETATM   23  C   UNL     1      -8.275   3.869 -29.810  1.00  0.00     0.236 C 
BRANCH  23  24
HETATM   24  N   UNL     1      -8.018   5.281 -29.356  1.00  0.00    -0.067 N 
HETATM   25  H   UNL     1      -8.757   5.599 -28.710  1.00  0.00     0.280 HD
HETATM   26  C   UNL     1      -6.728   5.491 -28.565  1.00  0.00     0.261 C 
HETATM   27  C   UNL     1      -6.574   6.975 -28.201  1.00  0.00     0.195 C 
HETATM   28  O   UNL     1      -6.584   7.793 -29.378  1.00  0.00    -0.388 OA
HETATM   29  C   UNL     1      -7.830   7.683 -30.071  1.00  0.00     0.195 C 
HETATM   30  C   UNL     1      -8.060   6.246 -30.543  1.00  0.00     0.261 C 
ENDBRANCH  23  24
ENDBRANCH  22  23
ENDBRANCH  21  22
ENDBRANCH   1  21
BRANCH   3  31
HETATM   31  C   UNL     1      -3.016   5.137 -33.091  1.00  0.00     0.037 A 
HETATM   32  C   UNL     1      -2.934   6.299 -32.317  1.00  0.00     0.053 A 
HETATM   33  C   UNL     1      -2.001   7.287 -32.638  1.00  0.00     0.036 A 
HETATM   34 CL   UNL     1      -1.959   8.743 -31.723  1.00  0.00    -0.084 Cl
HETATM   35  C   UNL     1      -1.117   7.114 -33.700  1.00  0.00     0.024 A 
HETATM   36  C   UNL     1      -1.172   5.944 -34.454  1.00  0.00     0.004 A 
HETATM   37  C   UNL     1      -2.124   4.965 -34.155  1.00  0.00     0.029 A 
ENDBRANCH   3  31
TORSDOF 9
ENDMDL
MODEL 9
REMARK VINA RESULT:      -8.7      3.563      7.419
REMARK  9 active torsions:
REMARK  status: ('A' for Active; 'I' for Inactive)
REMARK    1  A    between atoms: C_2  and  C_3 
REMARK    2  A    between atoms: C_8  and  O_9 
REMARK    3  A    between atoms: C_10  and  C_11 
REMARK    4  A    between atoms: C_11  and  N_12 
REMARK       I    between atoms: N_12  and  C_13 
REMARK    5  A    between atoms: N_12  and  C_23 
REMARK       I    between atoms: C_13  and  N_14 
REMARK    6  A    between atoms: N_14  and  C_15 
REMARK    7  A    between atoms: C_23  and  C_24 
REMARK    8  A    between atoms: C_24  and  C_25 
REMARK    9  A    between atoms: C_25  and  N_26 
ROOT
HETATM    1  N   UNL     1      -5.947   2.980 -32.253  1.00  0.00    -0.330 N 
HETATM    2  C   UNL     1      -5.227   3.983 -32.887  1.00  0.00     0.323 C 
HETATM    3  N   UNL     1      -3.983   4.206 -32.349  1.00  0.00    -0.309 N 
HETATM    4  O   UNL     1      -5.767   4.733 -33.697  1.00  0.00    -0.247 OA
HETATM    5  H   UNL     1      -3.676   3.569 -31.625  1.00  0.00     0.170 HD
ENDROOT
BRANCH   1   6
HETATM    6  C   UNL     1      -7.068   2.399 -33.020  1.00  0.00     0.170 C 
BRANCH   6   7
HETATM    7  C   UNL     1      -6.835   1.007 -33.533  1.00  0.00     0.013 A 
HETATM    8  C   UNL     1      -7.651   0.465 -34.510  1.00  0.00     0.170 A 
HETATM    9  N   UNL     1      -7.541  -0.759 -35.042  1.00  0.00    -0.224 NA
HETATM   10  C   UNL     1      -6.546  -1.539 -34.587  1.00  0.00     0.070 A 
HETATM   11  C   UNL     1      -5.658  -1.116 -33.574  1.00  0.00    -0.006 A 
HETATM   12  C   UNL     1      -6.375  -2.806 -35.123  1.00  0.00     0.033 A 
HETATM   13  C   UNL     1      -4.632  -1.971 -33.132  1.00  0.00     0.021 A 
HETATM   14  C   UNL     1      -5.831   0.171 -33.040  1.00  0.00     0.027 A 
HETATM   15  C   UNL     1      -4.465  -3.241 -33.697  1.00  0.00    -0.058 A 
HETATM   16  C   UNL     1      -5.353  -3.655 -34.692  1.00  0.00     0.009 A 
BRANCH   8  17
HETATM   17  O   UNL     1      -8.688   1.169 -35.034  1.00  0.00    -0.344 OA
HETATM   18  H   UNL     1      -8.182   1.803 -35.578  1.00  0.00     0.219 HD
ENDBRANCH   8  17
BRANCH  15  19
HETATM   19  C   UNL     1      -3.365  -4.157 -33.225  1.00  0.00     0.034 C 
HETATM   20  C   UNL     1      -2.889  -3.800 -31.825  1.00  0.00     0.010 C 
ENDBRANCH  15  19
ENDBRANCH   6   7
ENDBRANCH   1   6
BRANCH   1  21
HETATM   21  C   UNL     1      -6.199   3.139 -30.818  1.00  0.00     0.129 C 
BRANCH  21  22
HETATM   22  C   UNL     1      -7.690   3.151 -30.418  1.00  0.00     0.048 C 
BRANCH  22  23
HETATM   23  C   UNL     1      -8.316   4.522 -30.136  1.00  0.00     0.236 C 
BRANCH  23  24
HETATM   24  N   UNL     1      -9.798   4.635 -30.374  1.00  0.00    -0.067 N 
HETATM   25  H   UNL     1     -10.328   4.222 -29.592  1.00  0.00     0.280 HD
HETATM   26  C   UNL     1     -10.341   6.060 -30.470  1.00  0.00     0.261 C 
HETATM   27  C   UNL     1     -11.850   6.026 -30.752  1.00  0.00     0.195 C 
HETATM   28  O   UNL     1     -12.129   5.298 -31.954  1.00  0.00    -0.388 OA
HETATM   29  C   UNL     1     -11.718   3.933 -31.836  1.00  0.00     0.195 C 
HETATM   30  C   UNL     1     -10.207   3.841 -31.617  1.00  0.00     0.261 C 
ENDBRANCH  23  24
ENDBRANCH  22  23
ENDBRANCH  21  22
ENDBRANCH   1  21
BRANCH   3  31
HETATM   31  C   UNL     1      -3.048   5.165 -32.790  1.00  0.00     0.037 A 
HETATM   32  C   UNL     1      -2.981   6.376 -32.095  1.00  0.00     0.053 A 
HETATM   33  C   UNL     1      -2.093   7.370 -32.510  1.00  0.00     0.036 A 
HETATM   34 CL   UNL     1      -2.072   8.884 -31.692  1.00  0.00    -0.084 Cl
HETATM   35  C   UNL     1      -1.238   7.158 -33.589  1.00  0.00     0.024 A 
HETATM   36  C   UNL     1      -1.278   5.940 -34.263  1.00  0.00     0.004 A 
HETATM   37  C   UNL     1      -2.186   4.952 -33.871  1.00  0.00     0.029 A 
ENDBRANCH   3  31
TORSDOF 9
ENDMDL
MODEL 10
REMARK VINA RESULT:      -8.7      3.793      8.072
REMARK  9 active torsions:
REMARK  status: ('A' for Active; 'I' for Inactive)
REMARK    1  A    between atoms: C_2  and  C_3 
REMARK    2  A    between atoms: C_8  and  O_9 
REMARK    3  A    between atoms: C_10  and  C_11 
REMARK    4  A    between atoms: C_11  and  N_12 
REMARK       I    between atoms: N_12  and  C_13 
REMARK    5  A    between atoms: N_12  and  C_23 
REMARK       I    between atoms: C_13  and  N_14 
REMARK    6  A    between atoms: N_14  and  C_15 
REMARK    7  A    between atoms: C_23  and  C_24 
REMARK    8  A    between atoms: C_24  and  C_25 
REMARK    9  A    between atoms: C_25  and  N_26 
ROOT
HETATM    1  N   UNL     1      -5.052   4.367 -31.106  1.00  0.00    -0.330 N 
HETATM    2  C   UNL     1      -4.432   5.606 -31.022  1.00  0.00     0.323 C 
HETATM    3  N   UNL     1      -3.852   5.862 -29.804  1.00  0.00    -0.309 N 
HETATM    4  O   UNL     1      -4.602   6.457 -31.892  1.00  0.00    -0.247 OA
HETATM    5  H   UNL     1      -3.844   5.105 -29.132  1.00  0.00     0.170 HD
ENDROOT
BRANCH   1   6
HETATM    6  C   UNL     1      -5.301   3.854 -32.468  1.00  0.00     0.170 C 
BRANCH   6   7
HETATM    7  C   UNL     1      -4.975   2.402 -32.671  1.00  0.00     0.013 A 
HETATM    8  C   UNL     1      -3.754   1.887 -32.274  1.00  0.00     0.170 A 
HETATM    9  N   UNL     1      -3.352   0.616 -32.402  1.00  0.00    -0.224 NA
HETATM   10  C   UNL     1      -4.213  -0.245 -32.972  1.00  0.00     0.070 A 
HETATM   11  C   UNL     1      -5.481   0.157 -33.445  1.00  0.00    -0.006 A 
HETATM   12  C   UNL     1      -3.854  -1.577 -33.107  1.00  0.00     0.033 A 
HETATM   13  C   UNL     1      -6.346  -0.783 -34.034  1.00  0.00     0.021 A 
HETATM   14  C   UNL     1      -5.842   1.506 -33.300  1.00  0.00     0.027 A 
HETATM   15  C   UNL     1      -5.972  -2.128 -34.147  1.00  0.00    -0.058 A 
HETATM   16  C   UNL     1      -4.713  -2.516 -33.685  1.00  0.00     0.009 A 
BRANCH   8  17
HETATM   17  O   UNL     1      -2.812   2.673 -31.691  1.00  0.00    -0.344 OA
HETATM   18  H   UNL     1      -2.889   2.349 -30.773  1.00  0.00     0.219 HD
ENDBRANCH   8  17
BRANCH  15  19
HETATM   19  C   UNL     1      -6.899  -3.137 -34.777  1.00  0.00     0.034 C 
HETATM   20  C   UNL     1      -6.264  -4.516 -34.862  1.00  0.00     0.010 C 
ENDBRANCH  15  19
ENDBRANCH   6   7
ENDBRANCH   1   6
BRANCH   1  21
HETATM   21  C   UNL     1      -6.112   4.079 -30.135  1.00  0.00     0.129 C 
BRANCH  21  22
HETATM   22  C   UNL     1      -7.539   4.419 -30.614  1.00  0.00     0.048 C 
BRANCH  22  23
HETATM   23  C   UNL     1      -8.601   3.325 -30.446  1.00  0.00     0.236 C 
BRANCH  23  24
HETATM   24  N   UNL     1      -9.036   2.626 -31.707  1.00  0.00    -0.067 N 
HETATM   25  H   UNL     1      -8.344   2.761 -32.459  1.00  0.00     0.280 HD
HETATM   26  C   UNL     1      -9.168   1.107 -31.602  1.00  0.00     0.261 C 
HETATM   27  C   UNL     1      -9.654   0.532 -32.941  1.00  0.00     0.195 C 
HETATM   28  O   UNL     1     -10.901   1.122 -33.328  1.00  0.00    -0.388 OA
HETATM   29  C   UNL     1     -10.763   2.531 -33.530  1.00  0.00     0.195 C 
HETATM   30  C   UNL     1     -10.343   3.224 -32.232  1.00  0.00     0.261 C 
ENDBRANCH  23  24
ENDBRANCH  22  23
ENDBRANCH  21  22
ENDBRANCH   1  21
BRANCH   3  31
HETATM   31  C   UNL     1      -3.165   7.040 -29.443  1.00  0.00     0.037 A 
HETATM   32  C   UNL     1      -1.775   6.968 -29.316  1.00  0.00     0.053 A 
HETATM   33  C   UNL     1      -1.051   8.099 -28.930  1.00  0.00     0.036 A 
HETATM   34 CL   UNL     1       0.650   7.980 -28.706  1.00  0.00    -0.084 Cl
HETATM   35  C   UNL     1      -1.692   9.315 -28.709  1.00  0.00     0.024 A 
HETATM   36  C   UNL     1      -3.074   9.399 -28.868  1.00  0.00     0.004 A 
HETATM   37  C   UNL     1      -3.807   8.263 -29.224  1.00  0.00     0.029 A 
ENDBRANCH   3  31
TORSDOF 9
ENDMDL
