MODEL 1
REMARK VINA RESULT:      -8.6      0.000      0.000
REMARK  7 active torsions:
REMARK  status: ('A' for Active; 'I' for Inactive)
REMARK    1  A    between atoms: C_6  and  O_7 
REMARK    2  A    between atoms: O_7  and  C_8 
REMARK    3  A    between atoms: C_8  and  C_9 
REMARK       I    between atoms: C_9  and  N_10 
REMARK    4  A    between atoms: N_10  and  C_11 
REMARK    5  A    between atoms: C_14  and  N_15 
REMARK    6  A    between atoms: N_18  and  C_20 
REMARK    7  A    between atoms: C_20  and  C_21 
ROOT
HETATM    1  C   UNL     1      -7.347   3.587 -33.298  1.00  0.00     0.034 A 
HETATM    2  C   UNL     1      -7.305   4.488 -32.238  1.00  0.00     0.032 A 
HETATM    3  C   UNL     1      -6.075   4.907 -31.722  1.00  0.00     0.031 A 
HETATM    4  C   UNL     1      -4.862   4.457 -32.261  1.00  0.00     0.030 A 
HETATM    5  C   UNL     1      -4.918   3.528 -33.305  1.00  0.00     0.031 A 
HETATM    6  C   UNL     1      -6.149   3.074 -33.799  1.00  0.00     0.032 A 
ENDROOT
BRANCH   1   7
HETATM    7  N   UNL     1      -8.549   3.120 -33.847  1.00  0.00    -0.325 N 
HETATM    8  C   UNL     1      -9.362   2.087 -33.448  1.00  0.00     0.246 C 
HETATM    9  O   UNL     1     -10.227   1.687 -34.231  1.00  0.00    -0.271 OA
HETATM   10  H   UNL     1      -8.901   3.589 -34.674  1.00  0.00     0.169 HD
BRANCH   8  11
HETATM   11  C   UNL     1      -9.287   1.571 -32.009  1.00  0.00     0.278 C 
BRANCH  11  12
HETATM   12  O   UNL     1      -8.694   0.284 -31.923  1.00  0.00    -0.342 OA
BRANCH  12  13
HETATM   13  C   UNL     1      -7.334   0.285 -31.717  1.00  0.00     0.075 A 
HETATM   14  C   UNL     1      -6.553  -0.431 -32.639  1.00  0.00    -0.028 A 
HETATM   15  C   UNL     1      -5.155  -0.451 -32.491  1.00  0.00     0.016 A 
HETATM   16  C   UNL     1      -7.191  -1.187 -33.771  1.00  0.00     0.051 C 
HETATM   17  C   UNL     1      -4.529   0.242 -31.448  1.00  0.00    -0.061 A 
HETATM   18  C   UNL     1      -3.041   0.181 -31.271  1.00  0.00     0.048 C 
HETATM   19  C   UNL     1      -5.317   0.949 -30.538  1.00  0.00     0.009 A 
HETATM   20  C   UNL     1      -6.707   0.980 -30.677  1.00  0.00     0.038 A 
ENDBRANCH  12  13
ENDBRANCH  11  12
ENDBRANCH   8  11
ENDBRANCH   1   7
BRANCH   4  21
HETATM   21  N   UNL     1      -3.673   4.967 -31.734  1.00  0.00    -0.378 N 
HETATM   22  C   UNL     1      -3.872   5.904 -30.613  1.00  0.00     0.150 C 
HETATM   23  C   UNL     1      -2.605   6.766 -30.436  1.00  0.00     0.255 C 
HETATM   24  N   UNL     1      -1.347   5.898 -30.299  1.00  0.00    -0.064 N 
HETATM   25  H   UNL     1      -1.434   5.389 -29.412  1.00  0.00     0.280 HD
HETATM   26  C   UNL     1      -1.248   4.866 -31.425  1.00  0.00     0.255 C 
HETATM   27  C   UNL     1      -2.547   4.042 -31.548  1.00  0.00     0.150 C 
BRANCH  24  28
HETATM   28  C   UNL     1      -0.084   6.725 -30.223  1.00  0.00     0.273 C 
BRANCH  28  29
HETATM   29  C   UNL     1       0.328   7.056 -28.817  1.00  0.00    -0.033 A 
HETATM   30  C   UNL     1      -0.118   6.274 -27.741  1.00  0.00     0.009 A 
HETATM   31  C   UNL     1       0.248   6.598 -26.432  1.00  0.00     0.001 A 
HETATM   32  C   UNL     1       1.057   7.706 -26.188  1.00  0.00     0.000 A 
HETATM   33  C   UNL     1       1.508   8.487 -27.248  1.00  0.00     0.001 A 
HETATM   34  C   UNL     1       1.148   8.166 -28.557  1.00  0.00     0.009 A 
ENDBRANCH  28  29
ENDBRANCH  24  28
ENDBRANCH   4  21
TORSDOF 7
ENDMDL
MODEL 2
REMARK VINA RESULT:      -8.5      1.484      2.263
REMARK  7 active torsions:
REMARK  status: ('A' for Active; 'I' for Inactive)
REMARK    1  A    between atoms: C_6  and  O_7 
REMARK    2  A    between atoms: O_7  and  C_8 
REMARK    3  A    between atoms: C_8  and  C_9 
REMARK       I    between atoms: C_9  and  N_10 
REMARK    4  A    between atoms: N_10  and  C_11 
REMARK    5  A    between atoms: C_14  and  N_15 
REMARK    6  A    between atoms: N_18  and  C_20 
REMARK    7  A    between atoms: C_20  and  C_21 
ROOT
HETATM    1  C   UNL     1      -7.374   3.176 -32.987  1.00  0.00     0.034 A 
HETATM    2  C   UNL     1      -7.064   3.243 -31.632  1.00  0.00     0.032 A 
HETATM    3  C   UNL     1      -5.843   3.783 -31.218  1.00  0.00     0.031 A 
HETATM    4  C   UNL     1      -4.914   4.287 -32.139  1.00  0.00     0.030 A 
HETATM    5  C   UNL     1      -5.224   4.183 -33.499  1.00  0.00     0.031 A 
HETATM    6  C   UNL     1      -6.430   3.607 -33.921  1.00  0.00     0.032 A 
ENDROOT
BRANCH   1   7
HETATM    7  N   UNL     1      -8.575   2.631 -33.462  1.00  0.00    -0.325 N 
HETATM    8  C   UNL     1      -8.849   1.373 -33.940  1.00  0.00     0.246 C 
HETATM    9  O   UNL     1      -9.907   1.195 -34.549  1.00  0.00    -0.271 OA
HETATM   10  H   UNL     1      -9.390   3.235 -33.478  1.00  0.00     0.169 HD
BRANCH   8  11
HETATM   11  C   UNL     1      -7.932   0.203 -33.574  1.00  0.00     0.278 C 
BRANCH  11  12
HETATM   12  O   UNL     1      -6.760   0.161 -34.374  1.00  0.00    -0.342 OA
BRANCH  12  13
HETATM   13  C   UNL     1      -6.031  -1.001 -34.273  1.00  0.00     0.075 A 
HETATM   14  C   UNL     1      -4.871  -0.956 -33.484  1.00  0.00    -0.028 A 
HETATM   15  C   UNL     1      -4.095  -2.118 -33.330  1.00  0.00     0.016 A 
HETATM   16  C   UNL     1      -4.439   0.321 -32.817  1.00  0.00     0.051 C 
HETATM   17  C   UNL     1      -4.468  -3.322 -33.938  1.00  0.00    -0.061 A 
HETATM   18  C   UNL     1      -3.613  -4.547 -33.803  1.00  0.00     0.048 C 
HETATM   19  C   UNL     1      -5.624  -3.353 -34.720  1.00  0.00     0.009 A 
HETATM   20  C   UNL     1      -6.406  -2.206 -34.878  1.00  0.00     0.038 A 
ENDBRANCH  12  13
ENDBRANCH  11  12
ENDBRANCH   8  11
ENDBRANCH   1   7
BRANCH   4  21
HETATM   21  N   UNL     1      -3.742   4.867 -31.648  1.00  0.00    -0.378 N 
HETATM   22  C   UNL     1      -3.959   5.767 -30.501  1.00  0.00     0.150 C 
HETATM   23  C   UNL     1      -2.747   6.712 -30.355  1.00  0.00     0.255 C 
HETATM   24  N   UNL     1      -1.428   5.929 -30.286  1.00  0.00    -0.064 N 
HETATM   25  H   UNL     1      -1.444   5.399 -29.408  1.00  0.00     0.280 HD
HETATM   26  C   UNL     1      -1.305   4.928 -31.437  1.00  0.00     0.255 C 
HETATM   27  C   UNL     1      -2.549   4.019 -31.526  1.00  0.00     0.150 C 
BRANCH  24  28
HETATM   28  C   UNL     1      -0.223   6.840 -30.242  1.00  0.00     0.273 C 
BRANCH  28  29
HETATM   29  C   UNL     1       0.257   7.128 -28.848  1.00  0.00    -0.033 A 
HETATM   30  C   UNL     1      -0.203   6.364 -27.765  1.00  0.00     0.009 A 
HETATM   31  C   UNL     1       0.227   6.649 -26.467  1.00  0.00     0.001 A 
HETATM   32  C   UNL     1       1.115   7.698 -26.240  1.00  0.00     0.000 A 
HETATM   33  C   UNL     1       1.580   8.461 -27.307  1.00  0.00     0.001 A 
HETATM   34  C   UNL     1       1.156   8.179 -28.606  1.00  0.00     0.009 A 
ENDBRANCH  28  29
ENDBRANCH  24  28
ENDBRANCH   4  21
TORSDOF 7
ENDMDL
MODEL 3
REMARK VINA RESULT:      -8.2      3.619      9.208
REMARK  7 active torsions:
REMARK  status: ('A' for Active; 'I' for Inactive)
REMARK    1  A    between atoms: C_6  and  O_7 
REMARK    2  A    between atoms: O_7  and  C_8 
REMARK    3  A    between atoms: C_8  and  C_9 
REMARK       I    between atoms: C_9  and  N_10 
REMARK    4  A    between atoms: N_10  and  C_11 
REMARK    5  A    between atoms: C_14  and  N_15 
REMARK    6  A    between atoms: N_18  and  C_20 
REMARK    7  A    between atoms: C_20  and  C_21 
ROOT
HETATM    1  C   UNL     1      -4.950   6.414 -29.668  1.00  0.00     0.034 A 
HETATM    2  C   UNL     1      -5.461   5.300 -29.009  1.00  0.00     0.032 A 
HETATM    3  C   UNL     1      -5.810   4.155 -29.733  1.00  0.00     0.031 A 
HETATM    4  C   UNL     1      -5.639   4.087 -31.122  1.00  0.00     0.030 A 
HETATM    5  C   UNL     1      -5.155   5.224 -31.776  1.00  0.00     0.031 A 
HETATM    6  C   UNL     1      -4.841   6.387 -31.059  1.00  0.00     0.032 A 
ENDROOT
BRANCH   1   7
HETATM    7  N   UNL     1      -4.597   7.593 -28.997  1.00  0.00    -0.325 N 
HETATM    8  C   UNL     1      -3.480   7.890 -28.255  1.00  0.00     0.246 C 
HETATM    9  O   UNL     1      -3.502   8.894 -27.539  1.00  0.00    -0.271 OA
HETATM   10  H   UNL     1      -5.250   8.368 -29.037  1.00  0.00     0.169 HD
BRANCH   8  11
HETATM   11  C   UNL     1      -2.198   7.076 -28.451  1.00  0.00     0.278 C 
BRANCH  11  12
HETATM   12  O   UNL     1      -1.298   7.690 -29.362  1.00  0.00    -0.342 OA
BRANCH  12  13
HETATM   13  C   UNL     1      -1.286   7.141 -30.622  1.00  0.00     0.075 A 
HETATM   14  C   UNL     1      -1.730   7.960 -31.674  1.00  0.00    -0.028 A 
HETATM   15  C   UNL     1      -1.723   7.459 -32.988  1.00  0.00     0.016 A 
HETATM   16  C   UNL     1      -2.225   9.355 -31.412  1.00  0.00     0.051 C 
HETATM   17  C   UNL     1      -1.269   6.165 -33.266  1.00  0.00    -0.061 A 
HETATM   18  C   UNL     1      -1.305   5.623 -34.665  1.00  0.00     0.048 C 
HETATM   19  C   UNL     1      -0.832   5.362 -32.212  1.00  0.00     0.009 A 
HETATM   20  C   UNL     1      -0.829   5.848 -30.902  1.00  0.00     0.038 A 
ENDBRANCH  12  13
ENDBRANCH  11  12
ENDBRANCH   8  11
ENDBRANCH   1   7
BRANCH   4  21
HETATM   21  N   UNL     1      -5.952   2.889 -31.770  1.00  0.00    -0.378 N 
HETATM   22  C   UNL     1      -5.566   2.863 -33.193  1.00  0.00     0.150 C 
HETATM   23  C   UNL     1      -6.366   1.763 -33.921  1.00  0.00     0.255 C 
HETATM   24  N   UNL     1      -6.226   0.405 -33.217  1.00  0.00    -0.064 N 
HETATM   25  H   UNL     1      -5.246   0.118 -33.322  1.00  0.00     0.280 HD
HETATM   26  C   UNL     1      -6.527   0.511 -31.721  1.00  0.00     0.255 C 
HETATM   27  C   UNL     1      -5.696   1.630 -31.058  1.00  0.00     0.150 C 
BRANCH  24  28
HETATM   28  C   UNL     1      -7.081  -0.663 -33.858  1.00  0.00     0.273 C 
BRANCH  28  29
HETATM   29  C   UNL     1      -6.343  -1.948 -34.107  1.00  0.00    -0.033 A 
HETATM   30  C   UNL     1      -4.961  -2.031 -33.880  1.00  0.00     0.009 A 
HETATM   31  C   UNL     1      -4.273  -3.220 -34.134  1.00  0.00     0.001 A 
HETATM   32  C   UNL     1      -4.958  -4.332 -34.621  1.00  0.00     0.000 A 
HETATM   33  C   UNL     1      -6.330  -4.262 -34.847  1.00  0.00     0.001 A 
HETATM   34  C   UNL     1      -7.021  -3.077 -34.592  1.00  0.00     0.009 A 
ENDBRANCH  28  29
ENDBRANCH  24  28
ENDBRANCH   4  21
TORSDOF 7
ENDMDL
MODEL 4
REMARK VINA RESULT:      -8.0      1.906      3.094
REMARK  7 active torsions:
REMARK  status: ('A' for Active; 'I' for Inactive)
REMARK    1  A    between atoms: C_6  and  O_7 
REMARK    2  A    between atoms: O_7  and  C_8 
REMARK    3  A    between atoms: C_8  and  C_9 
REMARK       I    between atoms: C_9  and  N_10 
REMARK    4  A    between atoms: N_10  and  C_11 
REMARK    5  A    between atoms: C_14  and  N_15 
REMARK    6  A    between atoms: N_18  and  C_20 
REMARK    7  A    between atoms: C_20  and  C_21 
ROOT
HETATM    1  C   UNL     1      -7.853   2.815 -32.666  1.00  0.00     0.034 A 
HETATM    2  C   UNL     1      -7.258   3.288 -33.833  1.00  0.00     0.032 A 
HETATM    3  C   UNL     1      -6.086   4.047 -33.764  1.00  0.00     0.031 A 
HETATM    4  C   UNL     1      -5.469   4.334 -32.539  1.00  0.00     0.030 A 
HETATM    5  C   UNL     1      -6.094   3.880 -31.373  1.00  0.00     0.031 A 
HETATM    6  C   UNL     1      -7.291   3.153 -31.434  1.00  0.00     0.032 A 
ENDROOT
BRANCH   1   7
HETATM    7  N   UNL     1      -9.035   2.063 -32.672  1.00  0.00    -0.325 N 
HETATM    8  C   UNL     1      -9.238   0.733 -32.948  1.00  0.00     0.246 C 
HETATM    9  O   UNL     1     -10.391   0.346 -33.151  1.00  0.00    -0.271 OA
HETATM   10  H   UNL     1      -9.899   2.546 -32.450  1.00  0.00     0.169 HD
BRANCH   8  11
HETATM   11  C   UNL     1      -8.072  -0.253 -32.840  1.00  0.00     0.278 C 
BRANCH  11  12
HETATM   12  O   UNL     1      -7.332  -0.354 -34.048  1.00  0.00    -0.342 OA
BRANCH  12  13
HETATM   13  C   UNL     1      -6.457  -1.413 -34.105  1.00  0.00     0.075 A 
HETATM   14  C   UNL     1      -5.175  -1.207 -33.569  1.00  0.00    -0.028 A 
HETATM   15  C   UNL     1      -4.243  -2.260 -33.583  1.00  0.00     0.016 A 
HETATM   16  C   UNL     1      -4.782   0.127 -32.997  1.00  0.00     0.051 C 
HETATM   17  C   UNL     1      -4.577  -3.514 -34.109  1.00  0.00    -0.061 A 
HETATM   18  C   UNL     1      -3.565  -4.619 -34.159  1.00  0.00     0.048 C 
HETATM   19  C   UNL     1      -5.854  -3.705 -34.639  1.00  0.00     0.009 A 
HETATM   20  C   UNL     1      -6.791  -2.668 -34.627  1.00  0.00     0.038 A 
ENDBRANCH  12  13
ENDBRANCH  11  12
ENDBRANCH   8  11
ENDBRANCH   1   7
BRANCH   4  21
HETATM   21  N   UNL     1      -4.267   5.045 -32.553  1.00  0.00    -0.378 N 
HETATM   22  C   UNL     1      -3.431   4.778 -33.737  1.00  0.00     0.150 C 
HETATM   23  C   UNL     1      -1.973   5.189 -33.439  1.00  0.00     0.255 C 
HETATM   24  N   UNL     1      -1.888   6.637 -32.936  1.00  0.00    -0.064 N 
HETATM   25  H   UNL     1      -2.167   7.239 -33.719  1.00  0.00     0.280 HD
HETATM   26  C   UNL     1      -2.858   6.891 -31.780  1.00  0.00     0.255 C 
HETATM   27  C   UNL     1      -4.293   6.456 -32.145  1.00  0.00     0.150 C 
BRANCH  24  28
HETATM   28  C   UNL     1      -0.481   7.026 -32.545  1.00  0.00     0.273 C 
BRANCH  28  29
HETATM   29  C   UNL     1      -0.097   6.570 -31.166  1.00  0.00    -0.033 A 
HETATM   30  C   UNL     1      -0.155   7.458 -30.081  1.00  0.00     0.009 A 
HETATM   31  C   UNL     1       0.225   7.038 -28.804  1.00  0.00     0.001 A 
HETATM   32  C   UNL     1       0.668   5.733 -28.601  1.00  0.00     0.000 A 
HETATM   33  C   UNL     1       0.727   4.843 -29.670  1.00  0.00     0.001 A 
HETATM   34  C   UNL     1       0.345   5.256 -30.947  1.00  0.00     0.009 A 
ENDBRANCH  28  29
ENDBRANCH  24  28
ENDBRANCH   4  21
TORSDOF 7
ENDMDL
MODEL 5
REMARK VINA RESULT:      -7.6      3.177      9.440
REMARK  7 active torsions:
REMARK  status: ('A' for Active; 'I' for Inactive)
REMARK    1  A    between atoms: C_6  and  O_7 
REMARK    2  A    between atoms: O_7  and  C_8 
REMARK    3  A    between atoms: C_8  and  C_9 
REMARK       I    between atoms: C_9  and  N_10 
REMARK    4  A    between atoms: N_10  and  C_11 
REMARK    5  A    between atoms: C_14  and  N_15 
REMARK    6  A    between atoms: N_18  and  C_20 
REMARK    7  A    between atoms: C_20  and  C_21 
ROOT
HETATM    1  C   UNL     1      -3.524   6.551 -32.502  1.00  0.00     0.034 A 
HETATM    2  C   UNL     1      -4.896   6.547 -32.734  1.00  0.00     0.032 A 
HETATM    3  C   UNL     1      -5.571   5.337 -32.925  1.00  0.00     0.031 A 
HETATM    4  C   UNL     1      -4.902   4.107 -32.868  1.00  0.00     0.030 A 
HETATM    5  C   UNL     1      -3.518   4.127 -32.668  1.00  0.00     0.031 A 
HETATM    6  C   UNL     1      -2.830   5.339 -32.515  1.00  0.00     0.032 A 
ENDROOT
BRANCH   1   7
HETATM    7  N   UNL     1      -2.791   7.732 -32.319  1.00  0.00    -0.325 N 
HETATM    8  C   UNL     1      -2.707   8.561 -31.228  1.00  0.00     0.246 C 
HETATM    9  O   UNL     1      -2.213   9.681 -31.380  1.00  0.00    -0.271 OA
HETATM   10  H   UNL     1      -2.230   8.061 -33.097  1.00  0.00     0.169 HD
BRANCH   8  11
HETATM   11  C   UNL     1      -3.070   8.031 -29.838  1.00  0.00     0.278 C 
BRANCH  11  12
HETATM   12  O   UNL     1      -2.199   6.996 -29.406  1.00  0.00    -0.342 OA
BRANCH  12  13
HETATM   13  C   UNL     1      -1.194   7.401 -28.559  1.00  0.00     0.075 A 
HETATM   14  C   UNL     1       0.113   7.388 -29.074  1.00  0.00    -0.028 A 
HETATM   15  C   UNL     1       1.180   7.809 -28.261  1.00  0.00     0.016 A 
HETATM   16  C   UNL     1       0.387   6.917 -30.475  1.00  0.00     0.051 C 
HETATM   17  C   UNL     1       0.959   8.253 -26.952  1.00  0.00    -0.061 A 
HETATM   18  C   UNL     1       2.106   8.660 -26.076  1.00  0.00     0.048 C 
HETATM   19  C   UNL     1      -0.345   8.260 -26.452  1.00  0.00     0.009 A 
HETATM   20  C   UNL     1      -1.414   7.849 -27.252  1.00  0.00     0.038 A 
ENDBRANCH  12  13
ENDBRANCH  11  12
ENDBRANCH   8  11
ENDBRANCH   1   7
BRANCH   4  21
HETATM   21  N   UNL     1      -5.652   2.937 -33.008  1.00  0.00    -0.378 N 
HETATM   22  C   UNL     1      -6.423   2.577 -31.803  1.00  0.00     0.150 C 
HETATM   23  C   UNL     1      -6.798   1.082 -31.863  1.00  0.00     0.255 C 
HETATM   24  N   UNL     1      -7.509   0.732 -33.179  1.00  0.00    -0.064 N 
HETATM   25  H   UNL     1      -8.411   1.220 -33.166  1.00  0.00     0.280 HD
HETATM   26  C   UNL     1      -6.722   1.228 -34.394  1.00  0.00     0.255 C 
HETATM   27  C   UNL     1      -6.379   2.727 -34.267  1.00  0.00     0.150 C 
BRANCH  24  28
HETATM   28  C   UNL     1      -7.797  -0.747 -33.298  1.00  0.00     0.273 C 
BRANCH  28  29
HETATM   29  C   UNL     1      -6.606  -1.554 -33.733  1.00  0.00    -0.033 A 
HETATM   30  C   UNL     1      -6.731  -2.520 -34.743  1.00  0.00     0.009 A 
HETATM   31  C   UNL     1      -5.628  -3.285 -35.128  1.00  0.00     0.001 A 
HETATM   32  C   UNL     1      -4.395  -3.094 -34.509  1.00  0.00     0.000 A 
HETATM   33  C   UNL     1      -4.258  -2.135 -33.508  1.00  0.00     0.001 A 
HETATM   34  C   UNL     1      -5.357  -1.367 -33.121  1.00  0.00     0.009 A 
ENDBRANCH  28  29
ENDBRANCH  24  28
ENDBRANCH   4  21
TORSDOF 7
ENDMDL
MODEL 6
REMARK VINA RESULT:      -7.5      1.755      2.755
REMARK  7 active torsions:
REMARK  status: ('A' for Active; 'I' for Inactive)
REMARK    1  A    between atoms: C_6  and  O_7 
REMARK    2  A    between atoms: O_7  and  C_8 
REMARK    3  A    between atoms: C_8  and  C_9 
REMARK       I    between atoms: C_9  and  N_10 
REMARK    4  A    between atoms: N_10  and  C_11 
REMARK    5  A    between atoms: C_14  and  N_15 
REMARK    6  A    between atoms: N_18  and  C_20 
REMARK    7  A    between atoms: C_20  and  C_21 
ROOT
HETATM    1  C   UNL     1      -9.832   2.924 -32.516  1.00  0.00     0.034 A 
HETATM    2  C   UNL     1      -9.505   3.292 -31.214  1.00  0.00     0.032 A 
HETATM    3  C   UNL     1      -8.399   4.114 -30.975  1.00  0.00     0.031 A 
HETATM    4  C   UNL     1      -7.609   4.604 -32.024  1.00  0.00     0.030 A 
HETATM    5  C   UNL     1      -7.929   4.200 -33.324  1.00  0.00     0.031 A 
HETATM    6  C   UNL     1      -9.013   3.344 -33.566  1.00  0.00     0.032 A 
ENDROOT
BRANCH   1   7
HETATM    7  N   UNL     1     -10.918   2.091 -32.816  1.00  0.00    -0.325 N 
HETATM    8  C   UNL     1     -10.955   0.743 -33.076  1.00  0.00     0.246 C 
HETATM    9  O   UNL     1     -11.980   0.270 -33.574  1.00  0.00    -0.271 OA
HETATM   10  H   UNL     1     -11.837   2.518 -32.865  1.00  0.00     0.169 HD
BRANCH   8  11
HETATM   11  C   UNL     1      -9.809  -0.156 -32.603  1.00  0.00     0.278 C 
BRANCH  11  12
HETATM   12  O   UNL     1      -8.709  -0.152 -33.501  1.00  0.00    -0.342 OA
BRANCH  12  13
HETATM   13  C   UNL     1      -7.472  -0.169 -32.902  1.00  0.00     0.075 A 
HETATM   14  C   UNL     1      -6.492  -0.983 -33.493  1.00  0.00    -0.028 A 
HETATM   15  C   UNL     1      -5.202  -1.028 -32.935  1.00  0.00     0.016 A 
HETATM   16  C   UNL     1      -6.808  -1.818 -34.703  1.00  0.00     0.051 C 
HETATM   17  C   UNL     1      -4.876  -0.263 -31.808  1.00  0.00    -0.061 A 
HETATM   18  C   UNL     1      -3.510  -0.349 -31.193  1.00  0.00     0.048 C 
HETATM   19  C   UNL     1      -5.859   0.541 -31.230  1.00  0.00     0.009 A 
HETATM   20  C   UNL     1      -7.143   0.597 -31.777  1.00  0.00     0.038 A 
ENDBRANCH  12  13
ENDBRANCH  11  12
ENDBRANCH   8  11
ENDBRANCH   1   7
BRANCH   4  21
HETATM   21  N   UNL     1      -6.557   5.469 -31.713  1.00  0.00    -0.378 N 
HETATM   22  C   UNL     1      -5.237   4.813 -31.676  1.00  0.00     0.150 C 
HETATM   23  C   UNL     1      -4.255   5.686 -30.866  1.00  0.00     0.255 C 
HETATM   24  N   UNL     1      -4.214   7.126 -31.395  1.00  0.00    -0.064 N 
HETATM   25  H   UNL     1      -3.803   7.085 -32.334  1.00  0.00     0.280 HD
HETATM   26  C   UNL     1      -5.618   7.721 -31.522  1.00  0.00     0.255 C 
HETATM   27  C   UNL     1      -6.547   6.798 -32.339  1.00  0.00     0.150 C 
BRANCH  24  28
HETATM   28  C   UNL     1      -3.331   8.020 -30.554  1.00  0.00     0.273 C 
BRANCH  28  29
HETATM   29  C   UNL     1      -1.925   7.511 -30.417  1.00  0.00    -0.033 A 
HETATM   30  C   UNL     1      -1.396   7.212 -29.152  1.00  0.00     0.009 A 
HETATM   31  C   UNL     1      -0.080   6.762 -29.025  1.00  0.00     0.001 A 
HETATM   32  C   UNL     1       0.718   6.610 -30.157  1.00  0.00     0.000 A 
HETATM   33  C   UNL     1       0.203   6.901 -31.418  1.00  0.00     0.001 A 
HETATM   34  C   UNL     1      -1.112   7.348 -31.550  1.00  0.00     0.009 A 
ENDBRANCH  28  29
ENDBRANCH  24  28
ENDBRANCH   4  21
TORSDOF 7
ENDMDL
MODEL 7
REMARK VINA RESULT:      -7.3      6.112      9.166
REMARK  7 active torsions:
REMARK  status: ('A' for Active; 'I' for Inactive)
REMARK    1  A    between atoms: C_6  and  O_7 
REMARK    2  A    between atoms: O_7  and  C_8 
REMARK    3  A    between atoms: C_8  and  C_9 
REMARK       I    between atoms: C_9  and  N_10 
REMARK    4  A    between atoms: N_10  and  C_11 
REMARK    5  A    between atoms: C_14  and  N_15 
REMARK    6  A    between atoms: N_18  and  C_20 
REMARK    7  A    between atoms: C_20  and  C_21 
ROOT
HETATM    1  C   UNL     1     -12.470   3.828 -31.869  1.00  0.00     0.034 A 
HETATM    2  C   UNL     1     -12.491   3.035 -33.012  1.00  0.00     0.032 A 
HETATM    3  C   UNL     1     -11.359   2.297 -33.374  1.00  0.00     0.031 A 
HETATM    4  C   UNL     1     -10.193   2.315 -32.597  1.00  0.00     0.030 A 
HETATM    5  C   UNL     1     -10.175   3.142 -31.468  1.00  0.00     0.031 A 
HETATM    6  C   UNL     1     -11.293   3.913 -31.124  1.00  0.00     0.032 A 
ENDROOT
BRANCH   1   7
HETATM    7  N   UNL     1     -13.568   4.600 -31.466  1.00  0.00    -0.325 N 
HETATM    8  C   UNL     1     -14.074   5.764 -31.992  1.00  0.00     0.246 C 
HETATM    9  O   UNL     1     -14.881   6.409 -31.319  1.00  0.00    -0.271 OA
HETATM   10  H   UNL     1     -14.090   4.286 -30.655  1.00  0.00     0.169 HD
BRANCH   8  11
HETATM   11  C   UNL     1     -13.757   6.145 -33.441  1.00  0.00     0.278 C 
BRANCH  11  12
HETATM   12  O   UNL     1     -12.733   7.124 -33.534  1.00  0.00    -0.342 OA
BRANCH  12  13
HETATM   13  C   UNL     1     -11.460   6.621 -33.659  1.00  0.00     0.075 A 
HETATM   14  C   UNL     1     -10.548   6.944 -32.641  1.00  0.00    -0.028 A 
HETATM   15  C   UNL     1      -9.235   6.443 -32.706  1.00  0.00     0.016 A 
HETATM   16  C   UNL     1     -10.950   7.828 -31.494  1.00  0.00     0.051 C 
HETATM   17  C   UNL     1      -8.828   5.618 -33.760  1.00  0.00    -0.061 A 
HETATM   18  C   UNL     1      -7.414   5.122 -33.845  1.00  0.00     0.048 C 
HETATM   19  C   UNL     1      -9.744   5.306 -34.766  1.00  0.00     0.009 A 
HETATM   20  C   UNL     1     -11.052   5.793 -34.711  1.00  0.00     0.038 A 
ENDBRANCH  12  13
ENDBRANCH  11  12
ENDBRANCH   8  11
ENDBRANCH   1   7
BRANCH   4  21
HETATM   21  N   UNL     1      -9.124   1.505 -32.987  1.00  0.00    -0.378 N 
HETATM   22  C   UNL     1      -8.499   0.766 -31.874  1.00  0.00     0.150 C 
HETATM   23  C   UNL     1      -7.082   0.319 -32.288  1.00  0.00     0.255 C 
HETATM   24  N   UNL     1      -7.100  -0.458 -33.612  1.00  0.00    -0.064 N 
HETATM   25  H   UNL     1      -7.602  -1.336 -33.433  1.00  0.00     0.280 HD
HETATM   26  C   UNL     1      -7.859   0.302 -34.702  1.00  0.00     0.255 C 
HETATM   27  C   UNL     1      -9.264   0.721 -34.221  1.00  0.00     0.150 C 
BRANCH  24  28
HETATM   28  C   UNL     1      -5.711  -0.820 -34.084  1.00  0.00     0.273 C 
BRANCH  28  29
HETATM   29  C   UNL     1      -5.513  -2.297 -34.280  1.00  0.00    -0.033 A 
HETATM   30  C   UNL     1      -6.542  -3.089 -34.811  1.00  0.00     0.009 A 
HETATM   31  C   UNL     1      -6.363  -4.465 -34.970  1.00  0.00     0.001 A 
HETATM   32  C   UNL     1      -5.160  -5.060 -34.597  1.00  0.00     0.000 A 
HETATM   33  C   UNL     1      -4.131  -4.284 -34.071  1.00  0.00     0.001 A 
HETATM   34  C   UNL     1      -4.304  -2.908 -33.913  1.00  0.00     0.009 A 
ENDBRANCH  28  29
ENDBRANCH  24  28
ENDBRANCH   4  21
TORSDOF 7
ENDMDL
MODEL 8
REMARK VINA RESULT:      -7.3      3.412      9.212
REMARK  7 active torsions:
REMARK  status: ('A' for Active; 'I' for Inactive)
REMARK    1  A    between atoms: C_6  and  O_7 
REMARK    2  A    between atoms: O_7  and  C_8 
REMARK    3  A    between atoms: C_8  and  C_9 
REMARK       I    between atoms: C_9  and  N_10 
REMARK    4  A    between atoms: N_10  and  C_11 
REMARK    5  A    between atoms: C_14  and  N_15 
REMARK    6  A    between atoms: N_18  and  C_20 
REMARK    7  A    between atoms: C_20  and  C_21 
ROOT
HETATM    1  C   UNL     1      -7.045   5.843 -29.584  1.00  0.00     0.034 A 
HETATM    2  C   UNL     1      -6.752   5.898 -30.943  1.00  0.00     0.032 A 
HETATM    3  C   UNL     1      -6.683   4.720 -31.694  1.00  0.00     0.031 A 
HETATM    4  C   UNL     1      -6.926   3.467 -31.115  1.00  0.00     0.030 A 
HETATM    5  C   UNL     1      -7.188   3.423 -29.742  1.00  0.00     0.031 A 
HETATM    6  C   UNL     1      -7.218   4.597 -28.977  1.00  0.00     0.032 A 
ENDROOT
BRANCH   1   7
HETATM    7  N   UNL     1      -7.112   6.988 -28.778  1.00  0.00    -0.325 N 
HETATM    8  C   UNL     1      -6.191   7.511 -27.904  1.00  0.00     0.246 C 
HETATM    9  O   UNL     1      -6.564   8.374 -27.106  1.00  0.00    -0.271 OA
HETATM   10  H   UNL     1      -7.964   7.536 -28.813  1.00  0.00     0.169 HD
BRANCH   8  11
HETATM   11  C   UNL     1      -4.712   7.138 -28.044  1.00  0.00     0.278 C 
BRANCH  11  12
HETATM   12  O   UNL     1      -4.049   7.904 -29.038  1.00  0.00    -0.342 OA
BRANCH  12  13
HETATM   13  C   UNL     1      -2.944   7.302 -29.592  1.00  0.00     0.075 A 
HETATM   14  C   UNL     1      -1.691   7.826 -29.233  1.00  0.00    -0.028 A 
HETATM   15  C   UNL     1      -0.523   7.240 -29.754  1.00  0.00     0.016 A 
HETATM   16  C   UNL     1      -1.582   9.011 -28.315  1.00  0.00     0.051 C 
HETATM   17  C   UNL     1      -0.589   6.136 -30.611  1.00  0.00    -0.061 A 
HETATM   18  C   UNL     1       0.659   5.543 -31.196  1.00  0.00     0.048 C 
HETATM   19  C   UNL     1      -1.841   5.626 -30.960  1.00  0.00     0.009 A 
HETATM   20  C   UNL     1      -3.008   6.196 -30.447  1.00  0.00     0.038 A 
ENDBRANCH  12  13
ENDBRANCH  11  12
ENDBRANCH   8  11
ENDBRANCH   1   7
BRANCH   4  21
HETATM   21  N   UNL     1      -6.900   2.340 -31.940  1.00  0.00    -0.378 N 
HETATM   22  C   UNL     1      -5.542   1.846 -32.232  1.00  0.00     0.150 C 
HETATM   23  C   UNL     1      -5.579   0.960 -33.494  1.00  0.00     0.255 C 
HETATM   24  N   UNL     1      -6.628  -0.154 -33.370  1.00  0.00    -0.064 N 
HETATM   25  H   UNL     1      -6.304  -0.784 -32.627  1.00  0.00     0.280 HD
HETATM   26  C   UNL     1      -7.993   0.400 -32.955  1.00  0.00     0.255 C 
HETATM   27  C   UNL     1      -7.882   1.276 -31.690  1.00  0.00     0.150 C 
BRANCH  24  28
HETATM   28  C   UNL     1      -6.748  -0.972 -34.635  1.00  0.00     0.273 C 
BRANCH  28  29
HETATM   29  C   UNL     1      -6.093  -2.321 -34.538  1.00  0.00    -0.033 A 
HETATM   30  C   UNL     1      -4.759  -2.436 -34.118  1.00  0.00     0.009 A 
HETATM   31  C   UNL     1      -4.146  -3.690 -34.052  1.00  0.00     0.001 A 
HETATM   32  C   UNL     1      -4.856  -4.834 -34.406  1.00  0.00     0.000 A 
HETATM   33  C   UNL     1      -6.182  -4.732 -34.820  1.00  0.00     0.001 A 
HETATM   34  C   UNL     1      -6.800  -3.483 -34.886  1.00  0.00     0.009 A 
ENDBRANCH  28  29
ENDBRANCH  24  28
ENDBRANCH   4  21
TORSDOF 7
ENDMDL
MODEL 9
REMARK VINA RESULT:      -7.3      3.744      9.078
REMARK  7 active torsions:
REMARK  status: ('A' for Active; 'I' for Inactive)
REMARK    1  A    between atoms: C_6  and  O_7 
REMARK    2  A    between atoms: O_7  and  C_8 
REMARK    3  A    between atoms: C_8  and  C_9 
REMARK       I    between atoms: C_9  and  N_10 
REMARK    4  A    between atoms: N_10  and  C_11 
REMARK    5  A    between atoms: C_14  and  N_15 
REMARK    6  A    between atoms: N_18  and  C_20 
REMARK    7  A    between atoms: C_20  and  C_21 
ROOT
HETATM    1  C   UNL     1      -5.443   7.174 -29.223  1.00  0.00     0.034 A 
HETATM    2  C   UNL     1      -5.973   6.064 -28.573  1.00  0.00     0.032 A 
HETATM    3  C   UNL     1      -5.801   4.786 -29.115  1.00  0.00     0.031 A 
HETATM    4  C   UNL     1      -5.083   4.583 -30.301  1.00  0.00     0.030 A 
HETATM    5  C   UNL     1      -4.584   5.711 -30.961  1.00  0.00     0.031 A 
HETATM    6  C   UNL     1      -4.787   6.997 -30.442  1.00  0.00     0.032 A 
ENDROOT
BRANCH   1   7
HETATM    7  N   UNL     1      -5.596   8.479 -28.736  1.00  0.00    -0.325 N 
HETATM    8  C   UNL     1      -4.982   9.109 -27.680  1.00  0.00     0.246 C 
HETATM    9  O   UNL     1      -5.462  10.169 -27.270  1.00  0.00    -0.271 OA
HETATM   10  H   UNL     1      -6.263   9.080 -29.207  1.00  0.00     0.169 HD
BRANCH   8  11
HETATM   11  C   UNL     1      -3.648   8.577 -27.148  1.00  0.00     0.278 C 
BRANCH  11  12
HETATM   12  O   UNL     1      -2.531   9.156 -27.807  1.00  0.00    -0.342 OA
BRANCH  12  13
HETATM   13  C   UNL     1      -1.778   8.278 -28.550  1.00  0.00     0.075 A 
HETATM   14  C   UNL     1      -1.689   8.529 -29.929  1.00  0.00    -0.028 A 
HETATM   15  C   UNL     1      -0.918   7.675 -30.738  1.00  0.00     0.016 A 
HETATM   16  C   UNL     1      -2.418   9.687 -30.553  1.00  0.00     0.051 C 
HETATM   17  C   UNL     1      -0.227   6.588 -30.188  1.00  0.00    -0.061 A 
HETATM   18  C   UNL     1       0.559   5.657 -31.063  1.00  0.00     0.048 C 
HETATM   19  C   UNL     1      -0.325   6.350 -28.817  1.00  0.00     0.009 A 
HETATM   20  C   UNL     1      -1.085   7.193 -28.002  1.00  0.00     0.038 A 
ENDBRANCH  12  13
ENDBRANCH  11  12
ENDBRANCH   8  11
ENDBRANCH   1   7
BRANCH   4  21
HETATM   21  N   UNL     1      -4.900   3.273 -30.749  1.00  0.00    -0.378 N 
HETATM   22  C   UNL     1      -5.862   2.310 -30.182  1.00  0.00     0.150 C 
HETATM   23  C   UNL     1      -5.299   0.880 -30.324  1.00  0.00     0.255 C 
HETATM   24  N   UNL     1      -4.899   0.573 -31.774  1.00  0.00    -0.064 N 
HETATM   25  H   UNL     1      -5.766   0.561 -32.323  1.00  0.00     0.280 HD
HETATM   26  C   UNL     1      -3.992   1.662 -32.352  1.00  0.00     0.255 C 
HETATM   27  C   UNL     1      -4.613   3.063 -32.175  1.00  0.00     0.150 C 
BRANCH  24  28
HETATM   28  C   UNL     1      -4.255  -0.787 -31.915  1.00  0.00     0.273 C 
BRANCH  28  29
HETATM   29  C   UNL     1      -4.845  -1.615 -33.020  1.00  0.00    -0.033 A 
HETATM   30  C   UNL     1      -6.118  -1.318 -33.531  1.00  0.00     0.009 A 
HETATM   31  C   UNL     1      -6.674  -2.104 -34.543  1.00  0.00     0.001 A 
HETATM   32  C   UNL     1      -5.968  -3.193 -35.049  1.00  0.00     0.000 A 
HETATM   33  C   UNL     1      -4.703  -3.495 -34.552  1.00  0.00     0.001 A 
HETATM   34  C   UNL     1      -4.142  -2.711 -33.543  1.00  0.00     0.009 A 
ENDBRANCH  28  29
ENDBRANCH  24  28
ENDBRANCH   4  21
TORSDOF 7
ENDMDL
MODEL 10
REMARK VINA RESULT:      -7.2      2.239      3.483
REMARK  7 active torsions:
REMARK  status: ('A' for Active; 'I' for Inactive)
REMARK    1  A    between atoms: C_6  and  O_7 
REMARK    2  A    between atoms: O_7  and  C_8 
REMARK    3  A    between atoms: C_8  and  C_9 
REMARK       I    between atoms: C_9  and  N_10 
REMARK    4  A    between atoms: N_10  and  C_11 
REMARK    5  A    between atoms: C_14  and  N_15 
REMARK    6  A    between atoms: N_18  and  C_20 
REMARK    7  A    between atoms: C_20  and  C_21 
ROOT
HETATM    1  C   UNL     1      -7.560   2.534 -30.434  1.00  0.00     0.034 A 
HETATM    2  C   UNL     1      -6.192   2.446 -30.193  1.00  0.00     0.032 A 
HETATM    3  C   UNL     1      -5.484   3.571 -29.758  1.00  0.00     0.031 A 
HETATM    4  C   UNL     1      -6.122   4.798 -29.534  1.00  0.00     0.030 A 
HETATM    5  C   UNL     1      -7.490   4.881 -29.811  1.00  0.00     0.031 A 
HETATM    6  C   UNL     1      -8.198   3.767 -30.284  1.00  0.00     0.032 A 
ENDROOT
BRANCH   1   7
HETATM    7  N   UNL     1      -8.320   1.446 -30.885  1.00  0.00    -0.325 N 
HETATM    8  C   UNL     1      -8.738   1.123 -32.153  1.00  0.00     0.246 C 
HETATM    9  O   UNL     1      -9.616   0.266 -32.279  1.00  0.00    -0.271 OA
HETATM   10  H   UNL     1      -8.635   0.775 -30.193  1.00  0.00     0.169 HD
BRANCH   8  11
HETATM   11  C   UNL     1      -8.007   1.703 -33.367  1.00  0.00     0.278 C 
BRANCH  11  12
HETATM   12  O   UNL     1      -6.631   1.354 -33.390  1.00  0.00    -0.342 OA
BRANCH  12  13
HETATM   13  C   UNL     1      -6.368   0.059 -33.770  1.00  0.00     0.075 A 
HETATM   14  C   UNL     1      -5.173  -0.510 -33.298  1.00  0.00    -0.028 A 
HETATM   15  C   UNL     1      -4.859  -1.838 -33.639  1.00  0.00     0.016 A 
HETATM   16  C   UNL     1      -4.220   0.286 -32.450  1.00  0.00     0.051 C 
HETATM   17  C   UNL     1      -5.724  -2.605 -34.427  1.00  0.00    -0.061 A 
HETATM   18  C   UNL     1      -5.362  -4.007 -34.821  1.00  0.00     0.048 C 
HETATM   19  C   UNL     1      -6.908  -2.028 -34.889  1.00  0.00     0.009 A 
HETATM   20  C   UNL     1      -7.233  -0.711 -34.555  1.00  0.00     0.038 A 
ENDBRANCH  12  13
ENDBRANCH  11  12
ENDBRANCH   8  11
ENDBRANCH   1   7
BRANCH   4  21
HETATM   21  N   UNL     1      -5.361   5.861 -29.041  1.00  0.00    -0.378 N 
HETATM   22  C   UNL     1      -4.575   6.560 -30.074  1.00  0.00     0.150 C 
HETATM   23  C   UNL     1      -3.432   7.348 -29.402  1.00  0.00     0.255 C 
HETATM   24  N   UNL     1      -3.959   8.273 -28.296  1.00  0.00    -0.064 N 
HETATM   25  H   UNL     1      -4.527   8.993 -28.758  1.00  0.00     0.280 HD
HETATM   26  C   UNL     1      -4.861   7.521 -27.314  1.00  0.00     0.255 C 
HETATM   27  C   UNL     1      -5.979   6.755 -28.052  1.00  0.00     0.150 C 
BRANCH  24  28
HETATM   28  C   UNL     1      -2.845   8.980 -27.560  1.00  0.00     0.273 C 
BRANCH  28  29
HETATM   29  C   UNL     1      -1.542   8.232 -27.587  1.00  0.00    -0.033 A 
HETATM   30  C   UNL     1      -0.506   8.637 -28.442  1.00  0.00     0.009 A 
HETATM   31  C   UNL     1       0.695   7.924 -28.482  1.00  0.00     0.001 A 
HETATM   32  C   UNL     1       0.869   6.803 -27.675  1.00  0.00     0.000 A 
HETATM   33  C   UNL     1      -0.152   6.394 -26.820  1.00  0.00     0.001 A 
HETATM   34  C   UNL     1      -1.352   7.104 -26.774  1.00  0.00     0.009 A 
ENDBRANCH  28  29
ENDBRANCH  24  28
ENDBRANCH   4  21
TORSDOF 7
ENDMDL
