MODEL 1
REMARK VINA RESULT:     -10.7      0.000      0.000
REMARK  7 active torsions:
REMARK  status: ('A' for Active; 'I' for Inactive)
REMARK    1  A    between atoms: C_2  and  O_3 
REMARK    2  A    between atoms: O_3  and  C_4 
REMARK    3  A    between atoms: C_5  and  C_6 
REMARK    4  A    between atoms: C_9  and  C_10 
REMARK       I    between atoms: C_10  and  N_11 
REMARK    5  A    between atoms: N_11  and  C_12 
REMARK    6  A    between atoms: C_25  and  C_26 
REMARK       I    between atoms: C_26  and  N_27 
REMARK    7  A    between atoms: N_27  and  C_28 
ROOT
HETATM    1  C   UNL     1      -6.049   1.970 -33.612  1.00  0.00     0.188 A 
HETATM    2  N   UNL     1      -5.528   3.349 -33.529  1.00  0.00    -0.239 N 
HETATM    3  C   UNL     1      -4.397   3.715 -32.829  1.00  0.00     0.142 A 
HETATM    4  C   UNL     1      -4.271   5.079 -33.005  1.00  0.00     0.097 A 
HETATM    5  C   UNL     1      -5.384   5.429 -33.809  1.00  0.00     0.160 A 
HETATM    6  N   UNL     1      -6.117   4.378 -34.179  1.00  0.00    -0.181 NA
HETATM    7  N   UNL     1      -3.709   2.766 -32.143  1.00  0.00    -0.343 N 
HETATM    8  C   UNL     1      -4.107   1.427 -32.106  1.00  0.00     0.021 A 
HETATM    9  C   UNL     1      -3.260   0.473 -31.303  1.00  0.00     0.069 C 
HETATM   10  C   UNL     1      -5.207   1.023 -32.782  1.00  0.00     0.061 A 
HETATM   11  H   UNL     1      -2.973   3.016 -31.485  1.00  0.00     0.167 HD
ENDROOT
BRANCH   4  12
HETATM   12  C   UNL     1      -3.272   6.010 -32.514  1.00  0.00     0.261 C 
HETATM   13  N   UNL     1      -2.833   5.731 -31.232  1.00  0.00    -0.323 N 
HETATM   14  H   UNL     1      -3.211   4.891 -30.811  1.00  0.00     0.169 HD
HETATM   15  O   UNL     1      -2.848   6.896 -33.245  1.00  0.00    -0.267 OA
BRANCH  13  16
HETATM   16  C   UNL     1      -1.788   6.373 -30.533  1.00  0.00     0.035 A 
HETATM   17  C   UNL     1      -1.990   7.263 -29.472  1.00  0.00     0.032 A 
HETATM   18  C   UNL     1      -0.903   7.890 -28.853  1.00  0.00     0.044 A 
HETATM   19  C   UNL     1       0.386   7.622 -29.293  1.00  0.00     0.116 A 
HETATM   20  F   UNL     1       1.424   8.230 -28.705  1.00  0.00    -0.206 F 
HETATM   21  C   UNL     1       0.610   6.735 -30.336  1.00  0.00     0.044 A 
HETATM   22  C   UNL     1      -0.477   6.109 -30.955  1.00  0.00     0.032 A 
ENDBRANCH  13  16
ENDBRANCH   4  12
BRANCH   1  23
HETATM   23  C   UNL     1      -7.546   1.961 -33.302  1.00  0.00     0.005 A 
HETATM   24  C   UNL     1      -8.080   2.329 -32.055  1.00  0.00     0.077 A 
HETATM   25  C   UNL     1      -9.460   2.301 -31.831  1.00  0.00     0.037 A 
HETATM   26  C   UNL     1     -10.330   1.954 -32.863  1.00  0.00     0.003 A 
HETATM   27  C   UNL     1      -9.823   1.615 -34.113  1.00  0.00     0.001 A 
HETATM   28  C   UNL     1      -8.445   1.615 -34.331  1.00  0.00     0.012 A 
BRANCH  24  29
HETATM   29  O   UNL     1      -7.216   2.572 -31.016  1.00  0.00    -0.351 OA
BRANCH  29  30
HETATM   30  C   UNL     1      -7.372   3.885 -30.465  1.00  0.00     0.171 C 
HETATM   31  C   UNL     1      -6.099   4.220 -29.709  1.00  0.00     0.034 C 
ENDBRANCH  29  30
ENDBRANCH  24  29
ENDBRANCH   1  23
BRANCH  10  32
HETATM   32  C   UNL     1      -5.642  -0.393 -32.791  1.00  0.00     0.256 C 
HETATM   33  N   UNL     1      -5.313  -1.017 -33.973  1.00  0.00    -0.323 N 
HETATM   34  H   UNL     1      -4.817  -0.448 -34.654  1.00  0.00     0.169 HD
HETATM   35  O   UNL     1      -6.185  -0.864 -31.801  1.00  0.00    -0.267 OA
BRANCH  33  36
HETATM   36  C   UNL     1      -5.379  -2.392 -34.266  1.00  0.00     0.035 A 
HETATM   37  C   UNL     1      -6.502  -3.021 -34.801  1.00  0.00     0.029 A 
HETATM   38  C   UNL     1      -6.498  -4.403 -35.023  1.00  0.00     0.002 A 
HETATM   39  C   UNL     1      -5.374  -5.164 -34.707  1.00  0.00     0.000 A 
HETATM   40  C   UNL     1      -4.246  -4.542 -34.177  1.00  0.00     0.002 A 
HETATM   41  C   UNL     1      -4.248  -3.162 -33.963  1.00  0.00     0.029 A 
ENDBRANCH  33  36
ENDBRANCH  10  32
TORSDOF 7
ENDMDL
MODEL 2
REMARK VINA RESULT:     -10.3      1.336      2.343
REMARK  7 active torsions:
REMARK  status: ('A' for Active; 'I' for Inactive)
REMARK    1  A    between atoms: C_2  and  O_3 
REMARK    2  A    between atoms: O_3  and  C_4 
REMARK    3  A    between atoms: C_5  and  C_6 
REMARK    4  A    between atoms: C_9  and  C_10 
REMARK       I    between atoms: C_10  and  N_11 
REMARK    5  A    between atoms: N_11  and  C_12 
REMARK    6  A    between atoms: C_25  and  C_26 
REMARK       I    between atoms: C_26  and  N_27 
REMARK    7  A    between atoms: N_27  and  C_28 
ROOT
HETATM    1  C   UNL     1      -5.522   2.379 -32.616  1.00  0.00     0.188 A 
HETATM    2  N   UNL     1      -4.733   3.598 -32.353  1.00  0.00    -0.239 N 
HETATM    3  C   UNL     1      -3.467   3.605 -31.804  1.00  0.00     0.142 A 
HETATM    4  C   UNL     1      -3.098   4.934 -31.724  1.00  0.00     0.097 A 
HETATM    5  C   UNL     1      -4.220   5.635 -32.234  1.00  0.00     0.160 A 
HETATM    6  N   UNL     1      -5.190   4.830 -32.671  1.00  0.00    -0.181 NA
HETATM    7  N   UNL     1      -2.894   2.425 -31.453  1.00  0.00    -0.343 N 
HETATM    8  C   UNL     1      -3.539   1.196 -31.614  1.00  0.00     0.021 A 
HETATM    9  C   UNL     1      -2.796  -0.041 -31.179  1.00  0.00     0.069 C 
HETATM   10  C   UNL     1      -4.780   1.143 -32.152  1.00  0.00     0.061 A 
HETATM   11  H   UNL     1      -2.040   2.394 -30.898  1.00  0.00     0.167 HD
ENDROOT
BRANCH   4  12
HETATM   12  C   UNL     1      -1.878   5.551 -31.242  1.00  0.00     0.261 C 
HETATM   13  N   UNL     1      -2.008   6.147 -30.000  1.00  0.00    -0.323 N 
HETATM   14  H   UNL     1      -2.910   6.036 -29.552  1.00  0.00     0.169 HD
HETATM   15  O   UNL     1      -0.845   5.457 -31.891  1.00  0.00    -0.267 OA
BRANCH  13  16
HETATM   16  C   UNL     1      -0.980   6.716 -29.218  1.00  0.00     0.035 A 
HETATM   17  C   UNL     1       0.039   5.975 -28.609  1.00  0.00     0.032 A 
HETATM   18  C   UNL     1       1.003   6.608 -27.816  1.00  0.00     0.044 A 
HETATM   19  C   UNL     1       0.949   7.983 -27.637  1.00  0.00     0.116 A 
HETATM   20  F   UNL     1       1.867   8.586 -26.871  1.00  0.00    -0.206 F 
HETATM   21  C   UNL     1      -0.046   8.739 -28.240  1.00  0.00     0.044 A 
HETATM   22  C   UNL     1      -1.010   8.106 -29.032  1.00  0.00     0.032 A 
ENDBRANCH  13  16
ENDBRANCH   4  12
BRANCH   1  23
HETATM   23  C   UNL     1      -6.935   2.544 -32.056  1.00  0.00     0.005 A 
HETATM   24  C   UNL     1      -8.099   2.368 -32.826  1.00  0.00     0.077 A 
HETATM   25  C   UNL     1      -9.365   2.533 -32.256  1.00  0.00     0.037 A 
HETATM   26  C   UNL     1      -9.490   2.827 -30.899  1.00  0.00     0.003 A 
HETATM   27  C   UNL     1      -8.352   2.976 -30.114  1.00  0.00     0.001 A 
HETATM   28  C   UNL     1      -7.087   2.839 -30.686  1.00  0.00     0.012 A 
BRANCH  24  29
HETATM   29  O   UNL     1      -7.968   2.179 -34.179  1.00  0.00    -0.351 OA
BRANCH  29  30
HETATM   30  C   UNL     1      -8.337   0.856 -34.589  1.00  0.00     0.171 C 
HETATM   31  C   UNL     1      -7.341   0.409 -35.644  1.00  0.00     0.034 C 
ENDBRANCH  29  30
ENDBRANCH  24  29
ENDBRANCH   1  23
BRANCH  10  32
HETATM   32  C   UNL     1      -5.483  -0.143 -32.366  1.00  0.00     0.256 C 
HETATM   33  N   UNL     1      -5.087  -0.749 -33.538  1.00  0.00    -0.323 N 
HETATM   34  H   UNL     1      -4.377  -0.258 -34.075  1.00  0.00     0.169 HD
HETATM   35  O   UNL     1      -6.272  -0.547 -31.524  1.00  0.00    -0.267 OA
BRANCH  33  36
HETATM   36  C   UNL     1      -5.379  -2.056 -33.969  1.00  0.00     0.035 A 
HETATM   37  C   UNL     1      -6.640  -2.475 -34.391  1.00  0.00     0.029 A 
HETATM   38  C   UNL     1      -6.852  -3.807 -34.765  1.00  0.00     0.002 A 
HETATM   39  C   UNL     1      -5.808  -4.728 -34.715  1.00  0.00     0.000 A 
HETATM   40  C   UNL     1      -4.544  -4.316 -34.301  1.00  0.00     0.002 A 
HETATM   41  C   UNL     1      -4.330  -2.985 -33.935  1.00  0.00     0.029 A 
ENDBRANCH  33  36
ENDBRANCH  10  32
TORSDOF 7
ENDMDL
MODEL 3
REMARK VINA RESULT:      -9.7      1.594      2.043
REMARK  7 active torsions:
REMARK  status: ('A' for Active; 'I' for Inactive)
REMARK    1  A    between atoms: C_2  and  O_3 
REMARK    2  A    between atoms: O_3  and  C_4 
REMARK    3  A    between atoms: C_5  and  C_6 
REMARK    4  A    between atoms: C_9  and  C_10 
REMARK       I    between atoms: C_10  and  N_11 
REMARK    5  A    between atoms: N_11  and  C_12 
REMARK    6  A    between atoms: C_25  and  C_26 
REMARK       I    between atoms: C_26  and  N_27 
REMARK    7  A    between atoms: N_27  and  C_28 
ROOT
HETATM    1  C   UNL     1      -4.993   2.808 -32.938  1.00  0.00     0.188 A 
HETATM    2  N   UNL     1      -4.069   3.889 -32.542  1.00  0.00    -0.239 N 
HETATM    3  C   UNL     1      -2.973   3.718 -31.721  1.00  0.00     0.142 A 
HETATM    4  C   UNL     1      -2.392   4.966 -31.602  1.00  0.00     0.097 A 
HETATM    5  C   UNL     1      -3.227   5.811 -32.376  1.00  0.00     0.160 A 
HETATM    6  N   UNL     1      -4.210   5.155 -32.995  1.00  0.00    -0.181 NA
HETATM    7  N   UNL     1      -2.718   2.485 -31.210  1.00  0.00    -0.343 N 
HETATM    8  C   UNL     1      -3.528   1.378 -31.473  1.00  0.00     0.021 A 
HETATM    9  C   UNL     1      -3.138   0.067 -30.841  1.00  0.00     0.069 C 
HETATM   10  C   UNL     1      -4.609   1.501 -32.277  1.00  0.00     0.061 A 
HETATM   11  H   UNL     1      -2.025   2.349 -30.475  1.00  0.00     0.167 HD
ENDROOT
BRANCH   4  12
HETATM   12  C   UNL     1      -1.214   5.397 -30.876  1.00  0.00     0.261 C 
HETATM   13  N   UNL     1      -1.485   6.289 -29.853  1.00  0.00    -0.323 N 
HETATM   14  H   UNL     1      -2.465   6.491 -29.695  1.00  0.00     0.169 HD
HETATM   15  O   UNL     1      -0.118   4.924 -31.148  1.00  0.00    -0.267 OA
BRANCH  13  16
HETATM   16  C   UNL     1      -0.574   6.790 -28.898  1.00  0.00     0.035 A 
HETATM   17  C   UNL     1       0.417   7.735 -29.185  1.00  0.00     0.032 A 
HETATM   18  C   UNL     1       1.309   8.155 -28.192  1.00  0.00     0.044 A 
HETATM   19  C   UNL     1       1.205   7.632 -26.911  1.00  0.00     0.116 A 
HETATM   20  F   UNL     1       2.065   8.029 -25.964  1.00  0.00    -0.206 F 
HETATM   21  C   UNL     1       0.223   6.702 -26.601  1.00  0.00     0.044 A 
HETATM   22  C   UNL     1      -0.668   6.282 -27.594  1.00  0.00     0.032 A 
ENDBRANCH  13  16
ENDBRANCH   4  12
BRANCH   1  23
HETATM   23  C   UNL     1      -6.439   3.256 -32.718  1.00  0.00     0.005 A 
HETATM   24  C   UNL     1      -6.923   3.730 -31.486  1.00  0.00     0.077 A 
HETATM   25  C   UNL     1      -8.257   4.126 -31.346  1.00  0.00     0.037 A 
HETATM   26  C   UNL     1      -9.114   4.101 -32.446  1.00  0.00     0.003 A 
HETATM   27  C   UNL     1      -8.646   3.662 -33.680  1.00  0.00     0.001 A 
HETATM   28  C   UNL     1      -7.322   3.241 -33.815  1.00  0.00     0.012 A 
BRANCH  24  29
HETATM   29  O   UNL     1      -6.104   3.657 -30.386  1.00  0.00    -0.351 OA
BRANCH  29  30
HETATM   30  C   UNL     1      -5.833   4.943 -29.816  1.00  0.00     0.171 C 
HETATM   31  C   UNL     1      -6.557   5.016 -28.484  1.00  0.00     0.034 C 
ENDBRANCH  29  30
ENDBRANCH  24  29
ENDBRANCH   1  23
BRANCH  10  32
HETATM   32  C   UNL     1      -5.474   0.343 -32.603  1.00  0.00     0.256 C 
HETATM   33  N   UNL     1      -4.945  -0.414 -33.625  1.00  0.00    -0.323 N 
HETATM   34  H   UNL     1      -4.053  -0.097 -33.997  1.00  0.00     0.169 HD
HETATM   35  O   UNL     1      -6.494   0.150 -31.957  1.00  0.00    -0.267 OA
BRANCH  33  36
HETATM   36  C   UNL     1      -5.371  -1.681 -34.064  1.00  0.00     0.035 A 
HETATM   37  C   UNL     1      -6.672  -1.967 -34.475  1.00  0.00     0.029 A 
HETATM   38  C   UNL     1      -7.021  -3.267 -34.857  1.00  0.00     0.002 A 
HETATM   39  C   UNL     1      -6.074  -4.289 -34.828  1.00  0.00     0.000 A 
HETATM   40  C   UNL     1      -4.770  -4.010 -34.425  1.00  0.00     0.002 A 
HETATM   41  C   UNL     1      -4.420  -2.711 -34.050  1.00  0.00     0.029 A 
ENDBRANCH  33  36
ENDBRANCH  10  32
TORSDOF 7
ENDMDL
MODEL 4
REMARK VINA RESULT:      -9.4      3.508      9.073
REMARK  7 active torsions:
REMARK  status: ('A' for Active; 'I' for Inactive)
REMARK    1  A    between atoms: C_2  and  O_3 
REMARK    2  A    between atoms: O_3  and  C_4 
REMARK    3  A    between atoms: C_5  and  C_6 
REMARK    4  A    between atoms: C_9  and  C_10 
REMARK       I    between atoms: C_10  and  N_11 
REMARK    5  A    between atoms: N_11  and  C_12 
REMARK    6  A    between atoms: C_25  and  C_26 
REMARK       I    between atoms: C_26  and  N_27 
REMARK    7  A    between atoms: N_27  and  C_28 
ROOT
HETATM    1  C   UNL     1      -4.928   5.219 -30.773  1.00  0.00     0.188 A 
HETATM    2  N   UNL     1      -5.622   4.051 -31.351  1.00  0.00    -0.239 N 
HETATM    3  C   UNL     1      -5.110   3.258 -32.358  1.00  0.00     0.142 A 
HETATM    4  C   UNL     1      -6.069   2.295 -32.603  1.00  0.00     0.097 A 
HETATM    5  C   UNL     1      -7.118   2.613 -31.704  1.00  0.00     0.160 A 
HETATM    6  N   UNL     1      -6.829   3.640 -30.902  1.00  0.00    -0.181 NA
HETATM    7  N   UNL     1      -3.896   3.563 -32.885  1.00  0.00    -0.343 N 
HETATM    8  C   UNL     1      -3.143   4.659 -32.457  1.00  0.00     0.021 A 
HETATM    9  C   UNL     1      -1.813   4.892 -33.128  1.00  0.00     0.069 C 
HETATM   10  C   UNL     1      -3.605   5.461 -31.470  1.00  0.00     0.061 A 
HETATM   11  H   UNL     1      -3.557   3.110 -33.732  1.00  0.00     0.167 HD
ENDROOT
BRANCH   4  12
HETATM   12  C   UNL     1      -6.084   1.189 -33.542  1.00  0.00     0.261 C 
HETATM   13  N   UNL     1      -5.630  -0.002 -33.005  1.00  0.00    -0.323 N 
HETATM   14  H   UNL     1      -5.397   0.020 -32.020  1.00  0.00     0.169 HD
HETATM   15  O   UNL     1      -6.535   1.347 -34.669  1.00  0.00    -0.267 OA
BRANCH  13  16
HETATM   16  C   UNL     1      -5.639  -1.271 -33.624  1.00  0.00     0.035 A 
HETATM   17  C   UNL     1      -4.483  -1.992 -33.944  1.00  0.00     0.032 A 
HETATM   18  C   UNL     1      -4.573  -3.229 -34.593  1.00  0.00     0.044 A 
HETATM   19  C   UNL     1      -5.819  -3.746 -34.916  1.00  0.00     0.116 A 
HETATM   20  F   UNL     1      -5.903  -4.926 -35.544  1.00  0.00    -0.206 F 
HETATM   21  C   UNL     1      -6.979  -3.054 -34.597  1.00  0.00     0.044 A 
HETATM   22  C   UNL     1      -6.889  -1.817 -33.950  1.00  0.00     0.032 A 
ENDBRANCH  13  16
ENDBRANCH   4  12
BRANCH   1  23
HETATM   23  C   UNL     1      -5.876   6.417 -30.730  1.00  0.00     0.005 A 
HETATM   24  C   UNL     1      -6.281   7.041 -29.537  1.00  0.00     0.077 A 
HETATM   25  C   UNL     1      -7.151   8.136 -29.561  1.00  0.00     0.037 A 
HETATM   26  C   UNL     1      -7.590   8.655 -30.778  1.00  0.00     0.003 A 
HETATM   27  C   UNL     1      -7.178   8.070 -31.971  1.00  0.00     0.001 A 
HETATM   28  C   UNL     1      -6.332   6.960 -31.948  1.00  0.00     0.012 A 
BRANCH  24  29
HETATM   29  O   UNL     1      -5.927   6.466 -28.342  1.00  0.00    -0.351 OA
BRANCH  29  30
HETATM   30  C   UNL     1      -5.345   7.404 -27.429  1.00  0.00     0.171 C 
HETATM   31  C   UNL     1      -4.197   6.706 -26.722  1.00  0.00     0.034 C 
ENDBRANCH  29  30
ENDBRANCH  24  29
ENDBRANCH   1  23
BRANCH  10  32
HETATM   32  C   UNL     1      -2.822   6.614 -30.970  1.00  0.00     0.256 C 
HETATM   33  N   UNL     1      -2.243   6.343 -29.750  1.00  0.00    -0.323 N 
HETATM   34  H   UNL     1      -2.410   5.413 -29.374  1.00  0.00     0.169 HD
HETATM   35  O   UNL     1      -2.731   7.624 -31.653  1.00  0.00    -0.267 OA
BRANCH  33  36
HETATM   36  C   UNL     1      -1.275   7.107 -29.070  1.00  0.00     0.035 A 
HETATM   37  C   UNL     1      -1.535   8.340 -28.474  1.00  0.00     0.029 A 
HETATM   38  C   UNL     1      -0.503   9.054 -27.854  1.00  0.00     0.002 A 
HETATM   39  C   UNL     1       0.792   8.541 -27.828  1.00  0.00     0.000 A 
HETATM   40  C   UNL     1       1.058   7.307 -28.416  1.00  0.00     0.002 A 
HETATM   41  C   UNL     1       0.027   6.592 -29.029  1.00  0.00     0.029 A 
ENDBRANCH  33  36
ENDBRANCH  10  32
TORSDOF 7
ENDMDL
MODEL 5
REMARK VINA RESULT:      -9.0      3.382      9.166
REMARK  7 active torsions:
REMARK  status: ('A' for Active; 'I' for Inactive)
REMARK    1  A    between atoms: C_2  and  O_3 
REMARK    2  A    between atoms: O_3  and  C_4 
REMARK    3  A    between atoms: C_5  and  C_6 
REMARK    4  A    between atoms: C_9  and  C_10 
REMARK       I    between atoms: C_10  and  N_11 
REMARK    5  A    between atoms: N_11  and  C_12 
REMARK    6  A    between atoms: C_25  and  C_26 
REMARK       I    between atoms: C_26  and  N_27 
REMARK    7  A    between atoms: N_27  and  C_28 
ROOT
HETATM    1  C   UNL     1      -4.865   4.947 -30.194  1.00  0.00     0.188 A 
HETATM    2  N   UNL     1      -5.485   3.740 -30.775  1.00  0.00    -0.239 N 
HETATM    3  C   UNL     1      -5.064   3.130 -31.939  1.00  0.00     0.142 A 
HETATM    4  C   UNL     1      -5.907   2.052 -32.126  1.00  0.00     0.097 A 
HETATM    5  C   UNL     1      -6.802   2.119 -31.029  1.00  0.00     0.160 A 
HETATM    6  N   UNL     1      -6.516   3.104 -30.176  1.00  0.00    -0.181 NA
HETATM    7  N   UNL     1      -4.025   3.670 -32.628  1.00  0.00    -0.343 N 
HETATM    8  C   UNL     1      -3.367   4.830 -32.212  1.00  0.00     0.021 A 
HETATM    9  C   UNL     1      -2.232   5.330 -33.070  1.00  0.00     0.069 C 
HETATM   10  C   UNL     1      -3.744   5.457 -31.074  1.00  0.00     0.061 A 
HETATM   11  H   UNL     1      -3.791   3.353 -33.568  1.00  0.00     0.167 HD
ENDROOT
BRANCH   4  12
HETATM   12  C   UNL     1      -5.941   1.046 -33.169  1.00  0.00     0.261 C 
HETATM   13  N   UNL     1      -5.535  -0.208 -32.748  1.00  0.00    -0.323 N 
HETATM   14  H   UNL     1      -5.318  -0.291 -31.762  1.00  0.00     0.169 HD
HETATM   15  O   UNL     1      -6.369   1.329 -34.281  1.00  0.00    -0.267 OA
BRANCH  13  16
HETATM   16  C   UNL     1      -5.575  -1.409 -33.489  1.00  0.00     0.035 A 
HETATM   17  C   UNL     1      -4.442  -2.162 -33.817  1.00  0.00     0.032 A 
HETATM   18  C   UNL     1      -4.558  -3.323 -34.589  1.00  0.00     0.044 A 
HETATM   19  C   UNL     1      -5.809  -3.733 -35.028  1.00  0.00     0.116 A 
HETATM   20  F   UNL     1      -5.918  -4.840 -35.774  1.00  0.00    -0.206 F 
HETATM   21  C   UNL     1      -6.947  -3.008 -34.705  1.00  0.00     0.044 A 
HETATM   22  C   UNL     1      -6.831  -1.846 -33.935  1.00  0.00     0.032 A 
ENDBRANCH  13  16
ENDBRANCH   4  12
BRANCH   1  23
HETATM   23  C   UNL     1      -5.948   5.971 -29.850  1.00  0.00     0.005 A 
HETATM   24  C   UNL     1      -6.825   6.519 -30.803  1.00  0.00     0.077 A 
HETATM   25  C   UNL     1      -7.796   7.453 -30.427  1.00  0.00     0.037 A 
HETATM   26  C   UNL     1      -7.939   7.815 -29.089  1.00  0.00     0.003 A 
HETATM   27  C   UNL     1      -7.101   7.262 -28.127  1.00  0.00     0.001 A 
HETATM   28  C   UNL     1      -6.112   6.351 -28.503  1.00  0.00     0.012 A 
BRANCH  24  29
HETATM   29  O   UNL     1      -6.614   6.236 -32.130  1.00  0.00    -0.351 OA
BRANCH  29  30
HETATM   30  C   UNL     1      -7.796   5.764 -32.787  1.00  0.00     0.171 C 
HETATM   31  C   UNL     1      -7.357   4.918 -33.968  1.00  0.00     0.034 C 
ENDBRANCH  29  30
ENDBRANCH  24  29
ENDBRANCH   1  23
BRANCH  10  32
HETATM   32  C   UNL     1      -3.051   6.672 -30.586  1.00  0.00     0.256 C 
HETATM   33  N   UNL     1      -2.282   6.405 -29.475  1.00  0.00    -0.323 N 
HETATM   34  H   UNL     1      -2.280   5.439 -29.157  1.00  0.00     0.169 HD
HETATM   35  O   UNL     1      -3.181   7.726 -31.192  1.00  0.00    -0.267 OA
BRANCH  33  36
HETATM   36  C   UNL     1      -1.335   7.248 -28.863  1.00  0.00     0.035 A 
HETATM   37  C   UNL     1      -1.666   8.325 -28.043  1.00  0.00     0.029 A 
HETATM   38  C   UNL     1      -0.661   9.139 -27.508  1.00  0.00     0.002 A 
HETATM   39  C   UNL     1       0.679   8.883 -27.793  1.00  0.00     0.000 A 
HETATM   40  C   UNL     1       1.018   7.805 -28.607  1.00  0.00     0.002 A 
HETATM   41  C   UNL     1       0.015   6.989 -29.134  1.00  0.00     0.029 A 
ENDBRANCH  33  36
ENDBRANCH  10  32
TORSDOF 7
ENDMDL
MODEL 6
REMARK VINA RESULT:      -9.0      4.805      9.662
REMARK  7 active torsions:
REMARK  status: ('A' for Active; 'I' for Inactive)
REMARK    1  A    between atoms: C_2  and  O_3 
REMARK    2  A    between atoms: O_3  and  C_4 
REMARK    3  A    between atoms: C_5  and  C_6 
REMARK    4  A    between atoms: C_9  and  C_10 
REMARK       I    between atoms: C_10  and  N_11 
REMARK    5  A    between atoms: N_11  and  C_12 
REMARK    6  A    between atoms: C_25  and  C_26 
REMARK       I    between atoms: C_26  and  N_27 
REMARK    7  A    between atoms: N_27  and  C_28 
ROOT
HETATM    1  C   UNL     1      -7.703   2.096 -33.527  1.00  0.00     0.188 A 
HETATM    2  N   UNL     1      -9.105   1.638 -33.495  1.00  0.00    -0.239 N 
HETATM    3  C   UNL     1     -10.201   2.467 -33.627  1.00  0.00     0.142 A 
HETATM    4  C   UNL     1     -11.308   1.646 -33.536  1.00  0.00     0.097 A 
HETATM    5  C   UNL     1     -10.764   0.353 -33.333  1.00  0.00     0.160 A 
HETATM    6  N   UNL     1      -9.430   0.332 -33.367  1.00  0.00    -0.181 NA
HETATM    7  N   UNL     1     -10.003   3.803 -33.776  1.00  0.00    -0.343 N 
HETATM    8  C   UNL     1      -8.730   4.379 -33.789  1.00  0.00     0.021 A 
HETATM    9  C   UNL     1      -8.647   5.875 -33.954  1.00  0.00     0.069 C 
HETATM   10  C   UNL     1      -7.629   3.602 -33.667  1.00  0.00     0.061 A 
HETATM   11  H   UNL     1     -10.776   4.463 -33.710  1.00  0.00     0.167 HD
ENDROOT
BRANCH   4  12
HETATM   12  C   UNL     1     -12.723   1.952 -33.612  1.00  0.00     0.261 C 
HETATM   13  N   UNL     1     -13.262   2.399 -32.419  1.00  0.00    -0.323 N 
HETATM   14  H   UNL     1     -12.605   2.514 -31.656  1.00  0.00     0.169 HD
HETATM   15  O   UNL     1     -13.312   1.868 -34.682  1.00  0.00    -0.267 OA
BRANCH  13  16
HETATM   16  C   UNL     1     -14.568   2.888 -32.206  1.00  0.00     0.035 A 
HETATM   17  C   UNL     1     -15.711   2.080 -32.188  1.00  0.00     0.032 A 
HETATM   18  C   UNL     1     -16.979   2.645 -32.009  1.00  0.00     0.044 A 
HETATM   19  C   UNL     1     -17.102   4.017 -31.843  1.00  0.00     0.116 A 
HETATM   20  F   UNL     1     -18.317   4.557 -31.680  1.00  0.00    -0.206 F 
HETATM   21  C   UNL     1     -15.982   4.836 -31.846  1.00  0.00     0.044 A 
HETATM   22  C   UNL     1     -14.715   4.271 -32.026  1.00  0.00     0.032 A 
ENDBRANCH  13  16
ENDBRANCH   4  12
BRANCH   1  23
HETATM   23  C   UNL     1      -6.938   1.509 -32.339  1.00  0.00     0.005 A 
HETATM   24  C   UNL     1      -5.909   0.561 -32.474  1.00  0.00     0.077 A 
HETATM   25  C   UNL     1      -5.245   0.061 -31.350  1.00  0.00     0.037 A 
HETATM   26  C   UNL     1      -5.565   0.536 -30.079  1.00  0.00     0.003 A 
HETATM   27  C   UNL     1      -6.560   1.495 -29.927  1.00  0.00     0.001 A 
HETATM   28  C   UNL     1      -7.243   1.976 -31.045  1.00  0.00     0.012 A 
BRANCH  24  29
HETATM   29  O   UNL     1      -5.668   0.025 -33.715  1.00  0.00    -0.351 OA
BRANCH  29  30
HETATM   30  C   UNL     1      -6.190  -1.302 -33.852  1.00  0.00     0.171 C 
HETATM   31  C   UNL     1      -5.039  -2.208 -34.254  1.00  0.00     0.034 C 
ENDBRANCH  29  30
ENDBRANCH  24  29
ENDBRANCH   1  23
BRANCH  10  32
HETATM   32  C   UNL     1      -6.263   4.174 -33.707  1.00  0.00     0.256 C 
HETATM   33  N   UNL     1      -5.849   4.586 -32.460  1.00  0.00    -0.323 N 
HETATM   34  H   UNL     1      -6.506   4.434 -31.700  1.00  0.00     0.169 HD
HETATM   35  O   UNL     1      -5.648   4.195 -34.764  1.00  0.00    -0.267 OA
BRANCH  33  36
HETATM   36  C   UNL     1      -4.555   4.984 -32.073  1.00  0.00     0.035 A 
HETATM   37  C   UNL     1      -4.163   6.313 -31.916  1.00  0.00     0.029 A 
HETATM   38  C   UNL     1      -2.844   6.623 -31.569  1.00  0.00     0.002 A 
HETATM   39  C   UNL     1      -1.908   5.608 -31.380  1.00  0.00     0.000 A 
HETATM   40  C   UNL     1      -2.293   4.278 -31.530  1.00  0.00     0.002 A 
HETATM   41  C   UNL     1      -3.612   3.969 -31.869  1.00  0.00     0.029 A 
ENDBRANCH  33  36
ENDBRANCH  10  32
TORSDOF 7
ENDMDL
MODEL 7
REMARK VINA RESULT:      -8.8      2.793      3.810
REMARK  7 active torsions:
REMARK  status: ('A' for Active; 'I' for Inactive)
REMARK    1  A    between atoms: C_2  and  O_3 
REMARK    2  A    between atoms: O_3  and  C_4 
REMARK    3  A    between atoms: C_5  and  C_6 
REMARK    4  A    between atoms: C_9  and  C_10 
REMARK       I    between atoms: C_10  and  N_11 
REMARK    5  A    between atoms: N_11  and  C_12 
REMARK    6  A    between atoms: C_25  and  C_26 
REMARK       I    between atoms: C_26  and  N_27 
REMARK    7  A    between atoms: N_27  and  C_28 
ROOT
HETATM    1  C   UNL     1      -5.408   4.082 -32.960  1.00  0.00     0.188 A 
HETATM    2  N   UNL     1      -4.328   4.917 -32.396  1.00  0.00    -0.239 N 
HETATM    3  C   UNL     1      -3.321   4.443 -31.580  1.00  0.00     0.142 A 
HETATM    4  C   UNL     1      -2.537   5.539 -31.275  1.00  0.00     0.097 A 
HETATM    5  C   UNL     1      -3.172   6.615 -31.944  1.00  0.00     0.160 A 
HETATM    6  N   UNL     1      -4.223   6.236 -32.672  1.00  0.00    -0.181 NA
HETATM    7  N   UNL     1      -3.311   3.128 -31.240  1.00  0.00    -0.343 N 
HETATM    8  C   UNL     1      -4.290   2.230 -31.673  1.00  0.00     0.021 A 
HETATM    9  C   UNL     1      -4.167   0.798 -31.220  1.00  0.00     0.069 C 
HETATM   10  C   UNL     1      -5.292   2.651 -32.478  1.00  0.00     0.061 A 
HETATM   11  H   UNL     1      -2.690   2.773 -30.514  1.00  0.00     0.167 HD
ENDROOT
BRANCH   4  12
HETATM   12  C   UNL     1      -1.337   5.650 -30.468  1.00  0.00     0.261 C 
HETATM   13  N   UNL     1      -1.373   6.693 -29.559  1.00  0.00    -0.323 N 
HETATM   14  H   UNL     1      -2.240   7.215 -29.523  1.00  0.00     0.169 HD
HETATM   15  O   UNL     1      -0.442   4.823 -30.581  1.00  0.00    -0.267 OA
BRANCH  13  16
HETATM   16  C   UNL     1      -0.420   6.982 -28.559  1.00  0.00     0.035 A 
HETATM   17  C   UNL     1      -0.408   6.382 -27.295  1.00  0.00     0.032 A 
HETATM   18  C   UNL     1       0.548   6.750 -26.341  1.00  0.00     0.044 A 
HETATM   19  C   UNL     1       1.495   7.714 -26.655  1.00  0.00     0.116 A 
HETATM   20  F   UNL     1       2.404   8.070 -25.739  1.00  0.00    -0.206 F 
HETATM   21  C   UNL     1       1.510   8.313 -27.907  1.00  0.00     0.044 A 
HETATM   22  C   UNL     1       0.553   7.947 -28.859  1.00  0.00     0.032 A 
ENDBRANCH  13  16
ENDBRANCH   4  12
BRANCH   1  23
HETATM   23  C   UNL     1      -6.761   4.750 -32.715  1.00  0.00     0.005 A 
HETATM   24  C   UNL     1      -7.287   4.986 -31.432  1.00  0.00     0.077 A 
HETATM   25  C   UNL     1      -8.532   5.602 -31.272  1.00  0.00     0.037 A 
HETATM   26  C   UNL     1      -9.248   6.037 -32.387  1.00  0.00     0.003 A 
HETATM   27  C   UNL     1      -8.731   5.839 -33.663  1.00  0.00     0.001 A 
HETATM   28  C   UNL     1      -7.501   5.199 -33.827  1.00  0.00     0.012 A 
BRANCH  24  29
HETATM   29  O   UNL     1      -6.627   4.467 -30.346  1.00  0.00    -0.351 OA
BRANCH  29  30
HETATM   30  C   UNL     1      -6.771   5.279 -29.174  1.00  0.00     0.171 C 
HETATM   31  C   UNL     1      -5.530   6.147 -29.063  1.00  0.00     0.034 C 
ENDBRANCH  29  30
ENDBRANCH  24  29
ENDBRANCH   1  23
BRANCH  10  32
HETATM   32  C   UNL     1      -6.330   1.722 -32.983  1.00  0.00     0.256 C 
HETATM   33  N   UNL     1      -7.524   1.884 -32.316  1.00  0.00    -0.323 N 
HETATM   34  H   UNL     1      -7.539   2.607 -31.600  1.00  0.00     0.169 HD
HETATM   35  O   UNL     1      -6.067   0.969 -33.910  1.00  0.00    -0.267 OA
BRANCH  33  36
HETATM   36  C   UNL     1      -8.775   1.333 -32.649  1.00  0.00     0.035 A 
HETATM   37  C   UNL     1      -9.170   0.038 -32.314  1.00  0.00     0.029 A 
HETATM   38  C   UNL     1     -10.418  -0.446 -32.721  1.00  0.00     0.002 A 
HETATM   39  C   UNL     1     -11.277   0.359 -33.468  1.00  0.00     0.000 A 
HETATM   40  C   UNL     1     -10.892   1.655 -33.801  1.00  0.00     0.002 A 
HETATM   41  C   UNL     1      -9.649   2.140 -33.388  1.00  0.00     0.029 A 
ENDBRANCH  33  36
ENDBRANCH  10  32
TORSDOF 7
ENDMDL
MODEL 8
REMARK VINA RESULT:      -8.5      4.802      9.618
REMARK  7 active torsions:
REMARK  status: ('A' for Active; 'I' for Inactive)
REMARK    1  A    between atoms: C_2  and  O_3 
REMARK    2  A    between atoms: O_3  and  C_4 
REMARK    3  A    between atoms: C_5  and  C_6 
REMARK    4  A    between atoms: C_9  and  C_10 
REMARK       I    between atoms: C_10  and  N_11 
REMARK    5  A    between atoms: N_11  and  C_12 
REMARK    6  A    between atoms: C_25  and  C_26 
REMARK       I    between atoms: C_26  and  N_27 
REMARK    7  A    between atoms: N_27  and  C_28 
ROOT
HETATM    1  C   UNL     1      -7.095   3.194 -32.361  1.00  0.00     0.188 A 
HETATM    2  N   UNL     1      -8.560   3.016 -32.364  1.00  0.00    -0.239 N 
HETATM    3  C   UNL     1      -9.463   3.968 -31.937  1.00  0.00     0.142 A 
HETATM    4  C   UNL     1     -10.713   3.402 -32.100  1.00  0.00     0.097 A 
HETATM    5  C   UNL     1     -10.442   2.109 -32.614  1.00  0.00     0.160 A 
HETATM    6  N   UNL     1      -9.145   1.890 -32.831  1.00  0.00    -0.181 NA
HETATM    7  N   UNL     1      -8.998   5.150 -31.456  1.00  0.00    -0.343 N 
HETATM    8  C   UNL     1      -7.634   5.441 -31.363  1.00  0.00     0.021 A 
HETATM    9  C   UNL     1      -7.249   6.787 -30.806  1.00  0.00     0.069 C 
HETATM   10  C   UNL     1      -6.715   4.538 -31.775  1.00  0.00     0.061 A 
HETATM   11  H   UNL     1      -9.613   5.808 -30.981  1.00  0.00     0.167 HD
ENDROOT
BRANCH   4  12
HETATM   12  C   UNL     1     -12.036   3.932 -31.832  1.00  0.00     0.261 C 
HETATM   13  N   UNL     1     -13.054   3.226 -32.446  1.00  0.00    -0.323 N 
HETATM   14  H   UNL     1     -12.769   2.400 -32.959  1.00  0.00     0.169 HD
HETATM   15  O   UNL     1     -12.174   4.877 -31.065  1.00  0.00    -0.267 OA
BRANCH  13  16
HETATM   16  C   UNL     1     -14.443   3.417 -32.280  1.00  0.00     0.035 A 
HETATM   17  C   UNL     1     -15.046   4.672 -32.141  1.00  0.00     0.032 A 
HETATM   18  C   UNL     1     -16.427   4.780 -31.940  1.00  0.00     0.044 A 
HETATM   19  C   UNL     1     -17.204   3.631 -31.884  1.00  0.00     0.116 A 
HETATM   20  F   UNL     1     -18.524   3.735 -31.684  1.00  0.00    -0.206 F 
HETATM   21  C   UNL     1     -16.628   2.377 -32.031  1.00  0.00     0.044 A 
HETATM   22  C   UNL     1     -15.248   2.270 -32.230  1.00  0.00     0.032 A 
ENDBRANCH  13  16
ENDBRANCH   4  12
BRANCH   1  23
HETATM   23  C   UNL     1      -6.427   1.982 -31.711  1.00  0.00     0.005 A 
HETATM   24  C   UNL     1      -5.707   1.015 -32.435  1.00  0.00     0.077 A 
HETATM   25  C   UNL     1      -5.116  -0.073 -31.784  1.00  0.00     0.037 A 
HETATM   26  C   UNL     1      -5.193  -0.184 -30.396  1.00  0.00     0.003 A 
HETATM   27  C   UNL     1      -5.875   0.778 -29.660  1.00  0.00     0.001 A 
HETATM   28  C   UNL     1      -6.489   1.850 -30.310  1.00  0.00     0.012 A 
BRANCH  24  29
HETATM   29  O   UNL     1      -5.721   1.076 -33.807  1.00  0.00    -0.351 OA
BRANCH  29  30
HETATM   30  C   UNL     1      -6.218  -0.127 -34.406  1.00  0.00     0.171 C 
HETATM   31  C   UNL     1      -7.329   0.264 -35.364  1.00  0.00     0.034 C 
ENDBRANCH  29  30
ENDBRANCH  24  29
ENDBRANCH   1  23
BRANCH  10  32
HETATM   32  C   UNL     1      -5.262   4.823 -31.721  1.00  0.00     0.256 C 
HETATM   33  N   UNL     1      -4.775   5.209 -32.949  1.00  0.00    -0.323 N 
HETATM   34  H   UNL     1      -5.456   5.261 -33.703  1.00  0.00     0.169 HD
HETATM   35  O   UNL     1      -4.669   4.734 -30.655  1.00  0.00    -0.267 OA
BRANCH  33  36
HETATM   36  C   UNL     1      -3.507   5.748 -33.240  1.00  0.00     0.035 A 
HETATM   37  C   UNL     1      -3.017   6.929 -32.683  1.00  0.00     0.029 A 
HETATM   38  C   UNL     1      -1.761   7.417 -33.060  1.00  0.00     0.002 A 
HETATM   39  C   UNL     1      -0.990   6.731 -33.996  1.00  0.00     0.000 A 
HETATM   40  C   UNL     1      -1.471   5.548 -34.553  1.00  0.00     0.002 A 
HETATM   41  C   UNL     1      -2.721   5.057 -34.171  1.00  0.00     0.029 A 
ENDBRANCH  33  36
ENDBRANCH  10  32
TORSDOF 7
ENDMDL
MODEL 9
REMARK VINA RESULT:      -8.4      5.068      8.677
REMARK  7 active torsions:
REMARK  status: ('A' for Active; 'I' for Inactive)
REMARK    1  A    between atoms: C_2  and  O_3 
REMARK    2  A    between atoms: O_3  and  C_4 
REMARK    3  A    between atoms: C_5  and  C_6 
REMARK    4  A    between atoms: C_9  and  C_10 
REMARK       I    between atoms: C_10  and  N_11 
REMARK    5  A    between atoms: N_11  and  C_12 
REMARK    6  A    between atoms: C_25  and  C_26 
REMARK       I    between atoms: C_26  and  N_27 
REMARK    7  A    between atoms: N_27  and  C_28 
ROOT
HETATM    1  C   UNL     1      -8.227   2.673 -31.503  1.00  0.00     0.188 A 
HETATM    2  N   UNL     1      -9.360   3.612 -31.620  1.00  0.00    -0.239 N 
HETATM    3  C   UNL     1     -10.622   3.261 -32.054  1.00  0.00     0.142 A 
HETATM    4  C   UNL     1     -11.368   4.423 -32.020  1.00  0.00     0.097 A 
HETATM    5  C   UNL     1     -10.454   5.408 -31.568  1.00  0.00     0.160 A 
HETATM    6  N   UNL     1      -9.253   4.913 -31.268  1.00  0.00    -0.181 NA
HETATM    7  N   UNL     1     -10.859   1.977 -32.426  1.00  0.00    -0.343 N 
HETATM    8  C   UNL     1      -9.870   0.990 -32.399  1.00  0.00     0.021 A 
HETATM    9  C   UNL     1     -10.261  -0.397 -32.842  1.00  0.00     0.069 C 
HETATM   10  C   UNL     1      -8.620   1.289 -31.976  1.00  0.00     0.061 A 
HETATM   11  H   UNL     1     -11.719   1.713 -32.904  1.00  0.00     0.167 HD
ENDROOT
BRANCH   4  12
HETATM   12  C   UNL     1     -12.758   4.667 -32.354  1.00  0.00     0.261 C 
HETATM   13  N   UNL     1     -13.637   3.775 -31.766  1.00  0.00    -0.323 N 
HETATM   14  H   UNL     1     -13.222   3.100 -31.134  1.00  0.00     0.169 HD
HETATM   15  O   UNL     1     -13.064   5.633 -33.041  1.00  0.00    -0.267 OA
BRANCH  13  16
HETATM   16  C   UNL     1     -15.048   3.825 -31.798  1.00  0.00     0.035 A 
HETATM   17  C   UNL     1     -15.859   2.743 -32.158  1.00  0.00     0.032 A 
HETATM   18  C   UNL     1     -17.251   2.881 -32.203  1.00  0.00     0.044 A 
HETATM   19  C   UNL     1     -17.830   4.100 -31.884  1.00  0.00     0.116 A 
HETATM   20  F   UNL     1     -19.162   4.233 -31.936  1.00  0.00    -0.206 F 
HETATM   21  C   UNL     1     -17.046   5.183 -31.513  1.00  0.00     0.044 A 
HETATM   22  C   UNL     1     -15.655   5.046 -31.469  1.00  0.00     0.032 A 
ENDBRANCH  13  16
ENDBRANCH   4  12
BRANCH   1  23
HETATM   23  C   UNL     1      -6.989   3.268 -32.175  1.00  0.00     0.005 A 
HETATM   24  C   UNL     1      -5.818   3.610 -31.474  1.00  0.00     0.077 A 
HETATM   25  C   UNL     1      -4.716   4.151 -32.144  1.00  0.00     0.037 A 
HETATM   26  C   UNL     1      -4.748   4.312 -33.528  1.00  0.00     0.003 A 
HETATM   27  C   UNL     1      -5.885   3.952 -34.243  1.00  0.00     0.001 A 
HETATM   28  C   UNL     1      -6.996   3.438 -33.573  1.00  0.00     0.012 A 
BRANCH  24  29
HETATM   29  O   UNL     1      -5.830   3.544 -30.103  1.00  0.00    -0.351 OA
BRANCH  29  30
HETATM   30  C   UNL     1      -5.614   4.820 -29.488  1.00  0.00     0.171 C 
HETATM   31  C   UNL     1      -6.861   5.163 -28.694  1.00  0.00     0.034 C 
ENDBRANCH  29  30
ENDBRANCH  24  29
ENDBRANCH   1  23
BRANCH  10  32
HETATM   32  C   UNL     1      -7.554   0.263 -31.904  1.00  0.00     0.256 C 
HETATM   33  N   UNL     1      -7.352  -0.344 -33.123  1.00  0.00    -0.323 N 
HETATM   34  H   UNL     1      -7.930  -0.009 -33.889  1.00  0.00     0.169 HD
HETATM   35  O   UNL     1      -6.961   0.082 -30.850  1.00  0.00    -0.267 OA
BRANCH  33  36
HETATM   36  C   UNL     1      -6.303  -1.209 -33.489  1.00  0.00     0.035 A 
HETATM   37  C   UNL     1      -4.989  -1.070 -33.044  1.00  0.00     0.029 A 
HETATM   38  C   UNL     1      -3.997  -1.950 -33.491  1.00  0.00     0.002 A 
HETATM   39  C   UNL     1      -4.311  -2.970 -34.387  1.00  0.00     0.000 A 
HETATM   40  C   UNL     1      -5.622  -3.118 -34.831  1.00  0.00     0.002 A 
HETATM   41  C   UNL     1      -6.614  -2.244 -34.379  1.00  0.00     0.029 A 
ENDBRANCH  33  36
ENDBRANCH  10  32
TORSDOF 7
ENDMDL
MODEL 10
REMARK VINA RESULT:      -8.1     17.214     18.606
REMARK  7 active torsions:
REMARK  status: ('A' for Active; 'I' for Inactive)
REMARK    1  A    between atoms: C_2  and  O_3 
REMARK    2  A    between atoms: O_3  and  C_4 
REMARK    3  A    between atoms: C_5  and  C_6 
REMARK    4  A    between atoms: C_9  and  C_10 
REMARK       I    between atoms: C_10  and  N_11 
REMARK    5  A    between atoms: N_11  and  C_12 
REMARK    6  A    between atoms: C_25  and  C_26 
REMARK       I    between atoms: C_26  and  N_27 
REMARK    7  A    between atoms: N_27  and  C_28 
ROOT
HETATM    1  C   UNL     1      -5.762 -13.558 -36.042  1.00  0.00     0.188 A 
HETATM    2  N   UNL     1      -5.944 -14.041 -34.659  1.00  0.00    -0.239 N 
HETATM    3  C   UNL     1      -4.948 -14.612 -33.894  1.00  0.00     0.142 A 
HETATM    4  C   UNL     1      -5.535 -14.923 -32.683  1.00  0.00     0.097 A 
HETATM    5  C   UNL     1      -6.883 -14.512 -32.836  1.00  0.00     0.160 A 
HETATM    6  N   UNL     1      -7.124 -13.924 -34.009  1.00  0.00    -0.181 NA
HETATM    7  N   UNL     1      -3.712 -14.774 -34.434  1.00  0.00    -0.343 N 
HETATM    8  C   UNL     1      -3.406 -14.394 -35.743  1.00  0.00     0.021 A 
HETATM    9  C   UNL     1      -1.998 -14.632 -36.224  1.00  0.00     0.069 C 
HETATM   10  C   UNL     1      -4.352 -13.826 -36.526  1.00  0.00     0.061 A 
HETATM   11  H   UNL     1      -3.000 -15.335 -33.969  1.00  0.00     0.167 HD
ENDROOT
BRANCH   4  12
HETATM   12  C   UNL     1      -4.980 -15.530 -31.489  1.00  0.00     0.261 C 
HETATM   13  N   UNL     1      -3.603 -15.433 -31.403  1.00  0.00    -0.323 N 
HETATM   14  H   UNL     1      -3.152 -14.908 -32.143  1.00  0.00     0.169 HD
HETATM   15  O   UNL     1      -5.723 -16.006 -30.640  1.00  0.00    -0.267 OA
BRANCH  13  16
HETATM   16  C   UNL     1      -2.789 -15.813 -30.314  1.00  0.00     0.035 A 
HETATM   17  C   UNL     1      -3.094 -16.864 -29.442  1.00  0.00     0.032 A 
HETATM   18  C   UNL     1      -2.256 -17.156 -28.360  1.00  0.00     0.044 A 
HETATM   19  C   UNL     1      -1.111 -16.400 -28.154  1.00  0.00     0.116 A 
HETATM   20  F   UNL     1      -0.315 -16.676 -27.113  1.00  0.00    -0.206 F 
HETATM   21  C   UNL     1      -0.784 -15.360 -29.013  1.00  0.00     0.044 A 
HETATM   22  C   UNL     1      -1.622 -15.067 -30.093  1.00  0.00     0.032 A 
ENDBRANCH  13  16
ENDBRANCH   4  12
BRANCH   1  23
HETATM   23  C   UNL     1      -6.877 -14.106 -36.934  1.00  0.00     0.005 A 
HETATM   24  C   UNL     1      -7.120 -15.479 -37.114  1.00  0.00     0.077 A 
HETATM   25  C   UNL     1      -8.156 -15.920 -37.943  1.00  0.00     0.037 A 
HETATM   26  C   UNL     1      -8.996 -14.997 -38.565  1.00  0.00     0.003 A 
HETATM   27  C   UNL     1      -8.790 -13.635 -38.376  1.00  0.00     0.001 A 
HETATM   28  C   UNL     1      -7.740 -13.192 -37.571  1.00  0.00     0.012 A 
BRANCH  24  29
HETATM   29  O   UNL     1      -6.230 -16.379 -36.582  1.00  0.00    -0.351 OA
BRANCH  29  30
HETATM   30  C   UNL     1      -6.839 -17.638 -36.269  1.00  0.00     0.171 C 
HETATM   31  C   UNL     1      -7.204 -17.617 -34.796  1.00  0.00     0.034 C 
ENDBRANCH  29  30
ENDBRANCH  24  29
ENDBRANCH   1  23
BRANCH  10  32
HETATM   32  C   UNL     1      -4.057 -13.382 -37.909  1.00  0.00     0.256 C 
HETATM   33  N   UNL     1      -4.183 -14.415 -38.810  1.00  0.00    -0.323 N 
HETATM   34  H   UNL     1      -4.467 -15.312 -38.424  1.00  0.00     0.169 HD
HETATM   35  O   UNL     1      -3.782 -12.210 -38.121  1.00  0.00    -0.267 OA
BRANCH  33  36
HETATM   36  C   UNL     1      -4.181 -14.334 -40.216  1.00  0.00     0.035 A 
HETATM   37  C   UNL     1      -5.287 -13.951 -40.975  1.00  0.00     0.029 A 
HETATM   38  C   UNL     1      -5.212 -13.938 -42.372  1.00  0.00     0.002 A 
HETATM   39  C   UNL     1      -4.035 -14.310 -43.018  1.00  0.00     0.000 A 
HETATM   40  C   UNL     1      -2.925 -14.688 -42.267  1.00  0.00     0.002 A 
HETATM   41  C   UNL     1      -2.998 -14.694 -40.872  1.00  0.00     0.029 A 
ENDBRANCH  33  36
ENDBRANCH  10  32
TORSDOF 7
ENDMDL
