MODEL 1
REMARK VINA RESULT:      -7.9      0.000      0.000
REMARK  3 active torsions:
REMARK  status: ('A' for Active; 'I' for Inactive)
REMARK    1  A    between atoms: C_4  and  N_5 
REMARK       I    between atoms: N_5  and  C_6 
REMARK    2  A    between atoms: C_6  and  C_7 
REMARK    3  A    between atoms: C_7  and  C_8 
ROOT
HETATM    1  C   UNL     1      -8.960   2.578 -32.199  1.00  0.00     0.286 C 
HETATM    2  N   UNL     1      -9.696   3.034 -33.468  1.00  0.00    -0.056 N 
HETATM    3  H   UNL     1      -9.674   4.067 -33.528  1.00  0.00     0.278 HD
HETATM    4  H   UNL     1      -9.171   2.718 -34.296  1.00  0.00     0.278 HD
HETATM    5  C   UNL     1     -11.097   2.500 -33.484  1.00  0.00     0.209 C 
HETATM    6  C   UNL     1     -11.004   0.959 -33.545  1.00  0.00     0.115 C 
HETATM    7  N   UNL     1     -10.197   0.426 -32.449  1.00  0.00    -0.353 N 
HETATM    8  C   UNL     1      -9.054   1.048 -31.991  1.00  0.00     0.249 C 
HETATM    9  O   UNL     1      -8.210   0.406 -31.376  1.00  0.00    -0.271 OA
HETATM   10  C   UNL     1     -11.875   3.066 -34.663  1.00  0.00     0.035 C 
HETATM   11  C   UNL     1     -13.283   2.468 -34.677  1.00  0.00     0.002 C 
HETATM   12  C   UNL     1     -13.249   0.938 -34.713  1.00  0.00     0.002 C 
HETATM   13  C   UNL     1     -12.403   0.341 -33.585  1.00  0.00     0.027 C 
HETATM   14  H   UNL     1     -10.177  -0.584 -32.314  1.00  0.00     0.163 HD
ENDROOT
BRANCH   1  15
HETATM   15  C   UNL     1      -7.510   3.046 -32.243  1.00  0.00     0.146 C 
BRANCH  15  16
HETATM   16  C   UNL     1      -7.129   3.208 -33.685  1.00  0.00     0.224 C 
HETATM   17  N   UNL     1      -6.572   2.238 -34.447  1.00  0.00    -0.327 N 
HETATM   18  H   UNL     1      -6.227   2.620 -35.326  1.00  0.00     0.169 HD
HETATM   19  O   UNL     1      -7.102   4.368 -34.126  1.00  0.00    -0.273 OA
BRANCH  17  20
HETATM   20  C   UNL     1      -6.306   0.871 -34.267  1.00  0.00     0.035 A 
HETATM   21  C   UNL     1      -5.310   0.333 -33.453  1.00  0.00     0.036 A 
HETATM   22  C   UNL     1      -5.130  -1.059 -33.358  1.00  0.00    -0.060 A 
HETATM   23  C   UNL     1      -4.106  -1.640 -32.425  1.00  0.00     0.048 C 
HETATM   24  C   UNL     1      -5.977  -1.914 -34.070  1.00  0.00     0.007 A 
HETATM   25  C   UNL     1      -6.994  -1.390 -34.861  1.00  0.00     0.003 A 
HETATM   26  C   UNL     1      -7.163  -0.008 -34.946  1.00  0.00     0.029 A 
ENDBRANCH  17  20
ENDBRANCH  15  16
ENDBRANCH   1  15
TORSDOF 3
ENDMDL
MODEL 2
REMARK VINA RESULT:      -7.9      3.482      6.108
REMARK  3 active torsions:
REMARK  status: ('A' for Active; 'I' for Inactive)
REMARK    1  A    between atoms: C_4  and  N_5 
REMARK       I    between atoms: N_5  and  C_6 
REMARK    2  A    between atoms: C_6  and  C_7 
REMARK    3  A    between atoms: C_7  and  C_8 
ROOT
HETATM    1  C   UNL     1      -4.549   1.978 -31.149  1.00  0.00     0.286 C 
HETATM    2  N   UNL     1      -3.352   2.340 -32.041  1.00  0.00    -0.056 N 
HETATM    3  H   UNL     1      -2.472   2.173 -31.524  1.00  0.00     0.278 HD
HETATM    4  H   UNL     1      -3.312   1.686 -32.836  1.00  0.00     0.278 HD
HETATM    5  C   UNL     1      -3.463   3.757 -32.518  1.00  0.00     0.209 C 
HETATM    6  C   UNL     1      -4.729   3.852 -33.399  1.00  0.00     0.115 C 
HETATM    7  N   UNL     1      -5.916   3.391 -32.683  1.00  0.00    -0.353 N 
HETATM    8  C   UNL     1      -5.900   2.313 -31.823  1.00  0.00     0.249 C 
HETATM    9  O   UNL     1      -6.941   1.720 -31.561  1.00  0.00    -0.271 OA
HETATM   10  C   UNL     1      -2.212   4.167 -33.282  1.00  0.00     0.035 C 
HETATM   11  C   UNL     1      -2.375   5.599 -33.793  1.00  0.00     0.002 C 
HETATM   12  C   UNL     1      -3.631   5.756 -34.654  1.00  0.00     0.002 C 
HETATM   13  C   UNL     1      -4.897   5.273 -33.942  1.00  0.00     0.027 C 
HETATM   14  H   UNL     1      -6.826   3.532 -33.120  1.00  0.00     0.163 HD
ENDROOT
BRANCH   1  15
HETATM   15  C   UNL     1      -4.473   0.508 -30.751  1.00  0.00     0.146 C 
BRANCH  15  16
HETATM   16  C   UNL     1      -3.318  -0.102 -31.488  1.00  0.00     0.224 C 
HETATM   17  N   UNL     1      -3.433  -0.908 -32.569  1.00  0.00    -0.327 N 
HETATM   18  H   UNL     1      -2.544  -1.353 -32.787  1.00  0.00     0.169 HD
HETATM   19  O   UNL     1      -2.213  -0.059 -30.923  1.00  0.00    -0.273 OA
BRANCH  17  20
HETATM   20  C   UNL     1      -4.499  -1.311 -33.390  1.00  0.00     0.035 A 
HETATM   21  C   UNL     1      -5.518  -0.488 -33.869  1.00  0.00     0.036 A 
HETATM   22  C   UNL     1      -6.543  -1.008 -34.679  1.00  0.00    -0.060 A 
HETATM   23  C   UNL     1      -7.600  -0.107 -35.255  1.00  0.00     0.048 C 
HETATM   24  C   UNL     1      -6.526  -2.362 -35.030  1.00  0.00     0.007 A 
HETATM   25  C   UNL     1      -5.499  -3.185 -34.584  1.00  0.00     0.003 A 
HETATM   26  C   UNL     1      -4.487  -2.659 -33.782  1.00  0.00     0.029 A 
ENDBRANCH  17  20
ENDBRANCH  15  16
ENDBRANCH   1  15
TORSDOF 3
ENDMDL
MODEL 3
REMARK VINA RESULT:      -7.8      2.006      2.722
REMARK  3 active torsions:
REMARK  status: ('A' for Active; 'I' for Inactive)
REMARK    1  A    between atoms: C_4  and  N_5 
REMARK       I    between atoms: N_5  and  C_6 
REMARK    2  A    between atoms: C_6  and  C_7 
REMARK    3  A    between atoms: C_7  and  C_8 
ROOT
HETATM    1  C   UNL     1      -9.135   1.098 -33.816  1.00  0.00     0.286 C 
HETATM    2  N   UNL     1      -9.484   2.145 -34.885  1.00  0.00    -0.056 N 
HETATM    3  H   UNL     1      -8.614   2.564 -35.256  1.00  0.00     0.278 HD
HETATM    4  H   UNL     1      -9.907   1.671 -35.696  1.00  0.00     0.278 HD
HETATM    5  C   UNL     1     -10.412   3.180 -34.323  1.00  0.00     0.209 C 
HETATM    6  C   UNL     1     -11.728   2.465 -33.944  1.00  0.00     0.115 C 
HETATM    7  N   UNL     1     -11.489   1.350 -33.030  1.00  0.00    -0.353 N 
HETATM    8  C   UNL     1     -10.398   0.513 -33.141  1.00  0.00     0.249 C 
HETATM    9  O   UNL     1     -10.428  -0.606 -32.642  1.00  0.00    -0.271 OA
HETATM   10  C   UNL     1     -10.646   4.296 -35.331  1.00  0.00     0.035 C 
HETATM   11  C   UNL     1     -11.631   5.310 -34.746  1.00  0.00     0.002 C 
HETATM   12  C   UNL     1     -12.947   4.649 -34.330  1.00  0.00     0.002 C 
HETATM   13  C   UNL     1     -12.737   3.467 -33.380  1.00  0.00     0.027 C 
HETATM   14  H   UNL     1     -12.296   0.890 -32.611  1.00  0.00     0.163 HD
ENDROOT
BRANCH   1  15
HETATM   15  C   UNL     1      -8.271   0.001 -34.427  1.00  0.00     0.146 C 
BRANCH  15  16
HETATM   16  C   UNL     1      -6.836   0.406 -34.259  1.00  0.00     0.224 C 
HETATM   17  N   UNL     1      -5.799  -0.457 -34.163  1.00  0.00    -0.327 N 
HETATM   18  H   UNL     1      -4.952   0.025 -33.868  1.00  0.00     0.169 HD
HETATM   19  O   UNL     1      -6.626   1.589 -33.947  1.00  0.00    -0.273 OA
BRANCH  17  20
HETATM   20  C   UNL     1      -5.654  -1.847 -34.308  1.00  0.00     0.035 A 
HETATM   21  C   UNL     1      -4.525  -2.590 -33.964  1.00  0.00     0.036 A 
HETATM   22  C   UNL     1      -4.491  -3.982 -34.165  1.00  0.00    -0.060 A 
HETATM   23  C   UNL     1      -3.304  -4.793 -33.727  1.00  0.00     0.048 C 
HETATM   24  C   UNL     1      -5.612  -4.631 -34.692  1.00  0.00     0.007 A 
HETATM   25  C   UNL     1      -6.754  -3.904 -35.009  1.00  0.00     0.003 A 
HETATM   26  C   UNL     1      -6.777  -2.525 -34.805  1.00  0.00     0.029 A 
ENDBRANCH  17  20
ENDBRANCH  15  16
ENDBRANCH   1  15
TORSDOF 3
ENDMDL
MODEL 4
REMARK VINA RESULT:      -7.8      4.191      6.724
REMARK  3 active torsions:
REMARK  status: ('A' for Active; 'I' for Inactive)
REMARK    1  A    between atoms: C_4  and  N_5 
REMARK       I    between atoms: N_5  and  C_6 
REMARK    2  A    between atoms: C_6  and  C_7 
REMARK    3  A    between atoms: C_7  and  C_8 
ROOT
HETATM    1  C   UNL     1      -4.262   0.858 -31.515  1.00  0.00     0.286 C 
HETATM    2  N   UNL     1      -5.066   0.866 -32.824  1.00  0.00    -0.056 N 
HETATM    3  H   UNL     1      -5.878   1.499 -32.727  1.00  0.00     0.278 HD
HETATM    4  H   UNL     1      -4.495   1.292 -33.569  1.00  0.00     0.278 HD
HETATM    5  C   UNL     1      -5.480  -0.526 -33.195  1.00  0.00     0.209 C 
HETATM    6  C   UNL     1      -4.192  -1.337 -33.461  1.00  0.00     0.115 C 
HETATM    7  N   UNL     1      -3.284  -1.292 -32.317  1.00  0.00    -0.353 N 
HETATM    8  C   UNL     1      -3.095  -0.158 -31.556  1.00  0.00     0.249 C 
HETATM    9  O   UNL     1      -2.077  -0.029 -30.886  1.00  0.00    -0.271 OA
HETATM   10  C   UNL     1      -6.397  -0.509 -34.410  1.00  0.00     0.035 C 
HETATM   11  C   UNL     1      -6.764  -1.945 -34.790  1.00  0.00     0.002 C 
HETATM   12  C   UNL     1      -5.521  -2.801 -35.041  1.00  0.00     0.002 C 
HETATM   13  C   UNL     1      -4.538  -2.771 -33.868  1.00  0.00     0.027 C 
HETATM   14  H   UNL     1      -2.464  -1.898 -32.329  1.00  0.00     0.163 HD
ENDROOT
BRANCH   1  15
HETATM   15  C   UNL     1      -3.766   2.265 -31.202  1.00  0.00     0.146 C 
BRANCH  15  16
HETATM   16  C   UNL     1      -4.809   3.231 -31.681  1.00  0.00     0.224 C 
HETATM   17  N   UNL     1      -4.544   4.402 -32.306  1.00  0.00    -0.327 N 
HETATM   18  H   UNL     1      -5.382   4.976 -32.370  1.00  0.00     0.169 HD
HETATM   19  O   UNL     1      -5.963   3.055 -31.261  1.00  0.00    -0.273 OA
BRANCH  17  20
HETATM   20  C   UNL     1      -3.383   5.014 -32.806  1.00  0.00     0.035 A 
HETATM   21  C   UNL     1      -2.417   5.676 -32.049  1.00  0.00     0.036 A 
HETATM   22  C   UNL     1      -1.296   6.261 -32.665  1.00  0.00    -0.060 A 
HETATM   23  C   UNL     1      -0.219   6.910 -31.842  1.00  0.00     0.048 C 
HETATM   24  C   UNL     1      -1.136   6.156 -34.050  1.00  0.00     0.007 A 
HETATM   25  C   UNL     1      -2.077   5.472 -34.811  1.00  0.00     0.003 A 
HETATM   26  C   UNL     1      -3.184   4.895 -34.190  1.00  0.00     0.029 A 
ENDBRANCH  17  20
ENDBRANCH  15  16
ENDBRANCH   1  15
TORSDOF 3
ENDMDL
MODEL 5
REMARK VINA RESULT:      -7.7      2.192      6.491
REMARK  3 active torsions:
REMARK  status: ('A' for Active; 'I' for Inactive)
REMARK    1  A    between atoms: C_4  and  N_5 
REMARK       I    between atoms: N_5  and  C_6 
REMARK    2  A    between atoms: C_6  and  C_7 
REMARK    3  A    between atoms: C_7  and  C_8 
ROOT
HETATM    1  C   UNL     1      -5.267   0.189 -33.555  1.00  0.00     0.286 C 
HETATM    2  N   UNL     1      -4.770  -1.013 -32.737  1.00  0.00    -0.056 N 
HETATM    3  H   UNL     1      -3.941  -0.735 -32.184  1.00  0.00     0.278 HD
HETATM    4  H   UNL     1      -5.480  -1.259 -32.032  1.00  0.00     0.278 HD
HETATM    5  C   UNL     1      -4.482  -2.177 -33.637  1.00  0.00     0.209 C 
HETATM    6  C   UNL     1      -5.816  -2.598 -34.293  1.00  0.00     0.115 C 
HETATM    7  N   UNL     1      -6.449  -1.478 -34.986  1.00  0.00    -0.353 N 
HETATM    8  C   UNL     1      -6.439  -0.190 -34.492  1.00  0.00     0.249 C 
HETATM    9  O   UNL     1      -7.282   0.618 -34.864  1.00  0.00    -0.271 OA
HETATM   10  C   UNL     1      -3.853  -3.320 -32.853  1.00  0.00     0.035 C 
HETATM   11  C   UNL     1      -3.613  -4.506 -33.788  1.00  0.00     0.002 C 
HETATM   12  C   UNL     1      -4.901  -4.950 -34.485  1.00  0.00     0.002 C 
HETATM   13  C   UNL     1      -5.602  -3.800 -35.214  1.00  0.00     0.027 C 
HETATM   14  H   UNL     1      -7.266  -1.670 -35.564  1.00  0.00     0.163 HD
ENDROOT
BRANCH   1  15
HETATM   15  C   UNL     1      -5.649   1.331 -32.619  1.00  0.00     0.146 C 
BRANCH  15  16
HETATM   16  C   UNL     1      -6.291   0.728 -31.406  1.00  0.00     0.224 C 
HETATM   17  N   UNL     1      -7.622   0.728 -31.159  1.00  0.00    -0.327 N 
HETATM   18  H   UNL     1      -7.814   0.438 -30.202  1.00  0.00     0.169 HD
HETATM   19  O   UNL     1      -5.536   0.431 -30.467  1.00  0.00    -0.273 OA
BRANCH  17  20
HETATM   20  C   UNL     1      -8.762   1.101 -31.891  1.00  0.00     0.035 A 
HETATM   21  C   UNL     1      -9.170   2.408 -32.157  1.00  0.00     0.036 A 
HETATM   22  C   UNL     1     -10.340   2.661 -32.896  1.00  0.00    -0.060 A 
HETATM   23  C   UNL     1     -10.739   4.067 -33.245  1.00  0.00     0.048 C 
HETATM   24  C   UNL     1     -11.090   1.589 -33.389  1.00  0.00     0.007 A 
HETATM   25  C   UNL     1     -10.676   0.282 -33.156  1.00  0.00     0.003 A 
HETATM   26  C   UNL     1      -9.514   0.043 -32.423  1.00  0.00     0.029 A 
ENDBRANCH  17  20
ENDBRANCH  15  16
ENDBRANCH   1  15
TORSDOF 3
ENDMDL
MODEL 6
REMARK VINA RESULT:      -7.5      4.671      7.763
REMARK  3 active torsions:
REMARK  status: ('A' for Active; 'I' for Inactive)
REMARK    1  A    between atoms: C_4  and  N_5 
REMARK       I    between atoms: N_5  and  C_6 
REMARK    2  A    between atoms: C_6  and  C_7 
REMARK    3  A    between atoms: C_7  and  C_8 
ROOT
HETATM    1  C   UNL     1      -3.984   4.310 -32.241  1.00  0.00     0.286 C 
HETATM    2  N   UNL     1      -2.605   3.944 -31.671  1.00  0.00    -0.056 N 
HETATM    3  H   UNL     1      -2.721   3.289 -30.879  1.00  0.00     0.278 HD
HETATM    4  H   UNL     1      -2.080   3.405 -32.375  1.00  0.00     0.278 HD
HETATM    5  C   UNL     1      -1.856   5.180 -31.273  1.00  0.00     0.209 C 
HETATM    6  C   UNL     1      -1.610   6.006 -32.556  1.00  0.00     0.115 C 
HETATM    7  N   UNL     1      -2.859   6.291 -33.258  1.00  0.00    -0.353 N 
HETATM    8  C   UNL     1      -3.887   5.376 -33.358  1.00  0.00     0.249 C 
HETATM    9  O   UNL     1      -4.718   5.480 -34.253  1.00  0.00    -0.271 OA
HETATM   10  C   UNL     1      -0.553   4.819 -30.576  1.00  0.00     0.035 C 
HETATM   11  C   UNL     1       0.207   6.098 -30.224  1.00  0.00     0.002 C 
HETATM   12  C   UNL     1       0.457   6.968 -31.458  1.00  0.00     0.002 C 
HETATM   13  C   UNL     1      -0.828   7.280 -32.229  1.00  0.00     0.027 C 
HETATM   14  H   UNL     1      -2.832   6.939 -34.044  1.00  0.00     0.163 HD
ENDROOT
BRANCH   1  15
HETATM   15  C   UNL     1      -4.693   3.053 -32.731  1.00  0.00     0.146 C 
BRANCH  15  16
HETATM   16  C   UNL     1      -5.029   2.223 -31.527  1.00  0.00     0.224 C 
HETATM   17  N   UNL     1      -5.563   0.980 -31.573  1.00  0.00    -0.327 N 
HETATM   18  H   UNL     1      -5.879   0.687 -30.651  1.00  0.00     0.169 HD
HETATM   19  O   UNL     1      -5.041   2.810 -30.434  1.00  0.00    -0.273 OA
BRANCH  17  20
HETATM   20  C   UNL     1      -5.836   0.060 -32.599  1.00  0.00     0.035 A 
HETATM   21  C   UNL     1      -4.980  -0.948 -33.041  1.00  0.00     0.036 A 
HETATM   22  C   UNL     1      -5.360  -1.807 -34.088  1.00  0.00    -0.060 A 
HETATM   23  C   UNL     1      -4.468  -2.939 -34.514  1.00  0.00     0.048 C 
HETATM   24  C   UNL     1      -6.620  -1.664 -34.675  1.00  0.00     0.007 A 
HETATM   25  C   UNL     1      -7.494  -0.682 -34.222  1.00  0.00     0.003 A 
HETATM   26  C   UNL     1      -7.108   0.163 -33.183  1.00  0.00     0.029 A 
ENDBRANCH  17  20
ENDBRANCH  15  16
ENDBRANCH   1  15
TORSDOF 3
ENDMDL
MODEL 7
REMARK VINA RESULT:      -7.5      2.521      6.210
REMARK  3 active torsions:
REMARK  status: ('A' for Active; 'I' for Inactive)
REMARK    1  A    between atoms: C_4  and  N_5 
REMARK       I    between atoms: N_5  and  C_6 
REMARK    2  A    between atoms: C_6  and  C_7 
REMARK    3  A    between atoms: C_7  and  C_8 
ROOT
HETATM    1  C   UNL     1      -5.330  -0.307 -32.318  1.00  0.00     0.286 C 
HETATM    2  N   UNL     1      -5.989  -0.799 -33.615  1.00  0.00    -0.056 N 
HETATM    3  H   UNL     1      -6.959  -0.442 -33.667  1.00  0.00     0.278 HD
HETATM    4  H   UNL     1      -5.513  -0.368 -34.421  1.00  0.00     0.278 HD
HETATM    5  C   UNL     1      -5.935  -2.295 -33.697  1.00  0.00     0.209 C 
HETATM    6  C   UNL     1      -4.447  -2.702 -33.764  1.00  0.00     0.115 C 
HETATM    7  N   UNL     1      -3.690  -2.160 -32.637  1.00  0.00    -0.353 N 
HETATM    8  C   UNL     1      -3.913  -0.898 -32.125  1.00  0.00     0.249 C 
HETATM    9  O   UNL     1      -3.038  -0.334 -31.478  1.00  0.00    -0.271 OA
HETATM   10  C   UNL     1      -6.713  -2.796 -34.905  1.00  0.00     0.035 C 
HETATM   11  C   UNL     1      -6.601  -4.320 -34.985  1.00  0.00     0.002 C 
HETATM   12  C   UNL     1      -5.142  -4.780 -35.030  1.00  0.00     0.002 C 
HETATM   13  C   UNL     1      -4.313  -4.223 -33.871  1.00  0.00     0.027 C 
HETATM   14  H   UNL     1      -2.729  -2.472 -32.508  1.00  0.00     0.163 HD
ENDROOT
BRANCH   1  15
HETATM   15  C   UNL     1      -5.305   1.218 -32.295  1.00  0.00     0.146 C 
BRANCH  15  16
HETATM   16  C   UNL     1      -6.072   1.666 -31.087  1.00  0.00     0.224 C 
HETATM   17  N   UNL     1      -7.407   1.891 -31.062  1.00  0.00    -0.327 N 
HETATM   18  H   UNL     1      -7.679   2.364 -30.203  1.00  0.00     0.169 HD
HETATM   19  O   UNL     1      -5.404   2.085 -30.129  1.00  0.00    -0.273 OA
BRANCH  17  20
HETATM   20  C   UNL     1      -8.459   1.687 -31.970  1.00  0.00     0.035 A 
HETATM   21  C   UNL     1      -8.968   2.634 -32.858  1.00  0.00     0.036 A 
HETATM   22  C   UNL     1     -10.036   2.317 -33.716  1.00  0.00    -0.060 A 
HETATM   23  C   UNL     1     -10.534   3.314 -34.723  1.00  0.00     0.048 C 
HETATM   24  C   UNL     1     -10.578   1.028 -33.696  1.00  0.00     0.007 A 
HETATM   25  C   UNL     1     -10.059   0.066 -32.836  1.00  0.00     0.003 A 
HETATM   26  C   UNL     1      -8.999   0.392 -31.990  1.00  0.00     0.029 A 
ENDBRANCH  17  20
ENDBRANCH  15  16
ENDBRANCH   1  15
TORSDOF 3
ENDMDL
MODEL 8
REMARK VINA RESULT:      -7.5      2.648      5.841
REMARK  3 active torsions:
REMARK  status: ('A' for Active; 'I' for Inactive)
REMARK    1  A    between atoms: C_4  and  N_5 
REMARK       I    between atoms: N_5  and  C_6 
REMARK    2  A    between atoms: C_6  and  C_7 
REMARK    3  A    between atoms: C_7  and  C_8 
ROOT
HETATM    1  C   UNL     1      -6.883   3.347 -33.198  1.00  0.00     0.286 C 
HETATM    2  N   UNL     1      -5.434   2.837 -33.248  1.00  0.00    -0.056 N 
HETATM    3  H   UNL     1      -5.370   1.930 -32.755  1.00  0.00     0.278 HD
HETATM    4  H   UNL     1      -5.185   2.619 -34.223  1.00  0.00     0.278 HD
HETATM    5  C   UNL     1      -4.499   3.858 -32.671  1.00  0.00     0.209 C 
HETATM    6  C   UNL     1      -4.568   5.111 -33.571  1.00  0.00     0.115 C 
HETATM    7  N   UNL     1      -5.939   5.599 -33.708  1.00  0.00    -0.353 N 
HETATM    8  C   UNL     1      -7.025   4.756 -33.821  1.00  0.00     0.249 C 
HETATM    9  O   UNL     1      -8.069   5.162 -34.319  1.00  0.00    -0.271 OA
HETATM   10  C   UNL     1      -3.085   3.303 -32.583  1.00  0.00     0.035 C 
HETATM   11  C   UNL     1      -2.149   4.381 -32.035  1.00  0.00     0.002 C 
HETATM   12  C   UNL     1      -2.196   5.657 -32.878  1.00  0.00     0.002 C 
HETATM   13  C   UNL     1      -3.619   6.194 -33.054  1.00  0.00     0.027 C 
HETATM   14  H   UNL     1      -6.087   6.494 -34.171  1.00  0.00     0.163 HD
ENDROOT
BRANCH   1  15
HETATM   15  C   UNL     1      -7.809   2.342 -33.875  1.00  0.00     0.146 C 
BRANCH  15  16
HETATM   16  C   UNL     1      -8.368   1.449 -32.808  1.00  0.00     0.224 C 
HETATM   17  N   UNL     1      -7.917   0.203 -32.532  1.00  0.00    -0.327 N 
HETATM   18  H   UNL     1      -8.556  -0.284 -31.908  1.00  0.00     0.169 HD
HETATM   19  O   UNL     1      -9.459   1.783 -32.320  1.00  0.00    -0.273 OA
BRANCH  17  20
HETATM   20  C   UNL     1      -6.827  -0.571 -32.964  1.00  0.00     0.035 A 
HETATM   21  C   UNL     1      -5.595  -0.677 -32.321  1.00  0.00     0.036 A 
HETATM   22  C   UNL     1      -4.570  -1.478 -32.855  1.00  0.00    -0.060 A 
HETATM   23  C   UNL     1      -3.269  -1.651 -32.124  1.00  0.00     0.048 C 
HETATM   24  C   UNL     1      -4.799  -2.196 -34.033  1.00  0.00     0.007 A 
HETATM   25  C   UNL     1      -6.034  -2.122 -34.667  1.00  0.00     0.003 A 
HETATM   26  C   UNL     1      -7.043  -1.325 -34.128  1.00  0.00     0.029 A 
ENDBRANCH  17  20
ENDBRANCH  15  16
ENDBRANCH   1  15
TORSDOF 3
ENDMDL
MODEL 9
REMARK VINA RESULT:      -7.3      3.689      6.203
REMARK  3 active torsions:
REMARK  status: ('A' for Active; 'I' for Inactive)
REMARK    1  A    between atoms: C_4  and  N_5 
REMARK       I    between atoms: N_5  and  C_6 
REMARK    2  A    between atoms: C_6  and  C_7 
REMARK    3  A    between atoms: C_7  and  C_8 
ROOT
HETATM    1  C   UNL     1      -6.039   2.725 -32.831  1.00  0.00     0.286 C 
HETATM    2  N   UNL     1      -5.667   1.343 -32.272  1.00  0.00    -0.056 N 
HETATM    3  H   UNL     1      -4.761   1.403 -31.775  1.00  0.00     0.278 HD
HETATM    4  H   UNL     1      -6.344   1.080 -31.541  1.00  0.00     0.278 HD
HETATM    5  C   UNL     1      -5.639   0.323 -33.370  1.00  0.00     0.209 C 
HETATM    6  C   UNL     1      -7.072   0.210 -33.935  1.00  0.00     0.115 C 
HETATM    7  N   UNL     1      -7.581   1.509 -34.370  1.00  0.00    -0.353 N 
HETATM    8  C   UNL     1      -7.329   2.679 -33.683  1.00  0.00     0.249 C 
HETATM    9  O   UNL     1      -8.066   3.648 -33.828  1.00  0.00    -0.271 OA
HETATM   10  C   UNL     1      -5.131  -1.014 -32.849  1.00  0.00     0.035 C 
HETATM   11  C   UNL     1      -5.158  -2.044 -33.980  1.00  0.00     0.002 C 
HETATM   12  C   UNL     1      -6.553  -2.177 -34.594  1.00  0.00     0.002 C 
HETATM   13  C   UNL     1      -7.126  -0.834 -35.052  1.00  0.00     0.027 C 
HETATM   14  H   UNL     1      -8.463   1.535 -34.878  1.00  0.00     0.163 HD
ENDROOT
BRANCH   1  15
HETATM   15  C   UNL     1      -6.158   3.730 -31.691  1.00  0.00     0.146 C 
BRANCH  15  16
HETATM   16  C   UNL     1      -5.060   3.439 -30.712  1.00  0.00     0.224 C 
HETATM   17  N   UNL     1      -3.770   3.814 -30.868  1.00  0.00    -0.327 N 
HETATM   18  H   UNL     1      -3.172   3.353 -30.185  1.00  0.00     0.169 HD
HETATM   19  O   UNL     1      -5.309   2.598 -29.833  1.00  0.00    -0.273 OA
BRANCH  17  20
HETATM   20  C   UNL     1      -3.081   4.623 -31.787  1.00  0.00     0.035 A 
HETATM   21  C   UNL     1      -2.761   5.969 -31.611  1.00  0.00     0.036 A 
HETATM   22  C   UNL     1      -2.074   6.682 -32.610  1.00  0.00    -0.060 A 
HETATM   23  C   UNL     1      -1.665   8.111 -32.389  1.00  0.00     0.048 C 
HETATM   24  C   UNL     1      -1.686   6.027 -33.783  1.00  0.00     0.007 A 
HETATM   25  C   UNL     1      -1.973   4.678 -33.956  1.00  0.00     0.003 A 
HETATM   26  C   UNL     1      -2.653   3.980 -32.958  1.00  0.00     0.029 A 
ENDBRANCH  17  20
ENDBRANCH  15  16
ENDBRANCH   1  15
TORSDOF 3
ENDMDL
MODEL 10
REMARK VINA RESULT:      -7.3      7.670     10.211
REMARK  3 active torsions:
REMARK  status: ('A' for Active; 'I' for Inactive)
REMARK    1  A    between atoms: C_4  and  N_5 
REMARK       I    between atoms: N_5  and  C_6 
REMARK    2  A    between atoms: C_6  and  C_7 
REMARK    3  A    between atoms: C_7  and  C_8 
ROOT
HETATM    1  C   UNL     1      -1.264   5.746 -32.499  1.00  0.00     0.286 C 
HETATM    2  N   UNL     1      -2.319   4.963 -31.705  1.00  0.00    -0.056 N 
HETATM    3  H   UNL     1      -1.849   4.318 -31.046  1.00  0.00     0.278 HD
HETATM    4  H   UNL     1      -2.839   5.614 -31.099  1.00  0.00     0.278 HD
HETATM    5  C   UNL     1      -3.246   4.239 -32.635  1.00  0.00     0.209 C 
HETATM    6  C   UNL     1      -4.001   5.304 -33.460  1.00  0.00     0.115 C 
HETATM    7  N   UNL     1      -3.076   6.201 -34.151  1.00  0.00    -0.353 N 
HETATM    8  C   UNL     1      -1.902   6.648 -33.583  1.00  0.00     0.249 C 
HETATM    9  O   UNL     1      -1.368   7.670 -33.997  1.00  0.00    -0.271 OA
HETATM   10  C   UNL     1      -4.202   3.347 -31.856  1.00  0.00     0.035 C 
HETATM   11  C   UNL     1      -5.161   2.659 -32.828  1.00  0.00     0.002 C 
HETATM   12  C   UNL     1      -5.919   3.670 -33.690  1.00  0.00     0.002 C 
HETATM   13  C   UNL     1      -4.985   4.637 -34.422  1.00  0.00     0.027 C 
HETATM   14  H   UNL     1      -3.460   6.859 -34.828  1.00  0.00     0.163 HD
ENDROOT
BRANCH   1  15
HETATM   15  C   UNL     1      -0.391   6.554 -31.545  1.00  0.00     0.146 C 
BRANCH  15  16
HETATM   16  C   UNL     1      -0.067   5.676 -30.373  1.00  0.00     0.224 C 
HETATM   17  N   UNL     1       0.183   6.125 -29.121  1.00  0.00    -0.327 N 
HETATM   18  H   UNL     1       0.560   5.381 -28.537  1.00  0.00     0.169 HD
HETATM   19  O   UNL     1       0.225   4.497 -30.626  1.00  0.00    -0.273 OA
BRANCH  17  20
HETATM   20  C   UNL     1       0.106   7.377 -28.487  1.00  0.00     0.035 A 
HETATM   21  C   UNL     1      -1.024   8.191 -28.421  1.00  0.00     0.036 A 
HETATM   22  C   UNL     1      -0.979   9.434 -27.765  1.00  0.00    -0.060 A 
HETATM   23  C   UNL     1      -2.215  10.278 -27.631  1.00  0.00     0.048 C 
HETATM   24  C   UNL     1       0.207   9.847 -27.149  1.00  0.00     0.007 A 
HETATM   25  C   UNL     1       1.331   9.029 -27.182  1.00  0.00     0.003 A 
HETATM   26  C   UNL     1       1.274   7.798 -27.835  1.00  0.00     0.029 A 
ENDBRANCH  17  20
ENDBRANCH  15  16
ENDBRANCH   1  15
TORSDOF 3
ENDMDL
