MODEL 1
REMARK VINA RESULT:      -7.7      0.000      0.000
REMARK  5 active torsions:
REMARK  status: ('A' for Active; 'I' for Inactive)
REMARK    1  A    between atoms: C_2  and  C_3 
REMARK       I    between atoms: C_3  and  N_4 
REMARK    2  A    between atoms: N_4  and  C_5 
REMARK    3  A    between atoms: C_5  and  C_6 
REMARK    4  A    between atoms: C_5  and  C_17 
REMARK    5  A    between atoms: C_7  and  O_8 
ROOT
HETATM    1  C   UNL     1      -5.191   2.687 -32.223  1.00  0.00     0.154 C 
ENDROOT
BRANCH   1   2
HETATM    2  N   UNL     1      -6.428   3.305 -31.757  1.00  0.00    -0.348 N 
HETATM    3  C   UNL     1      -6.994   2.995 -30.544  1.00  0.00     0.218 C 
HETATM    4  O   UNL     1      -6.546   2.156 -29.770  1.00  0.00    -0.274 OA
HETATM    5  H   UNL     1      -6.797   4.073 -32.293  1.00  0.00     0.163 HD
BRANCH   3   6
HETATM    6  C   UNL     1      -8.207   3.833 -30.190  1.00  0.00     0.098 C 
HETATM    7  C   UNL     1      -9.523   3.162 -30.543  1.00  0.00     0.014 C 
ENDBRANCH   3   6
ENDBRANCH   1   2
BRANCH   1   8
HETATM    8  C   UNL     1      -5.519   1.386 -32.947  1.00  0.00     0.005 A 
HETATM    9  C   UNL     1      -4.692   0.258 -32.835  1.00  0.00     0.103 A 
HETATM   10  C   UNL     1      -4.940  -0.940 -33.507  1.00  0.00     0.100 A 
HETATM   11  C   UNL     1      -6.076  -1.016 -34.333  1.00  0.00    -0.004 A 
HETATM   12  N   UNL     1      -4.082  -1.972 -33.348  1.00  0.00    -0.257 NA
HETATM   13  C   UNL     1      -6.924   0.096 -34.465  1.00  0.00     0.014 A 
HETATM   14  C   UNL     1      -6.312  -2.219 -35.011  1.00  0.00     0.015 A 
HETATM   15  C   UNL     1      -6.644   1.283 -33.783  1.00  0.00     0.013 A 
HETATM   16  C   UNL     1      -5.433  -3.285 -34.855  1.00  0.00     0.020 A 
HETATM   17  C   UNL     1      -4.343  -3.115 -34.021  1.00  0.00     0.117 A 
BRANCH   9  18
HETATM   18  O   UNL     1      -3.564   0.321 -32.048  1.00  0.00    -0.358 OA
HETATM   19  H   UNL     1      -3.121  -0.543 -32.193  1.00  0.00     0.218 HD
ENDBRANCH   9  18
ENDBRANCH   1   8
BRANCH   1  20
HETATM   20  C   UNL     1      -4.354   3.622 -33.104  1.00  0.00    -0.031 A 
HETATM   21  C   UNL     1      -4.900   4.393 -34.145  1.00  0.00     0.009 A 
HETATM   22  C   UNL     1      -4.086   5.214 -34.930  1.00  0.00     0.001 A 
HETATM   23  C   UNL     1      -2.716   5.277 -34.692  1.00  0.00     0.000 A 
HETATM   24  C   UNL     1      -2.156   4.526 -33.663  1.00  0.00     0.001 A 
HETATM   25  C   UNL     1      -2.967   3.710 -32.873  1.00  0.00     0.009 A 
ENDBRANCH   1  20
TORSDOF 5
ENDMDL
MODEL 2
REMARK VINA RESULT:      -7.6      3.033      5.808
REMARK  5 active torsions:
REMARK  status: ('A' for Active; 'I' for Inactive)
REMARK    1  A    between atoms: C_2  and  C_3 
REMARK       I    between atoms: C_3  and  N_4 
REMARK    2  A    between atoms: N_4  and  C_5 
REMARK    3  A    between atoms: C_5  and  C_6 
REMARK    4  A    between atoms: C_5  and  C_17 
REMARK    5  A    between atoms: C_7  and  O_8 
ROOT
HETATM    1  C   UNL     1      -7.328   0.200 -32.115  1.00  0.00     0.154 C 
ENDROOT
BRANCH   1   2
HETATM    2  N   UNL     1      -6.562   1.381 -31.729  1.00  0.00    -0.348 N 
HETATM    3  C   UNL     1      -6.028   1.533 -30.473  1.00  0.00     0.218 C 
HETATM    4  O   UNL     1      -6.175   0.727 -29.560  1.00  0.00    -0.274 OA
HETATM    5  H   UNL     1      -6.317   2.034 -32.454  1.00  0.00     0.163 HD
BRANCH   3   6
HETATM    6  C   UNL     1      -5.164   2.769 -30.309  1.00  0.00     0.098 C 
HETATM    7  C   UNL     1      -3.968   2.792 -31.243  1.00  0.00     0.014 C 
ENDBRANCH   3   6
ENDBRANCH   1   2
BRANCH   1   8
HETATM    8  C   UNL     1      -8.628   0.639 -32.782  1.00  0.00     0.005 A 
HETATM    9  C   UNL     1      -8.698   1.818 -33.539  1.00  0.00     0.103 A 
HETATM   10  C   UNL     1      -9.874   2.271 -34.139  1.00  0.00     0.100 A 
HETATM   11  C   UNL     1     -11.042   1.504 -33.974  1.00  0.00    -0.004 A 
HETATM   12  N   UNL     1      -9.851   3.425 -34.841  1.00  0.00    -0.257 NA
HETATM   13  C   UNL     1     -11.003   0.319 -33.222  1.00  0.00     0.014 A 
HETATM   14  C   UNL     1     -12.221   1.971 -34.570  1.00  0.00     0.015 A 
HETATM   15  C   UNL     1      -9.810  -0.105 -32.630  1.00  0.00     0.013 A 
HETATM   16  C   UNL     1     -12.206   3.159 -35.293  1.00  0.00     0.020 A 
HETATM   17  C   UNL     1     -11.009   3.843 -35.399  1.00  0.00     0.117 A 
BRANCH   9  18
HETATM   18  O   UNL     1      -7.570   2.592 -33.694  1.00  0.00    -0.358 OA
HETATM   19  H   UNL     1      -7.147   2.243 -34.508  1.00  0.00     0.218 HD
ENDBRANCH   9  18
ENDBRANCH   1   8
BRANCH   1  20
HETATM   20  C   UNL     1      -6.534  -0.758 -33.011  1.00  0.00    -0.031 A 
HETATM   21  C   UNL     1      -7.129  -1.549 -34.009  1.00  0.00     0.009 A 
HETATM   22  C   UNL     1      -6.359  -2.422 -34.783  1.00  0.00     0.001 A 
HETATM   23  C   UNL     1      -4.986  -2.520 -34.573  1.00  0.00     0.000 A 
HETATM   24  C   UNL     1      -4.377  -1.741 -33.594  1.00  0.00     0.001 A 
HETATM   25  C   UNL     1      -5.143  -0.866 -32.823  1.00  0.00     0.009 A 
ENDBRANCH   1  20
TORSDOF 5
ENDMDL
MODEL 3
REMARK VINA RESULT:      -7.6      2.438      4.618
REMARK  5 active torsions:
REMARK  status: ('A' for Active; 'I' for Inactive)
REMARK    1  A    between atoms: C_2  and  C_3 
REMARK       I    between atoms: C_3  and  N_4 
REMARK    2  A    between atoms: N_4  and  C_5 
REMARK    3  A    between atoms: C_5  and  C_6 
REMARK    4  A    between atoms: C_5  and  C_17 
REMARK    5  A    between atoms: C_7  and  O_8 
ROOT
HETATM    1  C   UNL     1      -6.060   1.159 -33.683  1.00  0.00     0.154 C 
ENDROOT
BRANCH   1   2
HETATM    2  N   UNL     1      -5.494   2.276 -32.932  1.00  0.00    -0.348 N 
HETATM    3  C   UNL     1      -5.489   3.561 -33.416  1.00  0.00     0.218 C 
HETATM    4  O   UNL     1      -5.912   3.882 -34.522  1.00  0.00    -0.274 OA
HETATM    5  H   UNL     1      -5.221   2.104 -31.978  1.00  0.00     0.163 HD
BRANCH   3   6
HETATM    6  C   UNL     1      -4.969   4.594 -32.435  1.00  0.00     0.098 C 
HETATM    7  C   UNL     1      -4.378   3.982 -31.177  1.00  0.00     0.014 C 
ENDBRANCH   3   6
ENDBRANCH   1   2
BRANCH   1   8
HETATM    8  C   UNL     1      -5.277  -0.110 -33.365  1.00  0.00     0.005 A 
HETATM    9  C   UNL     1      -5.459  -1.286 -34.108  1.00  0.00     0.103 A 
HETATM   10  C   UNL     1      -4.786  -2.477 -33.829  1.00  0.00     0.100 A 
HETATM   11  C   UNL     1      -3.882  -2.493 -32.751  1.00  0.00    -0.004 A 
HETATM   12  N   UNL     1      -5.032  -3.565 -34.592  1.00  0.00    -0.257 NA
HETATM   13  C   UNL     1      -3.679  -1.331 -31.989  1.00  0.00     0.014 A 
HETATM   14  C   UNL     1      -3.219  -3.694 -32.471  1.00  0.00     0.015 A 
HETATM   15  C   UNL     1      -4.372  -0.156 -32.291  1.00  0.00     0.013 A 
HETATM   16  C   UNL     1      -3.468  -4.819 -33.250  1.00  0.00     0.020 A 
HETATM   17  C   UNL     1      -4.373  -4.706 -34.288  1.00  0.00     0.117 A 
BRANCH   9  18
HETATM   18  O   UNL     1      -6.355  -1.296 -35.154  1.00  0.00    -0.358 OA
HETATM   19  H   UNL     1      -6.209  -2.164 -35.588  1.00  0.00     0.218 HD
ENDBRANCH   9  18
ENDBRANCH   1   8
BRANCH   1  20
HETATM   20  C   UNL     1      -7.560   0.971 -33.429  1.00  0.00    -0.031 A 
HETATM   21  C   UNL     1      -8.077   0.418 -32.244  1.00  0.00     0.009 A 
HETATM   22  C   UNL     1      -9.454   0.249 -32.073  1.00  0.00     0.001 A 
HETATM   23  C   UNL     1     -10.336   0.627 -33.082  1.00  0.00     0.000 A 
HETATM   24  C   UNL     1      -9.846   1.181 -34.261  1.00  0.00     0.001 A 
HETATM   25  C   UNL     1      -8.472   1.355 -34.431  1.00  0.00     0.009 A 
ENDBRANCH   1  20
TORSDOF 5
ENDMDL
MODEL 4
REMARK VINA RESULT:      -7.6      2.151      4.520
REMARK  5 active torsions:
REMARK  status: ('A' for Active; 'I' for Inactive)
REMARK    1  A    between atoms: C_2  and  C_3 
REMARK       I    between atoms: C_3  and  N_4 
REMARK    2  A    between atoms: N_4  and  C_5 
REMARK    3  A    between atoms: C_5  and  C_6 
REMARK    4  A    between atoms: C_5  and  C_17 
REMARK    5  A    between atoms: C_7  and  O_8 
ROOT
HETATM    1  C   UNL     1      -6.607   0.996 -34.025  1.00  0.00     0.154 C 
ENDROOT
BRANCH   1   2
HETATM    2  N   UNL     1      -5.921   1.822 -33.037  1.00  0.00    -0.348 N 
HETATM    3  C   UNL     1      -5.679   3.160 -33.236  1.00  0.00     0.218 C 
HETATM    4  O   UNL     1      -5.972   3.767 -34.261  1.00  0.00    -0.274 OA
HETATM    5  H   UNL     1      -5.743   1.416 -32.133  1.00  0.00     0.163 HD
BRANCH   3   6
HETATM    6  C   UNL     1      -5.067   3.867 -32.042  1.00  0.00     0.098 C 
HETATM    7  C   UNL     1      -3.656   3.402 -31.729  1.00  0.00     0.014 C 
ENDBRANCH   3   6
ENDBRANCH   1   2
BRANCH   1   8
HETATM    8  C   UNL     1      -5.994  -0.401 -34.026  1.00  0.00     0.005 A 
HETATM    9  C   UNL     1      -5.066  -0.791 -33.050  1.00  0.00     0.103 A 
HETATM   10  C   UNL     1      -4.457  -2.048 -33.034  1.00  0.00     0.100 A 
HETATM   11  C   UNL     1      -4.796  -2.963 -34.047  1.00  0.00    -0.004 A 
HETATM   12  N   UNL     1      -3.566  -2.334 -32.060  1.00  0.00    -0.257 NA
HETATM   13  C   UNL     1      -5.723  -2.601 -35.039  1.00  0.00     0.014 A 
HETATM   14  C   UNL     1      -4.174  -4.218 -34.030  1.00  0.00     0.015 A 
HETATM   15  C   UNL     1      -6.310  -1.333 -35.029  1.00  0.00     0.013 A 
HETATM   16  C   UNL     1      -3.254  -4.519 -33.032  1.00  0.00     0.020 A 
HETATM   17  C   UNL     1      -2.985  -3.554 -32.079  1.00  0.00     0.117 A 
BRANCH   9  18
HETATM   18  O   UNL     1      -4.706   0.098 -32.062  1.00  0.00    -0.358 OA
HETATM   19  H   UNL     1      -5.560   0.451 -31.733  1.00  0.00     0.218 HD
ENDBRANCH   9  18
ENDBRANCH   1   8
BRANCH   1  20
HETATM   20  C   UNL     1      -8.124   0.941 -33.807  1.00  0.00    -0.031 A 
HETATM   21  C   UNL     1      -9.023   1.827 -34.425  1.00  0.00     0.009 A 
HETATM   22  C   UNL     1     -10.396   1.745 -34.172  1.00  0.00     0.001 A 
HETATM   23  C   UNL     1     -10.891   0.781 -33.299  1.00  0.00     0.000 A 
HETATM   24  C   UNL     1     -10.019  -0.110 -32.681  1.00  0.00     0.001 A 
HETATM   25  C   UNL     1      -8.648  -0.033 -32.935  1.00  0.00     0.009 A 
ENDBRANCH   1  20
TORSDOF 5
ENDMDL
MODEL 5
REMARK VINA RESULT:      -7.5      3.341      5.952
REMARK  5 active torsions:
REMARK  status: ('A' for Active; 'I' for Inactive)
REMARK    1  A    between atoms: C_2  and  C_3 
REMARK       I    between atoms: C_3  and  N_4 
REMARK    2  A    between atoms: N_4  and  C_5 
REMARK    3  A    between atoms: C_5  and  C_6 
REMARK    4  A    between atoms: C_5  and  C_17 
REMARK    5  A    between atoms: C_7  and  O_8 
ROOT
HETATM    1  C   UNL     1      -7.461   0.471 -32.286  1.00  0.00     0.154 C 
ENDROOT
BRANCH   1   2
HETATM    2  N   UNL     1      -6.578   1.542 -31.832  1.00  0.00    -0.348 N 
HETATM    3  C   UNL     1      -5.985   1.532 -30.593  1.00  0.00     0.218 C 
HETATM    4  O   UNL     1      -6.170   0.662 -29.749  1.00  0.00    -0.274 OA
HETATM    5  H   UNL     1      -6.302   2.236 -32.508  1.00  0.00     0.163 HD
BRANCH   3   6
HETATM    6  C   UNL     1      -5.008   2.669 -30.361  1.00  0.00     0.098 C 
HETATM    7  C   UNL     1      -3.725   2.529 -31.159  1.00  0.00     0.014 C 
ENDBRANCH   3   6
ENDBRANCH   1   2
BRANCH   1   8
HETATM    8  C   UNL     1      -8.647   1.078 -33.028  1.00  0.00     0.005 A 
HETATM    9  C   UNL     1      -9.930   0.518 -32.936  1.00  0.00     0.103 A 
HETATM   10  C   UNL     1     -11.035   1.023 -33.623  1.00  0.00     0.100 A 
HETATM   11  C   UNL     1     -10.847   2.149 -34.446  1.00  0.00    -0.004 A 
HETATM   12  N   UNL     1     -12.232   0.412 -33.483  1.00  0.00    -0.257 NA
HETATM   13  C   UNL     1      -9.575   2.732 -34.558  1.00  0.00     0.014 A 
HETATM   14  C   UNL     1     -11.959   2.644 -35.141  1.00  0.00     0.015 A 
HETATM   15  C   UNL     1      -8.488   2.199 -33.860  1.00  0.00     0.013 A 
HETATM   16  C   UNL     1     -13.194   2.019 -35.004  1.00  0.00     0.020 A 
HETATM   17  C   UNL     1     -13.279   0.918 -34.172  1.00  0.00     0.117 A 
BRANCH   9  18
HETATM   18  O   UNL     1     -10.129  -0.597 -32.152  1.00  0.00    -0.358 OA
HETATM   19  H   UNL     1      -9.981  -1.351 -32.763  1.00  0.00     0.218 HD
ENDBRANCH   9  18
ENDBRANCH   1   8
BRANCH   1  20
HETATM   20  C   UNL     1      -6.738  -0.573 -33.144  1.00  0.00    -0.031 A 
HETATM   21  C   UNL     1      -7.409  -1.472 -33.990  1.00  0.00     0.009 A 
HETATM   22  C   UNL     1      -6.700  -2.419 -34.735  1.00  0.00     0.001 A 
HETATM   23  C   UNL     1      -5.313  -2.484 -34.647  1.00  0.00     0.000 A 
HETATM   24  C   UNL     1      -4.628  -1.599 -33.820  1.00  0.00     0.001 A 
HETATM   25  C   UNL     1      -5.333  -0.650 -33.079  1.00  0.00     0.009 A 
ENDBRANCH   1  20
TORSDOF 5
ENDMDL
MODEL 6
REMARK VINA RESULT:      -7.4      2.338      5.813
REMARK  5 active torsions:
REMARK  status: ('A' for Active; 'I' for Inactive)
REMARK    1  A    between atoms: C_2  and  C_3 
REMARK       I    between atoms: C_3  and  N_4 
REMARK    2  A    between atoms: N_4  and  C_5 
REMARK    3  A    between atoms: C_5  and  C_6 
REMARK    4  A    between atoms: C_5  and  C_17 
REMARK    5  A    between atoms: C_7  and  O_8 
ROOT
HETATM    1  C   UNL     1      -6.740   2.683 -33.101  1.00  0.00     0.154 C 
ENDROOT
BRANCH   1   2
HETATM    2  N   UNL     1      -7.456   2.898 -31.848  1.00  0.00    -0.348 N 
HETATM    3  C   UNL     1      -8.161   4.048 -31.591  1.00  0.00     0.218 C 
HETATM    4  O   UNL     1      -8.221   5.004 -32.358  1.00  0.00    -0.274 OA
HETATM    5  H   UNL     1      -7.534   2.117 -31.216  1.00  0.00     0.163 HD
BRANCH   3   6
HETATM    6  C   UNL     1      -8.935   4.027 -30.287  1.00  0.00     0.098 C 
HETATM    7  C   UNL     1     -10.418   3.760 -30.474  1.00  0.00     0.014 C 
ENDBRANCH   3   6
ENDBRANCH   1   2
BRANCH   1   8
HETATM    8  C   UNL     1      -5.335   3.266 -32.985  1.00  0.00     0.005 A 
HETATM    9  C   UNL     1      -4.982   4.457 -33.637  1.00  0.00     0.103 A 
HETATM   10  C   UNL     1      -3.700   5.006 -33.583  1.00  0.00     0.100 A 
HETATM   11  C   UNL     1      -2.719   4.330 -32.835  1.00  0.00    -0.004 A 
HETATM   12  N   UNL     1      -3.447   6.152 -34.252  1.00  0.00    -0.257 NA
HETATM   13  C   UNL     1      -3.042   3.136 -32.170  1.00  0.00     0.014 A 
HETATM   14  C   UNL     1      -1.432   4.882 -32.793  1.00  0.00     0.015 A 
HETATM   15  C   UNL     1      -4.334   2.609 -32.249  1.00  0.00     0.013 A 
HETATM   16  C   UNL     1      -1.163   6.061 -33.481  1.00  0.00     0.020 A 
HETATM   17  C   UNL     1      -2.193   6.652 -34.189  1.00  0.00     0.117 A 
BRANCH   9  18
HETATM   18  O   UNL     1      -5.923   5.121 -34.391  1.00  0.00    -0.358 OA
HETATM   19  H   UNL     1      -5.541   6.016 -34.521  1.00  0.00     0.218 HD
ENDBRANCH   9  18
ENDBRANCH   1   8
BRANCH   1  20
HETATM   20  C   UNL     1      -6.701   1.208 -33.519  1.00  0.00    -0.031 A 
HETATM   21  C   UNL     1      -6.403   0.163 -32.628  1.00  0.00     0.009 A 
HETATM   22  C   UNL     1      -6.361  -1.163 -33.069  1.00  0.00     0.001 A 
HETATM   23  C   UNL     1      -6.613  -1.466 -34.404  1.00  0.00     0.000 A 
HETATM   24  C   UNL     1      -6.916  -0.447 -35.301  1.00  0.00     0.001 A 
HETATM   25  C   UNL     1      -6.963   0.877 -34.863  1.00  0.00     0.009 A 
ENDBRANCH   1  20
TORSDOF 5
ENDMDL
MODEL 7
REMARK VINA RESULT:      -7.3     15.538     16.699
REMARK  5 active torsions:
REMARK  status: ('A' for Active; 'I' for Inactive)
REMARK    1  A    between atoms: C_2  and  C_3 
REMARK       I    between atoms: C_3  and  N_4 
REMARK    2  A    between atoms: N_4  and  C_5 
REMARK    3  A    between atoms: C_5  and  C_6 
REMARK    4  A    between atoms: C_5  and  C_17 
REMARK    5  A    between atoms: C_7  and  O_8 
ROOT
HETATM    1  C   UNL     1      -6.979 -13.470 -37.477  1.00  0.00     0.154 C 
ENDROOT
BRANCH   1   2
HETATM    2  N   UNL     1      -7.142 -14.503 -36.458  1.00  0.00    -0.348 N 
HETATM    3  C   UNL     1      -6.866 -14.278 -35.132  1.00  0.00     0.218 C 
HETATM    4  O   UNL     1      -6.425 -13.223 -34.689  1.00  0.00    -0.274 OA
HETATM    5  H   UNL     1      -7.595 -15.360 -36.733  1.00  0.00     0.163 HD
BRANCH   3   6
HETATM    6  C   UNL     1      -7.218 -15.437 -34.218  1.00  0.00     0.098 C 
HETATM    7  C   UNL     1      -6.792 -15.215 -32.778  1.00  0.00     0.014 C 
ENDBRANCH   3   6
ENDBRANCH   1   2
BRANCH   1   8
HETATM    8  C   UNL     1      -5.677 -13.712 -38.235  1.00  0.00     0.005 A 
HETATM    9  C   UNL     1      -4.469 -13.135 -37.815  1.00  0.00     0.103 A 
HETATM   10  C   UNL     1      -3.264 -13.305 -38.497  1.00  0.00     0.100 A 
HETATM   11  C   UNL     1      -3.266 -14.095 -39.662  1.00  0.00    -0.004 A 
HETATM   12  N   UNL     1      -2.150 -12.703 -38.026  1.00  0.00    -0.257 NA
HETATM   13  C   UNL     1      -4.460 -14.686 -40.107  1.00  0.00     0.014 A 
HETATM   14  C   UNL     1      -2.054 -14.253 -40.347  1.00  0.00     0.015 A 
HETATM   15  C   UNL     1      -5.651 -14.492 -39.403  1.00  0.00     0.013 A 
HETATM   16  C   UNL     1      -0.904 -13.634 -39.869  1.00  0.00     0.020 A 
HETATM   17  C   UNL     1      -1.002 -12.877 -38.717  1.00  0.00     0.117 A 
BRANCH   9  18
HETATM   18  O   UNL     1      -4.452 -12.342 -36.689  1.00  0.00    -0.358 OA
HETATM   19  H   UNL     1      -3.921 -11.560 -36.954  1.00  0.00     0.218 HD
ENDBRANCH   9  18
ENDBRANCH   1   8
BRANCH   1  20
HETATM   20  C   UNL     1      -8.175 -13.381 -38.432  1.00  0.00    -0.031 A 
HETATM   21  C   UNL     1      -9.055 -14.452 -38.665  1.00  0.00     0.009 A 
HETATM   22  C   UNL     1     -10.118 -14.321 -39.563  1.00  0.00     0.001 A 
HETATM   23  C   UNL     1     -10.318 -13.123 -40.243  1.00  0.00     0.000 A 
HETATM   24  C   UNL     1      -9.462 -12.049 -40.023  1.00  0.00     0.001 A 
HETATM   25  C   UNL     1      -8.403 -12.175 -39.122  1.00  0.00     0.009 A 
ENDBRANCH   1  20
TORSDOF 5
ENDMDL
MODEL 8
REMARK VINA RESULT:      -7.1      5.557      8.981
REMARK  5 active torsions:
REMARK  status: ('A' for Active; 'I' for Inactive)
REMARK    1  A    between atoms: C_2  and  C_3 
REMARK       I    between atoms: C_3  and  N_4 
REMARK    2  A    between atoms: N_4  and  C_5 
REMARK    3  A    between atoms: C_5  and  C_6 
REMARK    4  A    between atoms: C_5  and  C_17 
REMARK    5  A    between atoms: C_7  and  O_8 
ROOT
HETATM    1  C   UNL     1      -2.885   6.864 -30.766  1.00  0.00     0.154 C 
ENDROOT
BRANCH   1   2
HETATM    2  N   UNL     1      -3.708   5.930 -30.003  1.00  0.00    -0.348 N 
HETATM    3  C   UNL     1      -4.964   6.256 -29.551  1.00  0.00     0.218 C 
HETATM    4  O   UNL     1      -5.487   7.355 -29.703  1.00  0.00    -0.274 OA
HETATM    5  H   UNL     1      -3.385   4.979 -29.928  1.00  0.00     0.163 HD
BRANCH   3   6
HETATM    6  C   UNL     1      -5.704   5.110 -28.889  1.00  0.00     0.098 C 
HETATM    7  C   UNL     1      -5.826   3.883 -29.775  1.00  0.00     0.014 C 
ENDBRANCH   3   6
ENDBRANCH   1   2
BRANCH   1   8
HETATM    8  C   UNL     1      -1.695   7.296 -29.915  1.00  0.00     0.005 A 
HETATM    9  C   UNL     1      -1.807   8.331 -28.974  1.00  0.00     0.103 A 
HETATM   10  C   UNL     1      -0.735   8.777 -28.199  1.00  0.00     0.100 A 
HETATM   11  C   UNL     1       0.515   8.155 -28.373  1.00  0.00    -0.004 A 
HETATM   12  N   UNL     1      -0.932   9.789 -27.325  1.00  0.00    -0.257 NA
HETATM   13  C   UNL     1       0.658   7.116 -29.307  1.00  0.00     0.014 A 
HETATM   14  C   UNL     1       1.588   8.616 -27.599  1.00  0.00     0.015 A 
HETATM   15  C   UNL     1      -0.434   6.696 -30.071  1.00  0.00     0.013 A 
HETATM   16  C   UNL     1       1.394   9.657 -26.698  1.00  0.00     0.020 A 
HETATM   17  C   UNL     1       0.129  10.206 -26.598  1.00  0.00     0.117 A 
BRANCH   9  18
HETATM   18  O   UNL     1      -3.017   8.966 -28.805  1.00  0.00    -0.358 OA
HETATM   19  H   UNL     1      -3.658   8.392 -29.277  1.00  0.00     0.218 HD
ENDBRANCH   9  18
ENDBRANCH   1   8
BRANCH   1  20
HETATM   20  C   UNL     1      -2.432   6.294 -32.114  1.00  0.00    -0.031 A 
HETATM   21  C   UNL     1      -1.877   7.084 -33.137  1.00  0.00     0.009 A 
HETATM   22  C   UNL     1      -1.500   6.514 -34.356  1.00  0.00     0.001 A 
HETATM   23  C   UNL     1      -1.672   5.150 -34.575  1.00  0.00     0.000 A 
HETATM   24  C   UNL     1      -2.214   4.350 -33.574  1.00  0.00     0.001 A 
HETATM   25  C   UNL     1      -2.586   4.915 -32.354  1.00  0.00     0.009 A 
ENDBRANCH   1  20
TORSDOF 5
ENDMDL
MODEL 9
REMARK VINA RESULT:      -7.0     15.739     17.167
REMARK  5 active torsions:
REMARK  status: ('A' for Active; 'I' for Inactive)
REMARK    1  A    between atoms: C_2  and  C_3 
REMARK       I    between atoms: C_3  and  N_4 
REMARK    2  A    between atoms: N_4  and  C_5 
REMARK    3  A    between atoms: C_5  and  C_6 
REMARK    4  A    between atoms: C_5  and  C_17 
REMARK    5  A    between atoms: C_7  and  O_8 
ROOT
HETATM    1  C   UNL     1      -5.794 -13.848 -36.446  1.00  0.00     0.154 C 
ENDROOT
BRANCH   1   2
HETATM    2  N   UNL     1      -4.549 -14.158 -37.143  1.00  0.00    -0.348 N 
HETATM    3  C   UNL     1      -3.778 -13.190 -37.738  1.00  0.00     0.218 C 
HETATM    4  O   UNL     1      -4.076 -12.001 -37.778  1.00  0.00    -0.274 OA
HETATM    5  H   UNL     1      -4.192 -15.097 -37.063  1.00  0.00     0.163 HD
BRANCH   3   6
HETATM    6  C   UNL     1      -2.464 -13.698 -38.300  1.00  0.00     0.098 C 
HETATM    7  C   UNL     1      -1.361 -13.783 -37.261  1.00  0.00     0.014 C 
ENDBRANCH   3   6
ENDBRANCH   1   2
BRANCH   1   8
HETATM    8  C   UNL     1      -6.971 -14.104 -37.383  1.00  0.00     0.005 A 
HETATM    9  C   UNL     1      -7.580 -13.058 -38.092  1.00  0.00     0.103 A 
HETATM   10  C   UNL     1      -8.678 -13.244 -38.934  1.00  0.00     0.100 A 
HETATM   11  C   UNL     1      -9.195 -14.545 -39.074  1.00  0.00    -0.004 A 
HETATM   12  N   UNL     1      -9.208 -12.176 -39.569  1.00  0.00    -0.257 NA
HETATM   13  C   UNL     1      -8.606 -15.613 -38.376  1.00  0.00     0.014 A 
HETATM   14  C   UNL     1     -10.304 -14.722 -39.911  1.00  0.00     0.015 A 
HETATM   15  C   UNL     1      -7.510 -15.392 -37.538  1.00  0.00     0.013 A 
HETATM   16  C   UNL     1     -10.855 -13.628 -40.568  1.00  0.00     0.020 A 
HETATM   17  C   UNL     1     -10.278 -12.388 -40.367  1.00  0.00     0.117 A 
BRANCH   9  18
HETATM   18  O   UNL     1      -7.102 -11.774 -37.951  1.00  0.00    -0.358 OA
HETATM   19  H   UNL     1      -7.377 -11.322 -38.778  1.00  0.00     0.218 HD
ENDBRANCH   9  18
ENDBRANCH   1   8
BRANCH   1  20
HETATM   20  C   UNL     1      -5.948 -14.619 -35.130  1.00  0.00    -0.031 A 
HETATM   21  C   UNL     1      -6.961 -14.349 -34.194  1.00  0.00     0.009 A 
HETATM   22  C   UNL     1      -7.042 -15.070 -32.999  1.00  0.00     0.001 A 
HETATM   23  C   UNL     1      -6.114 -16.069 -32.719  1.00  0.00     0.000 A 
HETATM   24  C   UNL     1      -5.106 -16.356 -33.635  1.00  0.00     0.001 A 
HETATM   25  C   UNL     1      -5.026 -15.641 -34.831  1.00  0.00     0.009 A 
ENDBRANCH   1  20
TORSDOF 5
ENDMDL
MODEL 10
REMARK VINA RESULT:      -7.0     15.258     16.668
REMARK  5 active torsions:
REMARK  status: ('A' for Active; 'I' for Inactive)
REMARK    1  A    between atoms: C_2  and  C_3 
REMARK       I    between atoms: C_3  and  N_4 
REMARK    2  A    between atoms: N_4  and  C_5 
REMARK    3  A    between atoms: C_5  and  C_6 
REMARK    4  A    between atoms: C_5  and  C_17 
REMARK    5  A    between atoms: C_7  and  O_8 
ROOT
HETATM    1  C   UNL     1      -5.010 -12.862 -37.409  1.00  0.00     0.154 C 
ENDROOT
BRANCH   1   2
HETATM    2  N   UNL     1      -5.404 -13.866 -36.426  1.00  0.00    -0.348 N 
HETATM    3  C   UNL     1      -5.291 -13.655 -35.073  1.00  0.00     0.218 C 
HETATM    4  O   UNL     1      -4.818 -12.641 -34.572  1.00  0.00    -0.274 OA
HETATM    5  H   UNL     1      -5.892 -14.681 -36.761  1.00  0.00     0.163 HD
BRANCH   3   6
HETATM    6  C   UNL     1      -5.868 -14.768 -34.219  1.00  0.00     0.098 C 
HETATM    7  C   UNL     1      -5.918 -14.425 -32.741  1.00  0.00     0.014 C 
ENDBRANCH   3   6
ENDBRANCH   1   2
BRANCH   1   8
HETATM    8  C   UNL     1      -3.648 -13.232 -37.987  1.00  0.00     0.005 A 
HETATM    9  C   UNL     1      -3.395 -14.514 -38.500  1.00  0.00     0.103 A 
HETATM   10  C   UNL     1      -2.155 -14.902 -39.008  1.00  0.00     0.100 A 
HETATM   11  C   UNL     1      -1.111 -13.959 -39.005  1.00  0.00    -0.004 A 
HETATM   12  N   UNL     1      -1.999 -16.162 -39.471  1.00  0.00    -0.257 NA
HETATM   13  C   UNL     1      -1.333 -12.668 -38.499  1.00  0.00     0.014 A 
HETATM   14  C   UNL     1       0.134 -14.360 -39.507  1.00  0.00     0.015 A 
HETATM   15  C   UNL     1      -2.586 -12.312 -37.993  1.00  0.00     0.013 A 
HETATM   16  C   UNL     1       0.303 -15.655 -39.984  1.00  0.00     0.020 A 
HETATM   17  C   UNL     1      -0.782 -16.511 -39.945  1.00  0.00     0.117 A 
BRANCH   9  18
HETATM   18  O   UNL     1      -4.399 -15.457 -38.491  1.00  0.00    -0.358 OA
HETATM   19  H   UNL     1      -4.762 -15.430 -39.402  1.00  0.00     0.218 HD
ENDBRANCH   9  18
ENDBRANCH   1   8
BRANCH   1  20
HETATM   20  C   UNL     1      -6.054 -12.670 -38.515  1.00  0.00    -0.031 A 
HETATM   21  C   UNL     1      -5.722 -12.321 -39.836  1.00  0.00     0.009 A 
HETATM   22  C   UNL     1      -6.717 -12.138 -40.799  1.00  0.00     0.001 A 
HETATM   23  C   UNL     1      -8.058 -12.297 -40.461  1.00  0.00     0.000 A 
HETATM   24  C   UNL     1      -8.409 -12.648 -39.160  1.00  0.00     0.001 A 
HETATM   25  C   UNL     1      -7.416 -12.836 -38.197  1.00  0.00     0.009 A 
ENDBRANCH   1  20
TORSDOF 5
ENDMDL
