MODEL 1
REMARK VINA RESULT:     -10.5      0.000      0.000
REMARK  5 active torsions:
REMARK  status: ('A' for Active; 'I' for Inactive)
REMARK    1  A    between atoms: C_6  and  S_7 
REMARK    2  A    between atoms: S_7  and  C_8 
REMARK    3  A    between atoms: C_8  and  C_9 
REMARK       I    between atoms: C_9  and  N_10 
REMARK    4  A    between atoms: N_10  and  C_11 
REMARK    5  A    between atoms: N_22  and  C_23 
ROOT
HETATM    1  C   UNL     1      -3.398  -4.481 -33.168  1.00  0.00     0.001 A 
HETATM    2  C   UNL     1      -3.332  -3.259 -32.501  1.00  0.00     0.019 A 
HETATM    3  C   UNL     1      -4.157  -2.200 -32.905  1.00  0.00     0.061 A 
HETATM    4  C   UNL     1      -5.038  -2.352 -33.968  1.00  0.00     0.075 A 
HETATM    5  N   UNL     1      -5.820  -1.296 -34.441  1.00  0.00    -0.223 NA
HETATM    6  C   UNL     1      -5.818  -0.177 -33.788  1.00  0.00     0.177 A 
HETATM    7  N   UNL     1      -5.068   0.055 -32.631  1.00  0.00    -0.256 N 
HETATM    8  C   UNL     1      -4.153  -0.911 -32.190  1.00  0.00     0.267 A 
HETATM    9  O   UNL     1      -3.388  -0.793 -31.235  1.00  0.00    -0.267 OA
HETATM   10  C   UNL     1      -5.108  -3.586 -34.622  1.00  0.00     0.032 A 
HETATM   11  C   UNL     1      -4.291  -4.647 -34.224  1.00  0.00     0.002 A 
ENDROOT
BRANCH   6  12
HETATM   12  S   UNL     1      -6.712   1.158 -34.512  1.00  0.00    -0.082 SA
BRANCH  12  13
HETATM   13  C   UNL     1      -8.270   0.373 -35.010  1.00  0.00     0.185 C 
BRANCH  13  14
HETATM   14  C   UNL     1      -9.405   0.692 -34.043  1.00  0.00     0.231 C 
HETATM   15  N   UNL     1     -10.394   1.485 -34.596  1.00  0.00    -0.326 N 
HETATM   16  H   UNL     1     -10.190   1.852 -35.524  1.00  0.00     0.169 HD
HETATM   17  O   UNL     1      -9.406   0.231 -32.905  1.00  0.00    -0.272 OA
BRANCH  15  18
HETATM   18  C   UNL     1     -11.615   1.884 -34.018  1.00  0.00     0.037 A 
HETATM   19  C   UNL     1     -12.824   1.206 -34.219  1.00  0.00     0.061 A 
HETATM   20  C   UNL     1     -13.946   1.738 -33.623  1.00  0.00     0.065 A 
HETATM   21  C   UNL     1     -13.905   2.894 -32.846  1.00  0.00     0.063 A 
HETATM   22  N   UNL     1     -15.265   1.299 -33.662  1.00  0.00    -0.306 N 
HETATM   23  N   UNL     1     -15.195   3.163 -32.406  1.00  0.00    -0.307 N 
HETATM   24  C   UNL     1     -12.739   3.577 -32.618  1.00  0.00     0.034 A 
HETATM   25  C   UNL     1     -16.057   2.178 -32.911  1.00  0.00     0.325 A 
HETATM   26  H   UNL     1     -15.500   3.929 -31.829  1.00  0.00     0.170 HD
HETATM   27  O   UNL     1     -17.259   2.106 -32.731  1.00  0.00    -0.247 OA
HETATM   28  C   UNL     1     -11.585   3.058 -33.218  1.00  0.00     0.032 A 
HETATM   29  H   UNL     1     -15.622   0.490 -34.145  1.00  0.00     0.170 HD
ENDBRANCH  15  18
ENDBRANCH  13  14
ENDBRANCH  12  13
ENDBRANCH   6  12
BRANCH   7  30
HETATM   30  C   UNL     1      -5.228   1.224 -31.811  1.00  0.00     0.046 A 
HETATM   31  C   UNL     1      -4.347   2.310 -31.928  1.00  0.00     0.055 A 
HETATM   32  C   UNL     1      -4.472   3.429 -31.095  1.00  0.00     0.058 A 
HETATM   33 CL   UNL     1      -3.355   4.728 -31.323  1.00  0.00    -0.082 Cl
HETATM   34  C   UNL     1      -5.474   3.469 -30.122  1.00  0.00     0.055 A 
HETATM   35 CL   UNL     1      -5.682   4.809 -29.054  1.00  0.00    -0.083 Cl
HETATM   36  C   UNL     1      -6.346   2.387 -29.985  1.00  0.00     0.028 A 
HETATM   37  C   UNL     1      -6.222   1.271 -30.821  1.00  0.00     0.032 A 
ENDBRANCH   7  30
TORSDOF 5
ENDMDL
MODEL 2
REMARK VINA RESULT:      -9.7      4.473      8.091
REMARK  5 active torsions:
REMARK  status: ('A' for Active; 'I' for Inactive)
REMARK    1  A    between atoms: C_6  and  S_7 
REMARK    2  A    between atoms: S_7  and  C_8 
REMARK    3  A    between atoms: C_8  and  C_9 
REMARK       I    between atoms: C_9  and  N_10 
REMARK    4  A    between atoms: N_10  and  C_11 
REMARK    5  A    between atoms: N_22  and  C_23 
ROOT
HETATM    1  C   UNL     1      -1.324   6.337 -34.062  1.00  0.00     0.001 A 
HETATM    2  C   UNL     1      -2.508   5.759 -34.519  1.00  0.00     0.019 A 
HETATM    3  C   UNL     1      -3.468   5.318 -33.597  1.00  0.00     0.061 A 
HETATM    4  C   UNL     1      -3.253   5.446 -32.231  1.00  0.00     0.075 A 
HETATM    5  N   UNL     1      -4.157   4.953 -31.287  1.00  0.00    -0.223 NA
HETATM    6  C   UNL     1      -5.289   4.476 -31.698  1.00  0.00     0.177 A 
HETATM    7  N   UNL     1      -5.672   4.409 -33.041  1.00  0.00    -0.256 N 
HETATM    8  C   UNL     1      -4.753   4.751 -34.044  1.00  0.00     0.267 A 
HETATM    9  O   UNL     1      -4.945   4.663 -35.255  1.00  0.00    -0.267 OA
HETATM   10  C   UNL     1      -2.070   6.042 -31.782  1.00  0.00     0.032 A 
HETATM   11  C   UNL     1      -1.108   6.485 -32.693  1.00  0.00     0.002 A 
ENDROOT
BRANCH   6  12
HETATM   12  S   UNL     1      -6.324   3.741 -30.475  1.00  0.00    -0.082 SA
BRANCH  12  13
HETATM   13  C   UNL     1      -5.270   2.429 -29.797  1.00  0.00     0.185 C 
BRANCH  13  14
HETATM   14  C   UNL     1      -5.593   1.067 -30.403  1.00  0.00     0.231 C 
HETATM   15  N   UNL     1      -4.953   0.833 -31.605  1.00  0.00    -0.326 N 
HETATM   16  H   UNL     1      -4.448   1.628 -31.993  1.00  0.00     0.169 HD
HETATM   17  O   UNL     1      -6.329   0.279 -29.815  1.00  0.00    -0.272 OA
BRANCH  15  18
HETATM   18  C   UNL     1      -4.953  -0.346 -32.377  1.00  0.00     0.037 A 
HETATM   19  C   UNL     1      -6.076  -0.820 -33.066  1.00  0.00     0.061 A 
HETATM   20  C   UNL     1      -5.937  -2.010 -33.745  1.00  0.00     0.065 A 
HETATM   21  C   UNL     1      -4.742  -2.725 -33.768  1.00  0.00     0.063 A 
HETATM   22  N   UNL     1      -6.872  -2.722 -34.490  1.00  0.00    -0.306 N 
HETATM   23  N   UNL     1      -4.941  -3.873 -34.525  1.00  0.00    -0.307 N 
HETATM   24  C   UNL     1      -3.619  -2.287 -33.115  1.00  0.00     0.034 A 
HETATM   25  C   UNL     1      -6.267  -3.887 -34.981  1.00  0.00     0.325 A 
HETATM   26  H   UNL     1      -4.273  -4.597 -34.729  1.00  0.00     0.170 HD
HETATM   27  O   UNL     1      -6.789  -4.748 -35.667  1.00  0.00    -0.247 OA
HETATM   28  C   UNL     1      -3.737  -1.081 -32.413  1.00  0.00     0.032 A 
HETATM   29  H   UNL     1      -7.832  -2.468 -34.661  1.00  0.00     0.170 HD
ENDBRANCH  15  18
ENDBRANCH  13  14
ENDBRANCH  12  13
ENDBRANCH   6  12
BRANCH   7  30
HETATM   30  C   UNL     1      -7.001   4.065 -33.465  1.00  0.00     0.046 A 
HETATM   31  C   UNL     1      -7.345   2.733 -33.742  1.00  0.00     0.055 A 
HETATM   32  C   UNL     1      -8.625   2.402 -34.202  1.00  0.00     0.058 A 
HETATM   33 CL   UNL     1      -8.966   0.734 -34.499  1.00  0.00    -0.082 Cl
HETATM   34  C   UNL     1      -9.576   3.406 -34.405  1.00  0.00     0.055 A 
HETATM   35 CL   UNL     1     -11.171   3.076 -34.979  1.00  0.00    -0.083 Cl
HETATM   36  C   UNL     1      -9.241   4.737 -34.149  1.00  0.00     0.028 A 
HETATM   37  C   UNL     1      -7.961   5.065 -33.686  1.00  0.00     0.032 A 
ENDBRANCH   7  30
TORSDOF 5
ENDMDL
MODEL 3
REMARK VINA RESULT:      -9.6      4.144      8.270
REMARK  5 active torsions:
REMARK  status: ('A' for Active; 'I' for Inactive)
REMARK    1  A    between atoms: C_6  and  S_7 
REMARK    2  A    between atoms: S_7  and  C_8 
REMARK    3  A    between atoms: C_8  and  C_9 
REMARK       I    between atoms: C_9  and  N_10 
REMARK    4  A    between atoms: N_10  and  C_11 
REMARK    5  A    between atoms: N_22  and  C_23 
ROOT
HETATM    1  C   UNL     1      -4.806  -1.580 -33.667  1.00  0.00     0.001 A 
HETATM    2  C   UNL     1      -5.958  -1.025 -34.223  1.00  0.00     0.019 A 
HETATM    3  C   UNL     1      -6.760  -0.172 -33.453  1.00  0.00     0.061 A 
HETATM    4  C   UNL     1      -6.424   0.126 -32.139  1.00  0.00     0.075 A 
HETATM    5  N   UNL     1      -7.239   0.915 -31.323  1.00  0.00    -0.223 NA
HETATM    6  C   UNL     1      -8.275   1.490 -31.848  1.00  0.00     0.177 A 
HETATM    7  N   UNL     1      -8.646   1.367 -33.190  1.00  0.00    -0.256 N 
HETATM    8  C   UNL     1      -7.956   0.474 -34.023  1.00  0.00     0.267 A 
HETATM    9  O   UNL     1      -8.233   0.225 -35.194  1.00  0.00    -0.267 OA
HETATM   10  C   UNL     1      -5.258  -0.422 -31.595  1.00  0.00     0.032 A 
HETATM   11  C   UNL     1      -4.452  -1.273 -32.355  1.00  0.00     0.002 A 
ENDROOT
BRANCH   6  12
HETATM   12  S   UNL     1      -9.340   2.353 -30.740  1.00  0.00    -0.082 SA
BRANCH  12  13
HETATM   13  C   UNL     1      -8.196   3.454 -29.862  1.00  0.00     0.185 C 
BRANCH  13  14
HETATM   14  C   UNL     1      -7.218   4.137 -30.812  1.00  0.00     0.231 C 
HETATM   15  N   UNL     1      -5.901   3.771 -30.606  1.00  0.00    -0.326 N 
HETATM   16  H   UNL     1      -5.733   3.194 -29.784  1.00  0.00     0.169 HD
HETATM   17  O   UNL     1      -7.624   4.903 -31.683  1.00  0.00    -0.272 OA
BRANCH  15  18
HETATM   18  C   UNL     1      -4.767   4.136 -31.358  1.00  0.00     0.037 A 
HETATM   19  C   UNL     1      -4.376   5.463 -31.576  1.00  0.00     0.061 A 
HETATM   20  C   UNL     1      -3.269   5.666 -32.368  1.00  0.00     0.065 A 
HETATM   21  C   UNL     1      -2.548   4.617 -32.934  1.00  0.00     0.063 A 
HETATM   22  N   UNL     1      -2.668   6.856 -32.766  1.00  0.00    -0.306 N 
HETATM   23  N   UNL     1      -1.507   5.159 -33.677  1.00  0.00    -0.307 N 
HETATM   24  C   UNL     1      -2.895   3.305 -32.734  1.00  0.00     0.034 A 
HETATM   25  C   UNL     1      -1.571   6.557 -33.584  1.00  0.00     0.325 A 
HETATM   26  H   UNL     1      -0.811   4.666 -34.209  1.00  0.00     0.170 HD
HETATM   27  O   UNL     1      -0.818   7.354 -34.117  1.00  0.00    -0.247 OA
HETATM   28  C   UNL     1      -4.021   3.073 -31.935  1.00  0.00     0.032 A 
HETATM   29  H   UNL     1      -2.956   7.792 -32.526  1.00  0.00     0.170 HD
ENDBRANCH  15  18
ENDBRANCH  13  14
ENDBRANCH  12  13
ENDBRANCH   6  12
BRANCH   7  30
HETATM   30  C   UNL     1      -9.674   2.164 -33.798  1.00  0.00     0.046 A 
HETATM   31  C   UNL     1     -10.967   1.650 -33.986  1.00  0.00     0.055 A 
HETATM   32  C   UNL     1     -11.957   2.408 -34.624  1.00  0.00     0.058 A 
HETATM   33 CL   UNL     1     -13.525   1.701 -34.794  1.00  0.00    -0.082 Cl
HETATM   34  C   UNL     1     -11.660   3.689 -35.096  1.00  0.00     0.055 A 
HETATM   35 CL   UNL     1     -12.825   4.678 -35.900  1.00  0.00    -0.083 Cl
HETATM   36  C   UNL     1     -10.374   4.205 -34.930  1.00  0.00     0.028 A 
HETATM   37  C   UNL     1      -9.387   3.447 -34.290  1.00  0.00     0.032 A 
ENDBRANCH   7  30
TORSDOF 5
ENDMDL
MODEL 4
REMARK VINA RESULT:      -9.5      3.465      5.972
REMARK  5 active torsions:
REMARK  status: ('A' for Active; 'I' for Inactive)
REMARK    1  A    between atoms: C_6  and  S_7 
REMARK    2  A    between atoms: S_7  and  C_8 
REMARK    3  A    between atoms: C_8  and  C_9 
REMARK       I    between atoms: C_9  and  N_10 
REMARK    4  A    between atoms: N_10  and  C_11 
REMARK    5  A    between atoms: N_22  and  C_23 
ROOT
HETATM    1  C   UNL     1      -0.416   6.717 -31.507  1.00  0.00     0.001 A 
HETATM    2  C   UNL     1      -1.023   5.574 -32.026  1.00  0.00     0.019 A 
HETATM    3  C   UNL     1      -2.320   5.230 -31.620  1.00  0.00     0.061 A 
HETATM    4  C   UNL     1      -3.008   6.013 -30.702  1.00  0.00     0.075 A 
HETATM    5  N   UNL     1      -4.272   5.659 -30.224  1.00  0.00    -0.223 NA
HETATM    6  C   UNL     1      -4.874   4.638 -30.749  1.00  0.00     0.177 A 
HETATM    7  N   UNL     1      -4.335   3.847 -31.768  1.00  0.00    -0.256 N 
HETATM    8  C   UNL     1      -3.014   4.060 -32.187  1.00  0.00     0.267 A 
HETATM    9  O   UNL     1      -2.407   3.386 -33.017  1.00  0.00    -0.267 OA
HETATM   10  C   UNL     1      -2.397   7.165 -30.199  1.00  0.00     0.032 A 
HETATM   11  C   UNL     1      -1.106   7.516 -30.598  1.00  0.00     0.002 A 
ENDROOT
BRANCH   6  12
HETATM   12  S   UNL     1      -6.400   4.159 -30.007  1.00  0.00    -0.082 SA
BRANCH  12  13
HETATM   13  C   UNL     1      -7.632   4.905 -31.110  1.00  0.00     0.185 C 
BRANCH  13  14
HETATM   14  C   UNL     1      -8.896   4.058 -31.212  1.00  0.00     0.231 C 
HETATM   15  N   UNL     1      -9.149   3.596 -32.490  1.00  0.00    -0.326 N 
HETATM   16  H   UNL     1      -8.540   3.968 -33.216  1.00  0.00     0.169 HD
HETATM   17  O   UNL     1      -9.566   3.812 -30.212  1.00  0.00    -0.272 OA
BRANCH  15  18
HETATM   18  C   UNL     1     -10.166   2.719 -32.914  1.00  0.00     0.037 A 
HETATM   19  C   UNL     1     -11.423   3.148 -33.356  1.00  0.00     0.061 A 
HETATM   20  C   UNL     1     -12.333   2.173 -33.700  1.00  0.00     0.065 A 
HETATM   21  C   UNL     1     -12.037   0.813 -33.625  1.00  0.00     0.063 A 
HETATM   22  N   UNL     1     -13.643   2.298 -34.148  1.00  0.00    -0.306 N 
HETATM   23  N   UNL     1     -13.163   0.105 -34.028  1.00  0.00    -0.307 N 
HETATM   24  C   UNL     1     -10.814   0.356 -33.207  1.00  0.00     0.034 A 
HETATM   25  C   UNL     1     -14.175   1.018 -34.354  1.00  0.00     0.325 A 
HETATM   26  H   UNL     1     -13.273  -0.894 -34.082  1.00  0.00     0.170 HD
HETATM   27  O   UNL     1     -15.299   0.748 -34.739  1.00  0.00    -0.247 OA
HETATM   28  C   UNL     1      -9.874   1.330 -32.848  1.00  0.00     0.032 A 
HETATM   29  H   UNL     1     -14.153   3.154 -34.303  1.00  0.00     0.170 HD
ENDBRANCH  15  18
ENDBRANCH  13  14
ENDBRANCH  12  13
ENDBRANCH   6  12
BRANCH   7  30
HETATM   30  C   UNL     1      -5.090   2.849 -32.472  1.00  0.00     0.046 A 
HETATM   31  C   UNL     1      -5.124   1.521 -32.020  1.00  0.00     0.055 A 
HETATM   32  C   UNL     1      -5.819   0.536 -32.732  1.00  0.00     0.058 A 
HETATM   33 CL   UNL     1      -5.823  -1.068 -32.091  1.00  0.00    -0.082 Cl
HETATM   34  C   UNL     1      -6.480   0.867 -33.919  1.00  0.00     0.055 A 
HETATM   35 CL   UNL     1      -7.348  -0.294 -34.856  1.00  0.00    -0.083 Cl
HETATM   36  C   UNL     1      -6.439   2.181 -34.388  1.00  0.00     0.028 A 
HETATM   37  C   UNL     1      -5.747   3.165 -33.672  1.00  0.00     0.032 A 
ENDBRANCH   7  30
TORSDOF 5
ENDMDL
MODEL 5
REMARK VINA RESULT:      -9.3      4.267      8.634
REMARK  5 active torsions:
REMARK  status: ('A' for Active; 'I' for Inactive)
REMARK    1  A    between atoms: C_6  and  S_7 
REMARK    2  A    between atoms: S_7  and  C_8 
REMARK    3  A    between atoms: C_8  and  C_9 
REMARK       I    between atoms: C_9  and  N_10 
REMARK    4  A    between atoms: N_10  and  C_11 
REMARK    5  A    between atoms: N_22  and  C_23 
ROOT
HETATM    1  C   UNL     1      -3.758  -1.346 -32.749  1.00  0.00     0.001 A 
HETATM    2  C   UNL     1      -5.051  -1.186 -33.247  1.00  0.00     0.019 A 
HETATM    3  C   UNL     1      -5.921  -0.269 -32.642  1.00  0.00     0.061 A 
HETATM    4  C   UNL     1      -5.513   0.481 -31.546  1.00  0.00     0.075 A 
HETATM    5  N   UNL     1      -6.378   1.349 -30.876  1.00  0.00    -0.223 NA
HETATM    6  C   UNL     1      -7.558   1.557 -31.370  1.00  0.00     0.177 A 
HETATM    7  N   UNL     1      -8.038   0.956 -32.537  1.00  0.00    -0.256 N 
HETATM    8  C   UNL     1      -7.275  -0.034 -33.173  1.00  0.00     0.267 A 
HETATM    9  O   UNL     1      -7.620  -0.684 -34.158  1.00  0.00    -0.267 OA
HETATM   10  C   UNL     1      -4.210   0.325 -31.063  1.00  0.00     0.032 A 
HETATM   11  C   UNL     1      -3.335  -0.585 -31.661  1.00  0.00     0.002 A 
ENDROOT
BRANCH   6  12
HETATM   12  S   UNL     1      -8.650   2.549 -30.405  1.00  0.00    -0.082 SA
BRANCH  12  13
HETATM   13  C   UNL     1      -8.100   4.236 -30.786  1.00  0.00     0.185 C 
BRANCH  13  14
HETATM   14  C   UNL     1      -6.616   4.432 -30.494  1.00  0.00     0.231 C 
HETATM   15  N   UNL     1      -5.821   4.389 -31.624  1.00  0.00    -0.326 N 
HETATM   16  H   UNL     1      -6.298   4.117 -32.482  1.00  0.00     0.169 HD
HETATM   17  O   UNL     1      -6.226   4.641 -29.349  1.00  0.00    -0.272 OA
BRANCH  15  18
HETATM   18  C   UNL     1      -4.435   4.625 -31.725  1.00  0.00     0.037 A 
HETATM   19  C   UNL     1      -3.765   5.617 -30.999  1.00  0.00     0.061 A 
HETATM   20  C   UNL     1      -2.415   5.759 -31.233  1.00  0.00     0.065 A 
HETATM   21  C   UNL     1      -1.723   4.959 -32.140  1.00  0.00     0.063 A 
HETATM   22  N   UNL     1      -1.508   6.657 -30.682  1.00  0.00    -0.306 N 
HETATM   23  N   UNL     1      -0.394   5.363 -32.145  1.00  0.00    -0.307 N 
HETATM   24  C   UNL     1      -2.344   3.970 -32.859  1.00  0.00     0.034 A 
HETATM   25  C   UNL     1      -0.245   6.425 -31.242  1.00  0.00     0.325 A 
HETATM   26  H   UNL     1       0.359   4.987 -32.695  1.00  0.00     0.170 HD
HETATM   27  O   UNL     1       0.785   7.029 -30.998  1.00  0.00    -0.247 OA
HETATM   28  C   UNL     1      -3.719   3.811 -32.642  1.00  0.00     0.032 A 
HETATM   29  H   UNL     1      -1.699   7.370 -29.995  1.00  0.00     0.170 HD
ENDBRANCH  15  18
ENDBRANCH  13  14
ENDBRANCH  12  13
ENDBRANCH   6  12
BRANCH   7  30
HETATM   30  C   UNL     1      -9.263   1.346 -33.177  1.00  0.00     0.046 A 
HETATM   31  C   UNL     1     -10.407   0.538 -33.092  1.00  0.00     0.055 A 
HETATM   32  C   UNL     1     -11.589   0.892 -33.756  1.00  0.00     0.058 A 
HETATM   33 CL   UNL     1     -12.953  -0.154 -33.580  1.00  0.00    -0.082 Cl
HETATM   34  C   UNL     1     -11.635   2.057 -34.527  1.00  0.00     0.055 A 
HETATM   35 CL   UNL     1     -13.052   2.552 -35.381  1.00  0.00    -0.083 Cl
HETATM   36  C   UNL     1     -10.499   2.860 -34.632  1.00  0.00     0.028 A 
HETATM   37  C   UNL     1      -9.320   2.506 -33.965  1.00  0.00     0.032 A 
ENDBRANCH   7  30
TORSDOF 5
ENDMDL
MODEL 6
REMARK VINA RESULT:      -9.2      1.784      2.093
REMARK  5 active torsions:
REMARK  status: ('A' for Active; 'I' for Inactive)
REMARK    1  A    between atoms: C_6  and  S_7 
REMARK    2  A    between atoms: S_7  and  C_8 
REMARK    3  A    between atoms: C_8  and  C_9 
REMARK       I    between atoms: C_9  and  N_10 
REMARK    4  A    between atoms: N_10  and  C_11 
REMARK    5  A    between atoms: N_22  and  C_23 
ROOT
HETATM    1  C   UNL     1      -4.757  -3.088 -34.655  1.00  0.00     0.001 A 
HETATM    2  C   UNL     1      -4.451  -1.834 -34.126  1.00  0.00     0.019 A 
HETATM    3  C   UNL     1      -5.484  -0.989 -33.699  1.00  0.00     0.061 A 
HETATM    4  C   UNL     1      -6.812  -1.381 -33.801  1.00  0.00     0.075 A 
HETATM    5  N   UNL     1      -7.867  -0.535 -33.452  1.00  0.00    -0.223 NA
HETATM    6  C   UNL     1      -7.594   0.604 -32.896  1.00  0.00     0.177 A 
HETATM    7  N   UNL     1      -6.299   1.056 -32.627  1.00  0.00    -0.256 N 
HETATM    8  C   UNL     1      -5.196   0.320 -33.086  1.00  0.00     0.267 A 
HETATM    9  O   UNL     1      -4.017   0.651 -32.977  1.00  0.00    -0.267 OA
HETATM   10  C   UNL     1      -7.109  -2.646 -34.319  1.00  0.00     0.032 A 
HETATM   11  C   UNL     1      -6.086  -3.496 -34.745  1.00  0.00     0.002 A 
ENDROOT
BRANCH   6  12
HETATM   12  S   UNL     1      -8.956   1.685 -32.609  1.00  0.00    -0.082 SA
BRANCH  12  13
HETATM   13  C   UNL     1      -9.592   1.979 -34.283  1.00  0.00     0.185 C 
BRANCH  13  14
HETATM   14  C   UNL     1     -11.006   2.552 -34.264  1.00  0.00     0.231 C 
HETATM   15  N   UNL     1     -11.750   2.149 -33.171  1.00  0.00    -0.326 N 
HETATM   16  H   UNL     1     -11.315   1.438 -32.586  1.00  0.00     0.169 HD
HETATM   17  O   UNL     1     -11.380   3.322 -35.145  1.00  0.00    -0.272 OA
BRANCH  15  18
HETATM   18  C   UNL     1     -13.044   2.562 -32.799  1.00  0.00     0.037 A 
HETATM   19  C   UNL     1     -14.212   1.895 -33.190  1.00  0.00     0.061 A 
HETATM   20  C   UNL     1     -15.409   2.440 -32.783  1.00  0.00     0.065 A 
HETATM   21  C   UNL     1     -15.483   3.598 -32.012  1.00  0.00     0.063 A 
HETATM   22  N   UNL     1     -16.710   2.014 -33.033  1.00  0.00    -0.306 N 
HETATM   23  N   UNL     1     -16.824   3.882 -31.787  1.00  0.00    -0.307 N 
HETATM   24  C   UNL     1     -14.361   4.271 -31.602  1.00  0.00     0.034 A 
HETATM   25  C   UNL     1     -17.603   2.903 -32.421  1.00  0.00     0.325 A 
HETATM   26  H   UNL     1     -17.210   4.653 -31.268  1.00  0.00     0.170 HD
HETATM   27  O   UNL     1     -18.820   2.843 -32.437  1.00  0.00    -0.247 OA
HETATM   28  C   UNL     1     -13.131   3.739 -32.007  1.00  0.00     0.032 A 
HETATM   29  H   UNL     1     -16.992   1.206 -33.565  1.00  0.00     0.170 HD
ENDBRANCH  15  18
ENDBRANCH  13  14
ENDBRANCH  12  13
ENDBRANCH   6  12
BRANCH   7  30
HETATM   30  C   UNL     1      -6.021   2.222 -31.835  1.00  0.00     0.046 A 
HETATM   31  C   UNL     1      -5.748   3.457 -32.445  1.00  0.00     0.055 A 
HETATM   32  C   UNL     1      -5.428   4.583 -31.676  1.00  0.00     0.058 A 
HETATM   33 CL   UNL     1      -5.127   6.066 -32.510  1.00  0.00    -0.082 Cl
HETATM   34  C   UNL     1      -5.363   4.483 -30.284  1.00  0.00     0.055 A 
HETATM   35 CL   UNL     1      -4.966   5.824 -29.272  1.00  0.00    -0.083 Cl
HETATM   36  C   UNL     1      -5.615   3.256 -29.667  1.00  0.00     0.028 A 
HETATM   37  C   UNL     1      -5.938   2.133 -30.437  1.00  0.00     0.032 A 
ENDBRANCH   7  30
TORSDOF 5
ENDMDL
MODEL 7
REMARK VINA RESULT:      -9.2      5.921      9.825
REMARK  5 active torsions:
REMARK  status: ('A' for Active; 'I' for Inactive)
REMARK    1  A    between atoms: C_6  and  S_7 
REMARK    2  A    between atoms: S_7  and  C_8 
REMARK    3  A    between atoms: C_8  and  C_9 
REMARK       I    between atoms: C_9  and  N_10 
REMARK    4  A    between atoms: N_10  and  C_11 
REMARK    5  A    between atoms: N_22  and  C_23 
ROOT
HETATM    1  C   UNL     1       1.811   8.251 -25.873  1.00  0.00     0.001 A 
HETATM    2  C   UNL     1       1.515   7.488 -27.002  1.00  0.00     0.019 A 
HETATM    3  C   UNL     1       0.333   7.732 -27.715  1.00  0.00     0.061 A 
HETATM    4  C   UNL     1      -0.552   8.723 -27.307  1.00  0.00     0.075 A 
HETATM    5  N   UNL     1      -1.770   8.942 -27.953  1.00  0.00    -0.223 NA
HETATM    6  C   UNL     1      -2.026   8.287 -29.042  1.00  0.00     0.177 A 
HETATM    7  N   UNL     1      -1.159   7.355 -29.619  1.00  0.00    -0.256 N 
HETATM    8  C   UNL     1       0.012   6.982 -28.942  1.00  0.00     0.267 A 
HETATM    9  O   UNL     1       0.812   6.124 -29.310  1.00  0.00    -0.267 OA
HETATM   10  C   UNL     1      -0.238   9.493 -26.183  1.00  0.00     0.032 A 
HETATM   11  C   UNL     1       0.938   9.258 -25.467  1.00  0.00     0.002 A 
ENDROOT
BRANCH   6  12
HETATM   12  S   UNL     1      -3.634   8.502 -29.730  1.00  0.00    -0.082 SA
BRANCH  12  13
HETATM   13  C   UNL     1      -4.721   8.170 -28.316  1.00  0.00     0.185 C 
BRANCH  13  14
HETATM   14  C   UNL     1      -5.143   6.706 -28.250  1.00  0.00     0.231 C 
HETATM   15  N   UNL     1      -5.789   6.267 -29.391  1.00  0.00    -0.326 N 
HETATM   16  H   UNL     1      -6.006   6.990 -30.074  1.00  0.00     0.169 HD
HETATM   17  O   UNL     1      -4.876   6.022 -27.266  1.00  0.00    -0.272 OA
BRANCH  15  18
HETATM   18  C   UNL     1      -6.221   4.962 -29.699  1.00  0.00     0.037 A 
HETATM   19  C   UNL     1      -5.348   3.906 -29.989  1.00  0.00     0.061 A 
HETATM   20  C   UNL     1      -5.918   2.695 -30.314  1.00  0.00     0.065 A 
HETATM   21  C   UNL     1      -7.297   2.502 -30.352  1.00  0.00     0.063 A 
HETATM   22  N   UNL     1      -5.312   1.492 -30.661  1.00  0.00    -0.306 N 
HETATM   23  N   UNL     1      -7.538   1.184 -30.721  1.00  0.00    -0.307 N 
HETATM   24  C   UNL     1      -8.182   3.509 -30.063  1.00  0.00     0.034 A 
HETATM   25  C   UNL     1      -6.308   0.542 -30.920  1.00  0.00     0.325 A 
HETATM   26  H   UNL     1      -8.429   0.733 -30.841  1.00  0.00     0.170 HD
HETATM   27  O   UNL     1      -6.141  -0.618 -31.257  1.00  0.00    -0.247 OA
HETATM   28  C   UNL     1      -7.626   4.752 -29.735  1.00  0.00     0.032 A 
HETATM   29  H   UNL     1      -4.323   1.308 -30.728  1.00  0.00     0.170 HD
ENDBRANCH  15  18
ENDBRANCH  13  14
ENDBRANCH  12  13
ENDBRANCH   6  12
BRANCH   7  30
HETATM   30  C   UNL     1      -1.366   6.789 -30.923  1.00  0.00     0.046 A 
HETATM   31  C   UNL     1      -1.942   5.517 -31.072  1.00  0.00     0.055 A 
HETATM   32  C   UNL     1      -2.100   4.943 -32.339  1.00  0.00     0.058 A 
HETATM   33 CL   UNL     1      -2.837   3.383 -32.428  1.00  0.00    -0.082 Cl
HETATM   34  C   UNL     1      -1.669   5.631 -33.477  1.00  0.00     0.055 A 
HETATM   35 CL   UNL     1      -1.821   4.984 -35.070  1.00  0.00    -0.083 Cl
HETATM   36  C   UNL     1      -1.079   6.889 -33.340  1.00  0.00     0.028 A 
HETATM   37  C   UNL     1      -0.925   7.462 -32.072  1.00  0.00     0.032 A 
ENDBRANCH   7  30
TORSDOF 5
ENDMDL
MODEL 8
REMARK VINA RESULT:      -9.1      4.252      9.411
REMARK  5 active torsions:
REMARK  status: ('A' for Active; 'I' for Inactive)
REMARK    1  A    between atoms: C_6  and  S_7 
REMARK    2  A    between atoms: S_7  and  C_8 
REMARK    3  A    between atoms: C_8  and  C_9 
REMARK       I    between atoms: C_9  and  N_10 
REMARK    4  A    between atoms: N_10  and  C_11 
REMARK    5  A    between atoms: N_22  and  C_23 
ROOT
HETATM    1  C   UNL     1     -12.715   1.425 -33.569  1.00  0.00     0.001 A 
HETATM    2  C   UNL     1     -11.584   0.614 -33.478  1.00  0.00     0.019 A 
HETATM    3  C   UNL     1     -10.308   1.189 -33.554  1.00  0.00     0.061 A 
HETATM    4  C   UNL     1     -10.155   2.559 -33.726  1.00  0.00     0.075 A 
HETATM    5  N   UNL     1      -8.900   3.152 -33.878  1.00  0.00    -0.223 NA
HETATM    6  C   UNL     1      -7.841   2.420 -33.726  1.00  0.00     0.177 A 
HETATM    7  N   UNL     1      -7.867   1.055 -33.428  1.00  0.00    -0.256 N 
HETATM    8  C   UNL     1      -9.091   0.371 -33.408  1.00  0.00     0.267 A 
HETATM    9  O   UNL     1      -9.235  -0.838 -33.233  1.00  0.00    -0.267 OA
HETATM   10  C   UNL     1     -11.294   3.365 -33.801  1.00  0.00     0.032 A 
HETATM   11  C   UNL     1     -12.570   2.802 -33.724  1.00  0.00     0.002 A 
ENDROOT
BRANCH   6  12
HETATM   12  S   UNL     1      -6.295   3.194 -34.070  1.00  0.00    -0.082 SA
BRANCH  12  13
HETATM   13  C   UNL     1      -6.679   4.957 -33.881  1.00  0.00     0.185 C 
BRANCH  13  14
HETATM   14  C   UNL     1      -5.611   5.691 -33.077  1.00  0.00     0.231 C 
HETATM   15  N   UNL     1      -4.385   5.054 -33.078  1.00  0.00    -0.326 N 
HETATM   16  H   UNL     1      -4.374   4.129 -33.505  1.00  0.00     0.169 HD
HETATM   17  O   UNL     1      -5.864   6.763 -32.533  1.00  0.00    -0.272 OA
BRANCH  15  18
HETATM   18  C   UNL     1      -3.170   5.501 -32.521  1.00  0.00     0.037 A 
HETATM   19  C   UNL     1      -2.878   5.445 -31.153  1.00  0.00     0.061 A 
HETATM   20  C   UNL     1      -1.666   5.958 -30.750  1.00  0.00     0.065 A 
HETATM   21  C   UNL     1      -0.750   6.508 -31.645  1.00  0.00     0.063 A 
HETATM   22  N   UNL     1      -1.122   6.054 -29.474  1.00  0.00    -0.306 N 
HETATM   23  N   UNL     1       0.354   6.940 -30.921  1.00  0.00    -0.307 N 
HETATM   24  C   UNL     1      -0.996   6.570 -32.992  1.00  0.00     0.034 A 
HETATM   25  C   UNL     1       0.136   6.666 -29.563  1.00  0.00     0.325 A 
HETATM   26  H   UNL     1       1.185   7.384 -31.275  1.00  0.00     0.170 HD
HETATM   27  O   UNL     1       0.894   6.917 -28.642  1.00  0.00    -0.247 OA
HETATM   28  C   UNL     1      -2.226   6.058 -33.425  1.00  0.00     0.032 A 
HETATM   29  H   UNL     1      -1.541   5.748 -28.610  1.00  0.00     0.170 HD
ENDBRANCH  15  18
ENDBRANCH  13  14
ENDBRANCH  12  13
ENDBRANCH   6  12
BRANCH   7  30
HETATM   30  C   UNL     1      -6.695   0.306 -33.068  1.00  0.00     0.046 A 
HETATM   31  C   UNL     1      -6.150  -0.643 -33.947  1.00  0.00     0.055 A 
HETATM   32  C   UNL     1      -5.038  -1.409 -33.579  1.00  0.00     0.058 A 
HETATM   33 CL   UNL     1      -4.423  -2.540 -34.732  1.00  0.00    -0.082 Cl
HETATM   34  C   UNL     1      -4.463  -1.245 -32.316  1.00  0.00     0.055 A 
HETATM   35 CL   UNL     1      -3.097  -2.160 -31.788  1.00  0.00    -0.083 Cl
HETATM   36  C   UNL     1      -5.006  -0.316 -31.426  1.00  0.00     0.028 A 
HETATM   37  C   UNL     1      -6.116   0.451 -31.798  1.00  0.00     0.032 A 
ENDBRANCH   7  30
TORSDOF 5
ENDMDL
MODEL 9
REMARK VINA RESULT:      -9.1      3.565      8.857
REMARK  5 active torsions:
REMARK  status: ('A' for Active; 'I' for Inactive)
REMARK    1  A    between atoms: C_6  and  S_7 
REMARK    2  A    between atoms: S_7  and  C_8 
REMARK    3  A    between atoms: C_8  and  C_9 
REMARK       I    between atoms: C_9  and  N_10 
REMARK    4  A    between atoms: N_10  and  C_11 
REMARK    5  A    between atoms: N_22  and  C_23 
ROOT
HETATM    1  C   UNL     1     -13.908   0.268 -33.634  1.00  0.00     0.001 A 
HETATM    2  C   UNL     1     -12.550  -0.020 -33.511  1.00  0.00     0.019 A 
HETATM    3  C   UNL     1     -11.613   1.022 -33.528  1.00  0.00     0.061 A 
HETATM    4  C   UNL     1     -12.021   2.342 -33.671  1.00  0.00     0.075 A 
HETATM    5  N   UNL     1     -11.109   3.396 -33.763  1.00  0.00    -0.223 NA
HETATM    6  C   UNL     1      -9.849   3.148 -33.582  1.00  0.00     0.177 A 
HETATM    7  N   UNL     1      -9.330   1.879 -33.307  1.00  0.00    -0.256 N 
HETATM    8  C   UNL     1     -10.174   0.759 -33.347  1.00  0.00     0.267 A 
HETATM    9  O   UNL     1      -9.823  -0.409 -33.197  1.00  0.00    -0.267 OA
HETATM   10  C   UNL     1     -13.386   2.623 -33.778  1.00  0.00     0.032 A 
HETATM   11  C   UNL     1     -14.327   1.591 -33.761  1.00  0.00     0.002 A 
ENDROOT
BRANCH   6  12
HETATM   12  S   UNL     1      -8.738   4.489 -33.851  1.00  0.00    -0.082 SA
BRANCH  12  13
HETATM   13  C   UNL     1      -8.618   5.246 -32.207  1.00  0.00     0.185 C 
BRANCH  13  14
HETATM   14  C   UNL     1      -7.175   5.337 -31.723  1.00  0.00     0.231 C 
HETATM   15  N   UNL     1      -6.255   4.861 -32.638  1.00  0.00    -0.326 N 
HETATM   16  H   UNL     1      -6.652   4.405 -33.458  1.00  0.00     0.169 HD
HETATM   17  O   UNL     1      -6.912   5.830 -30.630  1.00  0.00    -0.272 OA
BRANCH  15  18
HETATM   18  C   UNL     1      -4.849   4.885 -32.554  1.00  0.00     0.037 A 
HETATM   19  C   UNL     1      -4.149   5.060 -31.354  1.00  0.00     0.061 A 
HETATM   20  C   UNL     1      -2.775   5.104 -31.432  1.00  0.00     0.065 A 
HETATM   21  C   UNL     1      -2.088   4.975 -32.638  1.00  0.00     0.063 A 
HETATM   22  N   UNL     1      -1.833   5.283 -30.425  1.00  0.00    -0.306 N 
HETATM   23  N   UNL     1      -0.728   5.074 -32.372  1.00  0.00    -0.307 N 
HETATM   24  C   UNL     1      -2.739   4.791 -33.830  1.00  0.00     0.034 A 
HETATM   25  C   UNL     1      -0.553   5.269 -30.994  1.00  0.00     0.325 A 
HETATM   26  H   UNL     1       0.031   5.025 -33.030  1.00  0.00     0.170 HD
HETATM   27  O   UNL     1       0.508   5.404 -30.411  1.00  0.00    -0.247 OA
HETATM   28  C   UNL     1      -4.138   4.748 -33.776  1.00  0.00     0.032 A 
HETATM   29  H   UNL     1      -2.012   5.408 -29.441  1.00  0.00     0.170 HD
ENDBRANCH  15  18
ENDBRANCH  13  14
ENDBRANCH  12  13
ENDBRANCH   6  12
BRANCH   7  30
HETATM   30  C   UNL     1      -7.967   1.655 -32.914  1.00  0.00     0.046 A 
HETATM   31  C   UNL     1      -7.603   1.640 -31.559  1.00  0.00     0.055 A 
HETATM   32  C   UNL     1      -6.266   1.471 -31.175  1.00  0.00     0.058 A 
HETATM   33 CL   UNL     1      -5.913   1.446 -29.484  1.00  0.00    -0.082 Cl
HETATM   34  C   UNL     1      -5.273   1.329 -32.148  1.00  0.00     0.055 A 
HETATM   35 CL   UNL     1      -3.605   1.127 -31.751  1.00  0.00    -0.083 Cl
HETATM   36  C   UNL     1      -5.621   1.359 -33.499  1.00  0.00     0.028 A 
HETATM   37  C   UNL     1      -6.957   1.525 -33.880  1.00  0.00     0.032 A 
ENDBRANCH   7  30
TORSDOF 5
ENDMDL
MODEL 10
REMARK VINA RESULT:      -8.8      3.964      8.502
REMARK  5 active torsions:
REMARK  status: ('A' for Active; 'I' for Inactive)
REMARK    1  A    between atoms: C_6  and  S_7 
REMARK    2  A    between atoms: S_7  and  C_8 
REMARK    3  A    between atoms: C_8  and  C_9 
REMARK       I    between atoms: C_9  and  N_10 
REMARK    4  A    between atoms: N_10  and  C_11 
REMARK    5  A    between atoms: N_22  and  C_23 
ROOT
HETATM    1  C   UNL     1      -6.564  -1.390 -33.622  1.00  0.00     0.001 A 
HETATM    2  C   UNL     1      -7.885  -1.159 -33.239  1.00  0.00     0.019 A 
HETATM    3  C   UNL     1      -8.494   0.065 -33.547  1.00  0.00     0.061 A 
HETATM    4  C   UNL     1      -7.796   1.055 -34.227  1.00  0.00     0.075 A 
HETATM    5  N   UNL     1      -8.351   2.311 -34.485  1.00  0.00    -0.223 NA
HETATM    6  C   UNL     1      -9.598   2.513 -34.195  1.00  0.00     0.177 A 
HETATM    7  N   UNL     1     -10.437   1.553 -33.624  1.00  0.00    -0.256 N 
HETATM    8  C   UNL     1      -9.904   0.324 -33.206  1.00  0.00     0.267 A 
HETATM    9  O   UNL     1     -10.522  -0.566 -32.626  1.00  0.00    -0.267 OA
HETATM   10  C   UNL     1      -6.478   0.809 -34.620  1.00  0.00     0.032 A 
HETATM   11  C   UNL     1      -5.862  -0.409 -34.319  1.00  0.00     0.002 A 
ENDROOT
BRANCH   6  12
HETATM   12  S   UNL     1     -10.199   4.156 -34.413  1.00  0.00    -0.082 SA
BRANCH  12  13
HETATM   13  C   UNL     1      -9.758   4.953 -32.844  1.00  0.00     0.185 C 
BRANCH  13  14
HETATM   14  C   UNL     1      -8.319   5.457 -32.843  1.00  0.00     0.231 C 
HETATM   15  N   UNL     1      -7.380   4.445 -32.772  1.00  0.00    -0.326 N 
HETATM   16  H   UNL     1      -7.756   3.513 -32.612  1.00  0.00     0.169 HD
HETATM   17  O   UNL     1      -8.077   6.658 -32.935  1.00  0.00    -0.272 OA
BRANCH  15  18
HETATM   18  C   UNL     1      -5.977   4.552 -32.846  1.00  0.00     0.037 A 
HETATM   19  C   UNL     1      -5.132   4.432 -31.736  1.00  0.00     0.061 A 
HETATM   20  C   UNL     1      -3.784   4.601 -31.955  1.00  0.00     0.065 A 
HETATM   21  C   UNL     1      -3.257   4.872 -33.216  1.00  0.00     0.063 A 
HETATM   22  N   UNL     1      -2.725   4.558 -31.054  1.00  0.00    -0.306 N 
HETATM   23  N   UNL     1      -1.879   4.995 -33.091  1.00  0.00    -0.307 N 
HETATM   24  C   UNL     1      -4.052   4.985 -34.328  1.00  0.00     0.034 A 
HETATM   25  C   UNL     1      -1.532   4.805 -31.745  1.00  0.00     0.325 A 
HETATM   26  H   UNL     1      -1.212   5.193 -33.817  1.00  0.00     0.170 HD
HETATM   27  O   UNL     1      -0.409   4.849 -31.273  1.00  0.00    -0.247 OA
HETATM   28  C   UNL     1      -5.429   4.822 -34.128  1.00  0.00     0.032 A 
HETATM   29  H   UNL     1      -2.778   4.386 -30.062  1.00  0.00     0.170 HD
ENDBRANCH  15  18
ENDBRANCH  13  14
ENDBRANCH  12  13
ENDBRANCH   6  12
BRANCH   7  30
HETATM   30  C   UNL     1     -11.857   1.725 -33.493  1.00  0.00     0.046 A 
HETATM   31  C   UNL     1     -12.389   2.633 -32.564  1.00  0.00     0.055 A 
HETATM   32  C   UNL     1     -13.773   2.767 -32.401  1.00  0.00     0.058 A 
HETATM   33 CL   UNL     1     -14.338   3.923 -31.247  1.00  0.00    -0.082 Cl
HETATM   34  C   UNL     1     -14.646   1.981 -33.159  1.00  0.00     0.055 A 
HETATM   35 CL   UNL     1     -16.362   2.083 -33.006  1.00  0.00    -0.083 Cl
HETATM   36  C   UNL     1     -14.128   1.063 -34.075  1.00  0.00     0.028 A 
HETATM   37  C   UNL     1     -12.744   0.933 -34.238  1.00  0.00     0.032 A 
ENDBRANCH   7  30
TORSDOF 5
ENDMDL
