MODEL 1
REMARK VINA RESULT:      -9.9      0.000      0.000
REMARK  11 active torsions:
REMARK  status: ('A' for Active; 'I' for Inactive)
REMARK    1  A    between atoms: O_2  and  C_3 
REMARK    2  A    between atoms: C_6  and  C_7 
REMARK    3  A    between atoms: C_7  and  C_8 
REMARK    4  A    between atoms: C_8  and  N_9 
REMARK    5  A    between atoms: C_13  and  C_14 
REMARK    6  A    between atoms: C_14  and  C_15 
REMARK    7  A    between atoms: C_25  and  N_26 
REMARK    8  A    between atoms: N_26  and  C_27 
REMARK    9  A    between atoms: C_27  and  C_28 
REMARK   10  A    between atoms: C_28  and  O_29 
REMARK   11  A    between atoms: C_28  and  C_30 
ROOT
HETATM    1  C   UNL     1      -4.521   3.388 -32.943  1.00  0.00     0.074 A 
HETATM    2  C   UNL     1      -4.241   4.754 -33.468  1.00  0.00     0.266 A 
HETATM    3  O   UNL     1      -5.073   5.322 -34.180  1.00  0.00    -0.267 OA
HETATM    4  N   UNL     1      -3.026   5.309 -33.097  1.00  0.00    -0.273 N 
HETATM    5  C   UNL     1      -2.193   4.613 -32.240  1.00  0.00     0.138 A 
HETATM    6  N   UNL     1      -2.460   3.447 -31.745  1.00  0.00    -0.218 NA
HETATM    7  C   UNL     1      -2.667   6.562 -33.584  1.00  0.00     0.102 A 
HETATM    8  C   UNL     1      -1.508   7.142 -33.249  1.00  0.00     0.018 A 
HETATM    9  C   UNL     1      -0.599   6.469 -32.360  1.00  0.00     0.005 A 
HETATM   10  C   UNL     1      -0.906   5.265 -31.865  1.00  0.00     0.051 A 
HETATM   11  C   UNL     1      -3.626   2.826 -32.099  1.00  0.00     0.121 A 
ENDROOT
BRANCH   1  12
HETATM   12  C   UNL     1      -5.685   2.667 -33.439  1.00  0.00     0.045 C 
BRANCH  12  13
HETATM   13  C   UNL     1      -6.924   2.791 -32.949  1.00  0.00     0.077 C 
HETATM   14  S   UNL     1      -7.392   3.480 -31.446  1.00  0.00    -0.055 SA
HETATM   15  C   UNL     1      -9.104   3.341 -31.812  1.00  0.00     0.148 C 
HETATM   16  N   UNL     1      -9.270   2.811 -33.075  1.00  0.00    -0.298 N 
HETATM   17  S   UNL     1     -10.285   3.817 -30.734  1.00  0.00    -0.052 SA
HETATM   18  C   UNL     1      -8.124   2.393 -33.728  1.00  0.00     0.266 C 
HETATM   19  O   UNL     1      -8.079   1.793 -34.795  1.00  0.00    -0.266 OA
BRANCH  16  20
HETATM   20  C   UNL     1     -10.546   2.732 -33.779  1.00  0.00     0.138 C 
BRANCH  20  21
HETATM   21  C   UNL     1     -11.137   1.322 -33.834  1.00  0.00     0.059 C 
BRANCH  21  22
HETATM   22  C   UNL     1     -12.627   1.386 -33.595  1.00  0.00    -0.057 A 
HETATM   23  C   UNL     1     -13.494   0.476 -34.214  1.00  0.00     0.010 A 
HETATM   24  C   UNL     1     -14.880   0.588 -34.052  1.00  0.00     0.037 A 
HETATM   25  C   UNL     1     -15.415   1.615 -33.275  1.00  0.00     0.068 A 
HETATM   26  C   UNL     1     -14.555   2.527 -32.663  1.00  0.00     0.037 A 
HETATM   27  C   UNL     1     -13.171   2.413 -32.815  1.00  0.00     0.010 A 
BRANCH  25  28
HETATM   28  O   UNL     1     -16.745   1.846 -33.050  1.00  0.00    -0.356 OA
HETATM   29  C   UNL     1     -17.071   2.923 -32.182  1.00  0.00     0.210 C 
ENDBRANCH  25  28
ENDBRANCH  21  22
ENDBRANCH  20  21
ENDBRANCH  16  20
ENDBRANCH  12  13
ENDBRANCH   1  12
BRANCH  11  30
HETATM   30  N   UNL     1      -3.817   1.548 -31.582  1.00  0.00    -0.274 NA
HETATM   31  H   UNL     1      -4.822   1.362 -31.634  1.00  0.00     0.129 HD
BRANCH  30  32
HETATM   32  C   UNL     1      -3.139   0.388 -32.193  1.00  0.00     0.130 C 
BRANCH  32  33
HETATM   33  C   UNL     1      -3.818  -0.943 -31.806  1.00  0.00     0.164 C 
BRANCH  33  34
HETATM   34  O   UNL     1      -2.827  -1.934 -31.500  1.00  0.00    -0.390 OA
HETATM   35  H   UNL     1      -1.979  -1.465 -31.406  1.00  0.00     0.210 HD
ENDBRANCH  33  34
BRANCH  33  36
HETATM   36  C   UNL     1      -4.803  -1.452 -32.842  1.00  0.00    -0.029 A 
HETATM   37  C   UNL     1      -6.110  -0.942 -32.874  1.00  0.00     0.010 A 
HETATM   38  C   UNL     1      -7.031  -1.408 -33.813  1.00  0.00     0.001 A 
HETATM   39  C   UNL     1      -6.660  -2.390 -34.728  1.00  0.00     0.000 A 
HETATM   40  C   UNL     1      -5.360  -2.892 -34.722  1.00  0.00     0.001 A 
HETATM   41  C   UNL     1      -4.435  -2.420 -33.789  1.00  0.00     0.010 A 
ENDBRANCH  33  36
ENDBRANCH  32  33
ENDBRANCH  30  32
ENDBRANCH  11  30
TORSDOF 11
ENDMDL
MODEL 2
REMARK VINA RESULT:      -9.6      2.245      2.707
REMARK  11 active torsions:
REMARK  status: ('A' for Active; 'I' for Inactive)
REMARK    1  A    between atoms: O_2  and  C_3 
REMARK    2  A    between atoms: C_6  and  C_7 
REMARK    3  A    between atoms: C_7  and  C_8 
REMARK    4  A    between atoms: C_8  and  N_9 
REMARK    5  A    between atoms: C_13  and  C_14 
REMARK    6  A    between atoms: C_14  and  C_15 
REMARK    7  A    between atoms: C_25  and  N_26 
REMARK    8  A    between atoms: N_26  and  C_27 
REMARK    9  A    between atoms: C_27  and  C_28 
REMARK   10  A    between atoms: C_28  and  O_29 
REMARK   11  A    between atoms: C_28  and  C_30 
ROOT
HETATM    1  C   UNL     1      -4.264   3.772 -30.882  1.00  0.00     0.074 A 
HETATM    2  C   UNL     1      -4.049   5.208 -31.215  1.00  0.00     0.266 A 
HETATM    3  O   UNL     1      -4.592   6.085 -30.538  1.00  0.00    -0.267 OA
HETATM    4  N   UNL     1      -3.215   5.463 -32.293  1.00  0.00    -0.273 N 
HETATM    5  C   UNL     1      -2.601   4.407 -32.943  1.00  0.00     0.138 A 
HETATM    6  N   UNL     1      -2.751   3.162 -32.621  1.00  0.00    -0.218 NA
HETATM    7  C   UNL     1      -3.000   6.776 -32.699  1.00  0.00     0.102 A 
HETATM    8  C   UNL     1      -2.198   7.072 -33.729  1.00  0.00     0.018 A 
HETATM    9  C   UNL     1      -1.530   6.019 -34.445  1.00  0.00     0.005 A 
HETATM   10  C   UNL     1      -1.705   4.742 -34.086  1.00  0.00     0.051 A 
HETATM   11  C   UNL     1      -3.589   2.838 -31.590  1.00  0.00     0.121 A 
ENDROOT
BRANCH   1  12
HETATM   12  C   UNL     1      -5.269   3.422 -29.889  1.00  0.00     0.045 C 
BRANCH  12  13
HETATM   13  C   UNL     1      -6.578   3.299 -30.138  1.00  0.00     0.077 C 
HETATM   14  S   UNL     1      -7.783   4.521 -30.037  1.00  0.00    -0.055 SA
HETATM   15  C   UNL     1      -9.030   3.471 -30.692  1.00  0.00     0.148 C 
HETATM   16  N   UNL     1      -8.489   2.240 -31.001  1.00  0.00    -0.298 N 
HETATM   17  S   UNL     1     -10.607   3.980 -30.887  1.00  0.00    -0.052 SA
HETATM   18  C   UNL     1      -7.170   2.033 -30.638  1.00  0.00     0.266 C 
HETATM   19  O   UNL     1      -6.557   0.976 -30.718  1.00  0.00    -0.266 OA
BRANCH  16  20
HETATM   20  C   UNL     1      -9.188   1.190 -31.734  1.00  0.00     0.138 C 
BRANCH  20  21
HETATM   21  C   UNL     1      -8.845   1.140 -33.224  1.00  0.00     0.059 C 
BRANCH  21  22
HETATM   22  C   UNL     1      -9.845   1.960 -34.005  1.00  0.00    -0.057 A 
HETATM   23  C   UNL     1      -9.561   3.281 -34.373  1.00  0.00     0.010 A 
HETATM   24  C   UNL     1     -10.522   4.062 -35.027  1.00  0.00     0.037 A 
HETATM   25  C   UNL     1     -11.780   3.532 -35.314  1.00  0.00     0.068 A 
HETATM   26  C   UNL     1     -12.069   2.219 -34.942  1.00  0.00     0.037 A 
HETATM   27  C   UNL     1     -11.110   1.434 -34.297  1.00  0.00     0.010 A 
BRANCH  25  28
HETATM   28  O   UNL     1     -12.809   4.190 -35.931  1.00  0.00    -0.356 OA
HETATM   29  C   UNL     1     -12.975   5.565 -35.610  1.00  0.00     0.210 C 
ENDBRANCH  25  28
ENDBRANCH  21  22
ENDBRANCH  20  21
ENDBRANCH  16  20
ENDBRANCH  12  13
ENDBRANCH   1  12
BRANCH  11  30
HETATM   30  N   UNL     1      -3.753   1.478 -31.342  1.00  0.00    -0.274 NA
HETATM   31  H   UNL     1      -4.745   1.340 -31.131  1.00  0.00     0.129 HD
BRANCH  30  32
HETATM   32  C   UNL     1      -3.397   0.486 -32.374  1.00  0.00     0.130 C 
BRANCH  32  33
HETATM   33  C   UNL     1      -3.827  -0.941 -31.971  1.00  0.00     0.164 C 
BRANCH  33  34
HETATM   34  O   UNL     1      -2.679  -1.723 -31.614  1.00  0.00    -0.390 OA
HETATM   35  H   UNL     1      -2.120  -1.781 -32.409  1.00  0.00     0.210 HD
ENDBRANCH  33  34
BRANCH  33  36
HETATM   36  C   UNL     1      -4.668  -1.646 -33.020  1.00  0.00    -0.029 A 
HETATM   37  C   UNL     1      -5.945  -1.159 -33.336  1.00  0.00     0.010 A 
HETATM   38  C   UNL     1      -6.735  -1.802 -34.289  1.00  0.00     0.001 A 
HETATM   39  C   UNL     1      -6.262  -2.941 -34.936  1.00  0.00     0.000 A 
HETATM   40  C   UNL     1      -4.987  -3.426 -34.647  1.00  0.00     0.001 A 
HETATM   41  C   UNL     1      -4.193  -2.778 -33.700  1.00  0.00     0.010 A 
ENDBRANCH  33  36
ENDBRANCH  32  33
ENDBRANCH  30  32
ENDBRANCH  11  30
TORSDOF 11
ENDMDL
MODEL 3
REMARK VINA RESULT:      -9.3      3.800      8.101
REMARK  11 active torsions:
REMARK  status: ('A' for Active; 'I' for Inactive)
REMARK    1  A    between atoms: O_2  and  C_3 
REMARK    2  A    between atoms: C_6  and  C_7 
REMARK    3  A    between atoms: C_7  and  C_8 
REMARK    4  A    between atoms: C_8  and  N_9 
REMARK    5  A    between atoms: C_13  and  C_14 
REMARK    6  A    between atoms: C_14  and  C_15 
REMARK    7  A    between atoms: C_25  and  N_26 
REMARK    8  A    between atoms: N_26  and  C_27 
REMARK    9  A    between atoms: C_27  and  C_28 
REMARK   10  A    between atoms: C_28  and  O_29 
REMARK   11  A    between atoms: C_28  and  C_30 
ROOT
HETATM    1  C   UNL     1      -6.801   0.436 -32.424  1.00  0.00     0.074 A 
HETATM    2  C   UNL     1      -7.404  -0.632 -33.270  1.00  0.00     0.266 A 
HETATM    3  O   UNL     1      -8.607  -0.595 -33.542  1.00  0.00    -0.267 OA
HETATM    4  N   UNL     1      -6.535  -1.617 -33.713  1.00  0.00    -0.273 N 
HETATM    5  C   UNL     1      -5.190  -1.527 -33.406  1.00  0.00     0.138 A 
HETATM    6  N   UNL     1      -4.659  -0.572 -32.712  1.00  0.00    -0.218 NA
HETATM    7  C   UNL     1      -7.028  -2.677 -34.468  1.00  0.00     0.102 A 
HETATM    8  C   UNL     1      -6.228  -3.648 -34.925  1.00  0.00     0.018 A 
HETATM    9  C   UNL     1      -4.818  -3.610 -34.640  1.00  0.00     0.005 A 
HETATM   10  C   UNL     1      -4.302  -2.608 -33.920  1.00  0.00     0.051 A 
HETATM   11  C   UNL     1      -5.465   0.414 -32.213  1.00  0.00     0.121 A 
ENDROOT
BRANCH   1  12
HETATM   12  C   UNL     1      -7.678   1.396 -31.769  1.00  0.00     0.045 C 
BRANCH  12  13
HETATM   13  C   UNL     1      -7.959   2.617 -32.239  1.00  0.00     0.077 C 
HETATM   14  S   UNL     1      -8.978   3.022 -33.562  1.00  0.00    -0.055 SA
HETATM   15  C   UNL     1      -8.836   4.747 -33.261  1.00  0.00     0.148 C 
HETATM   16  N   UNL     1      -8.051   4.963 -32.147  1.00  0.00    -0.298 N 
HETATM   17  S   UNL     1      -9.586   5.883 -34.227  1.00  0.00    -0.052 SA
HETATM   18  C   UNL     1      -7.452   3.850 -31.584  1.00  0.00     0.266 C 
HETATM   19  O   UNL     1      -6.633   3.854 -30.674  1.00  0.00    -0.266 OA
BRANCH  16  20
HETATM   20  C   UNL     1      -7.875   6.258 -31.497  1.00  0.00     0.138 C 
BRANCH  20  21
HETATM   21  C   UNL     1      -6.791   7.130 -32.135  1.00  0.00     0.059 C 
BRANCH  21  22
HETATM   22  C   UNL     1      -5.586   7.190 -31.227  1.00  0.00    -0.057 A 
HETATM   23  C   UNL     1      -4.297   7.341 -31.752  1.00  0.00     0.010 A 
HETATM   24  C   UNL     1      -3.177   7.317 -30.912  1.00  0.00     0.037 A 
HETATM   25  C   UNL     1      -3.334   7.134 -29.538  1.00  0.00     0.068 A 
HETATM   26  C   UNL     1      -4.617   6.976 -29.012  1.00  0.00     0.037 A 
HETATM   27  C   UNL     1      -5.737   7.008 -29.846  1.00  0.00     0.010 A 
BRANCH  25  28
HETATM   28  O   UNL     1      -2.327   7.075 -28.613  1.00  0.00    -0.356 OA
HETATM   29  C   UNL     1      -1.950   8.300 -27.997  1.00  0.00     0.210 C 
ENDBRANCH  25  28
ENDBRANCH  21  22
ENDBRANCH  20  21
ENDBRANCH  16  20
ENDBRANCH  12  13
ENDBRANCH   1  12
BRANCH  11  30
HETATM   30  N   UNL     1      -4.838   1.372 -31.422  1.00  0.00    -0.274 NA
HETATM   31  H   UNL     1      -4.936   1.058 -30.453  1.00  0.00     0.129 HD
BRANCH  30  32
HETATM   32  C   UNL     1      -3.410   1.684 -31.623  1.00  0.00     0.130 C 
BRANCH  32  33
HETATM   33  C   UNL     1      -3.130   3.197 -31.501  1.00  0.00     0.164 C 
BRANCH  33  34
HETATM   34  O   UNL     1      -3.943   3.770 -30.467  1.00  0.00    -0.390 OA
HETATM   35  H   UNL     1      -3.804   3.231 -29.668  1.00  0.00     0.210 HD
ENDBRANCH  33  34
BRANCH  33  36
HETATM   36  C   UNL     1      -3.285   3.956 -32.806  1.00  0.00    -0.029 A 
HETATM   37  C   UNL     1      -4.560   4.137 -33.363  1.00  0.00     0.010 A 
HETATM   38  C   UNL     1      -4.719   4.822 -34.568  1.00  0.00     0.001 A 
HETATM   39  C   UNL     1      -3.606   5.332 -35.233  1.00  0.00     0.000 A 
HETATM   40  C   UNL     1      -2.335   5.178 -34.683  1.00  0.00     0.001 A 
HETATM   41  C   UNL     1      -2.177   4.501 -33.473  1.00  0.00     0.010 A 
ENDBRANCH  33  36
ENDBRANCH  32  33
ENDBRANCH  30  32
ENDBRANCH  11  30
TORSDOF 11
ENDMDL
MODEL 4
REMARK VINA RESULT:      -9.3      2.480      8.027
REMARK  11 active torsions:
REMARK  status: ('A' for Active; 'I' for Inactive)
REMARK    1  A    between atoms: O_2  and  C_3 
REMARK    2  A    between atoms: C_6  and  C_7 
REMARK    3  A    between atoms: C_7  and  C_8 
REMARK    4  A    between atoms: C_8  and  N_9 
REMARK    5  A    between atoms: C_13  and  C_14 
REMARK    6  A    between atoms: C_14  and  C_15 
REMARK    7  A    between atoms: C_25  and  N_26 
REMARK    8  A    between atoms: N_26  and  C_27 
REMARK    9  A    between atoms: C_27  and  C_28 
REMARK   10  A    between atoms: C_28  and  O_29 
REMARK   11  A    between atoms: C_28  and  C_30 
ROOT
HETATM    1  C   UNL     1      -9.547   2.468 -34.096  1.00  0.00     0.074 A 
HETATM    2  C   UNL     1     -10.919   2.808 -34.565  1.00  0.00     0.266 A 
HETATM    3  O   UNL     1     -11.118   3.865 -35.170  1.00  0.00    -0.267 OA
HETATM    4  N   UNL     1     -11.905   1.874 -34.286  1.00  0.00    -0.273 N 
HETATM    5  C   UNL     1     -11.562   0.689 -33.660  1.00  0.00     0.138 A 
HETATM    6  N   UNL     1     -10.360   0.373 -33.298  1.00  0.00    -0.218 NA
HETATM    7  C   UNL     1     -13.222   2.138 -34.647  1.00  0.00     0.102 A 
HETATM    8  C   UNL     1     -14.207   1.264 -34.406  1.00  0.00     0.018 A 
HETATM    9  C   UNL     1     -13.914   0.013 -33.759  1.00  0.00     0.005 A 
HETATM   10  C   UNL     1     -12.661  -0.283 -33.398  1.00  0.00     0.051 A 
HETATM   11  C   UNL     1      -9.346   1.266 -33.510  1.00  0.00     0.121 A 
ENDROOT
BRANCH   1  12
HETATM   12  C   UNL     1      -8.501   3.477 -34.185  1.00  0.00     0.045 C 
BRANCH  12  13
HETATM   13  C   UNL     1      -8.259   4.409 -33.255  1.00  0.00     0.077 C 
HETATM   14  S   UNL     1      -9.218   4.790 -31.881  1.00  0.00    -0.055 SA
HETATM   15  C   UNL     1      -8.031   5.925 -31.255  1.00  0.00     0.148 C 
HETATM   16  N   UNL     1      -6.931   5.954 -32.086  1.00  0.00    -0.298 N 
HETATM   17  S   UNL     1      -8.282   6.787 -29.849  1.00  0.00    -0.052 SA
HETATM   18  C   UNL     1      -7.017   5.222 -33.257  1.00  0.00     0.266 C 
HETATM   19  O   UNL     1      -6.200   5.219 -34.169  1.00  0.00    -0.266 OA
BRANCH  16  20
HETATM   20  C   UNL     1      -5.679   6.639 -31.778  1.00  0.00     0.138 C 
BRANCH  20  21
HETATM   21  C   UNL     1      -4.847   5.953 -30.693  1.00  0.00     0.059 C 
BRANCH  21  22
HETATM   22  C   UNL     1      -4.518   4.542 -31.120  1.00  0.00    -0.057 A 
HETATM   23  C   UNL     1      -5.127   3.444 -30.499  1.00  0.00     0.010 A 
HETATM   24  C   UNL     1      -4.761   2.137 -30.844  1.00  0.00     0.037 A 
HETATM   25  C   UNL     1      -3.777   1.914 -31.808  1.00  0.00     0.068 A 
HETATM   26  C   UNL     1      -3.164   3.007 -32.423  1.00  0.00     0.037 A 
HETATM   27  C   UNL     1      -3.533   4.312 -32.087  1.00  0.00     0.010 A 
BRANCH  25  28
HETATM   28  O   UNL     1      -3.318   0.694 -32.223  1.00  0.00    -0.356 OA
HETATM   29  C   UNL     1      -3.282  -0.342 -31.250  1.00  0.00     0.210 C 
ENDBRANCH  25  28
ENDBRANCH  21  22
ENDBRANCH  20  21
ENDBRANCH  16  20
ENDBRANCH  12  13
ENDBRANCH   1  12
BRANCH  11  30
HETATM   30  N   UNL     1      -8.092   0.888 -33.036  1.00  0.00    -0.274 NA
HETATM   31  H   UNL     1      -8.073   1.131 -32.042  1.00  0.00     0.129 HD
BRANCH  30  32
HETATM   32  C   UNL     1      -7.651  -0.516 -33.137  1.00  0.00     0.130 C 
BRANCH  32  33
HETATM   33  C   UNL     1      -6.473  -0.678 -34.121  1.00  0.00     0.164 C 
BRANCH  33  34
HETATM   34  O   UNL     1      -6.800  -0.089 -35.388  1.00  0.00    -0.390 OA
HETATM   35  H   UNL     1      -7.314  -0.752 -35.881  1.00  0.00     0.210 HD
ENDBRANCH  33  34
BRANCH  33  36
HETATM   36  C   UNL     1      -6.005  -2.112 -34.285  1.00  0.00    -0.029 A 
HETATM   37  C   UNL     1      -4.669  -2.447 -34.021  1.00  0.00     0.010 A 
HETATM   38  C   UNL     1      -4.220  -3.759 -34.179  1.00  0.00     0.001 A 
HETATM   39  C   UNL     1      -5.099  -4.752 -34.606  1.00  0.00     0.000 A 
HETATM   40  C   UNL     1      -6.435  -4.438 -34.853  1.00  0.00     0.001 A 
HETATM   41  C   UNL     1      -6.886  -3.128 -34.687  1.00  0.00     0.010 A 
ENDBRANCH  33  36
ENDBRANCH  32  33
ENDBRANCH  30  32
ENDBRANCH  11  30
TORSDOF 11
ENDMDL
MODEL 5
REMARK VINA RESULT:      -9.3      3.562      9.789
REMARK  11 active torsions:
REMARK  status: ('A' for Active; 'I' for Inactive)
REMARK    1  A    between atoms: O_2  and  C_3 
REMARK    2  A    between atoms: C_6  and  C_7 
REMARK    3  A    between atoms: C_7  and  C_8 
REMARK    4  A    between atoms: C_8  and  N_9 
REMARK    5  A    between atoms: C_13  and  C_14 
REMARK    6  A    between atoms: C_14  and  C_15 
REMARK    7  A    between atoms: C_25  and  N_26 
REMARK    8  A    between atoms: N_26  and  C_27 
REMARK    9  A    between atoms: C_27  and  C_28 
REMARK   10  A    between atoms: C_28  and  O_29 
REMARK   11  A    between atoms: C_28  and  C_30 
ROOT
HETATM    1  C   UNL     1      -5.238   3.203 -33.087  1.00  0.00     0.074 A 
HETATM    2  C   UNL     1      -6.504   3.768 -33.632  1.00  0.00     0.266 A 
HETATM    3  O   UNL     1      -6.478   4.811 -34.290  1.00  0.00    -0.267 OA
HETATM    4  N   UNL     1      -7.657   3.050 -33.358  1.00  0.00    -0.273 N 
HETATM    5  C   UNL     1      -7.567   1.855 -32.667  1.00  0.00     0.138 A 
HETATM    6  N   UNL     1      -6.460   1.340 -32.236  1.00  0.00    -0.218 NA
HETATM    7  C   UNL     1      -8.887   3.535 -33.790  1.00  0.00     0.102 A 
HETATM    8  C   UNL     1     -10.027   2.874 -33.556  1.00  0.00     0.018 A 
HETATM    9  C   UNL     1      -9.999   1.625 -32.843  1.00  0.00     0.005 A 
HETATM   10  C   UNL     1      -8.838   1.119 -32.413  1.00  0.00     0.051 A 
HETATM   11  C   UNL     1      -5.289   2.016 -32.440  1.00  0.00     0.121 A 
ENDROOT
BRANCH   1  12
HETATM   12  C   UNL     1      -4.019   3.994 -33.171  1.00  0.00     0.045 C 
BRANCH  12  13
HETATM   13  C   UNL     1      -3.653   4.928 -32.286  1.00  0.00     0.077 C 
HETATM   14  S   UNL     1      -4.565   5.528 -30.959  1.00  0.00    -0.055 SA
HETATM   15  C   UNL     1      -3.229   6.500 -30.363  1.00  0.00     0.148 C 
HETATM   16  N   UNL     1      -2.122   6.314 -31.166  1.00  0.00    -0.298 N 
HETATM   17  S   UNL     1      -3.368   7.468 -29.011  1.00  0.00    -0.052 SA
HETATM   18  C   UNL     1      -2.300   5.540 -32.298  1.00  0.00     0.266 C 
HETATM   19  O   UNL     1      -1.477   5.361 -33.187  1.00  0.00    -0.266 OA
BRANCH  16  20
HETATM   20  C   UNL     1      -0.786   6.816 -30.861  1.00  0.00     0.138 C 
BRANCH  20  21
HETATM   21  C   UNL     1      -0.006   5.945 -29.875  1.00  0.00     0.059 C 
BRANCH  21  22
HETATM   22  C   UNL     1       0.333   6.750 -28.643  1.00  0.00    -0.057 A 
HETATM   23  C   UNL     1       1.067   7.939 -28.742  1.00  0.00     0.010 A 
HETATM   24  C   UNL     1       1.446   8.641 -27.591  1.00  0.00     0.037 A 
HETATM   25  C   UNL     1       1.103   8.158 -26.328  1.00  0.00     0.068 A 
HETATM   26  C   UNL     1       0.378   6.969 -26.227  1.00  0.00     0.037 A 
HETATM   27  C   UNL     1      -0.010   6.271 -27.373  1.00  0.00     0.010 A 
BRANCH  25  28
HETATM   28  O   UNL     1       1.423   8.735 -25.131  1.00  0.00    -0.356 OA
HETATM   29  C   UNL     1       2.802   8.979 -24.885  1.00  0.00     0.210 C 
ENDBRANCH  25  28
ENDBRANCH  21  22
ENDBRANCH  20  21
ENDBRANCH  16  20
ENDBRANCH  12  13
ENDBRANCH   1  12
BRANCH  11  30
HETATM   30  N   UNL     1      -4.147   1.436 -31.894  1.00  0.00    -0.274 NA
HETATM   31  H   UNL     1      -4.424   1.053 -30.985  1.00  0.00     0.129 HD
BRANCH  30  32
HETATM   32  C   UNL     1      -3.444   0.356 -32.612  1.00  0.00     0.130 C 
BRANCH  32  33
HETATM   33  C   UNL     1      -3.841  -1.039 -32.083  1.00  0.00     0.164 C 
BRANCH  33  34
HETATM   34  O   UNL     1      -2.701  -1.694 -31.509  1.00  0.00    -0.390 OA
HETATM   35  H   UNL     1      -2.763  -1.574 -30.546  1.00  0.00     0.210 HD
ENDBRANCH  33  34
BRANCH  33  36
HETATM   36  C   UNL     1      -4.516  -1.918 -33.120  1.00  0.00    -0.029 A 
HETATM   37  C   UNL     1      -3.962  -3.164 -33.449  1.00  0.00     0.010 A 
HETATM   38  C   UNL     1      -4.564  -3.979 -34.408  1.00  0.00     0.001 A 
HETATM   39  C   UNL     1      -5.725  -3.558 -35.054  1.00  0.00     0.000 A 
HETATM   40  C   UNL     1      -6.298  -2.331 -34.724  1.00  0.00     0.001 A 
HETATM   41  C   UNL     1      -5.701  -1.519 -33.758  1.00  0.00     0.010 A 
ENDBRANCH  33  36
ENDBRANCH  32  33
ENDBRANCH  30  32
ENDBRANCH  11  30
TORSDOF 11
ENDMDL
MODEL 6
REMARK VINA RESULT:      -9.1      2.149      8.803
REMARK  11 active torsions:
REMARK  status: ('A' for Active; 'I' for Inactive)
REMARK    1  A    between atoms: O_2  and  C_3 
REMARK    2  A    between atoms: C_6  and  C_7 
REMARK    3  A    between atoms: C_7  and  C_8 
REMARK    4  A    between atoms: C_8  and  N_9 
REMARK    5  A    between atoms: C_13  and  C_14 
REMARK    6  A    between atoms: C_14  and  C_15 
REMARK    7  A    between atoms: C_25  and  N_26 
REMARK    8  A    between atoms: N_26  and  C_27 
REMARK    9  A    between atoms: C_27  and  C_28 
REMARK   10  A    between atoms: C_28  and  O_29 
REMARK   11  A    between atoms: C_28  and  C_30 
ROOT
HETATM    1  C   UNL     1     -10.139   2.958 -33.471  1.00  0.00     0.074 A 
HETATM    2  C   UNL     1     -11.367   3.538 -32.858  1.00  0.00     0.266 A 
HETATM    3  O   UNL     1     -11.318   4.645 -32.314  1.00  0.00    -0.267 OA
HETATM    4  N   UNL     1     -12.516   2.769 -32.956  1.00  0.00    -0.273 N 
HETATM    5  C   UNL     1     -12.476   1.571 -33.646  1.00  0.00     0.138 A 
HETATM    6  N   UNL     1     -11.420   1.092 -34.221  1.00  0.00    -0.218 NA
HETATM    7  C   UNL     1     -13.694   3.217 -32.367  1.00  0.00     0.102 A 
HETATM    8  C   UNL     1     -14.830   2.514 -32.441  1.00  0.00     0.018 A 
HETATM    9  C   UNL     1     -14.854   1.260 -33.146  1.00  0.00     0.005 A 
HETATM   10  C   UNL     1     -13.744   0.793 -33.730  1.00  0.00     0.051 A 
HETATM   11  C   UNL     1     -10.242   1.782 -34.131  1.00  0.00     0.121 A 
ENDROOT
BRANCH   1  12
HETATM   12  C   UNL     1      -8.860   3.616 -33.246  1.00  0.00     0.045 C 
BRANCH  12  13
HETATM   13  C   UNL     1      -7.861   3.111 -32.513  1.00  0.00     0.077 C 
HETATM   14  S   UNL     1      -7.982   2.217 -31.051  1.00  0.00    -0.055 SA
HETATM   15  C   UNL     1      -6.258   1.884 -31.005  1.00  0.00     0.148 C 
HETATM   16  N   UNL     1      -5.648   2.429 -32.116  1.00  0.00    -0.298 N 
HETATM   17  S   UNL     1      -5.553   1.018 -29.764  1.00  0.00    -0.052 SA
HETATM   18  C   UNL     1      -6.443   3.201 -32.945  1.00  0.00     0.266 C 
HETATM   19  O   UNL     1      -6.060   3.859 -33.903  1.00  0.00    -0.266 OA
BRANCH  16  20
HETATM   20  C   UNL     1      -4.261   2.188 -32.499  1.00  0.00     0.138 C 
BRANCH  20  21
HETATM   21  C   UNL     1      -3.236   2.783 -31.532  1.00  0.00     0.059 C 
BRANCH  21  22
HETATM   22  C   UNL     1      -2.929   4.207 -31.929  1.00  0.00    -0.057 A 
HETATM   23  C   UNL     1      -2.192   4.487 -33.087  1.00  0.00     0.010 A 
HETATM   24  C   UNL     1      -1.843   5.805 -33.409  1.00  0.00     0.037 A 
HETATM   25  C   UNL     1      -2.219   6.856 -32.572  1.00  0.00     0.068 A 
HETATM   26  C   UNL     1      -2.947   6.579 -31.414  1.00  0.00     0.037 A 
HETATM   27  C   UNL     1      -3.305   5.267 -31.095  1.00  0.00     0.010 A 
BRANCH  25  28
HETATM   28  O   UNL     1      -1.930   8.179 -32.762  1.00  0.00    -0.356 OA
HETATM   29  C   UNL     1      -2.038   9.028 -31.627  1.00  0.00     0.210 C 
ENDBRANCH  25  28
ENDBRANCH  21  22
ENDBRANCH  20  21
ENDBRANCH  16  20
ENDBRANCH  12  13
ENDBRANCH   1  12
BRANCH  11  30
HETATM   30  N   UNL     1      -9.134   1.176 -34.716  1.00  0.00    -0.274 NA
HETATM   31  H   UNL     1      -8.416   1.901 -34.797  1.00  0.00     0.129 HD
BRANCH  30  32
HETATM   32  C   UNL     1      -8.493   0.015 -34.069  1.00  0.00     0.130 C 
BRANCH  32  33
HETATM   33  C   UNL     1      -6.974  -0.024 -34.336  1.00  0.00     0.164 C 
BRANCH  33  34
HETATM   34  O   UNL     1      -6.658   0.726 -35.518  1.00  0.00    -0.390 OA
HETATM   35  H   UNL     1      -5.938   0.251 -35.968  1.00  0.00     0.210 HD
ENDBRANCH  33  34
BRANCH  33  36
HETATM   36  C   UNL     1      -6.400  -1.427 -34.406  1.00  0.00    -0.029 A 
HETATM   37  C   UNL     1      -5.059  -1.654 -34.060  1.00  0.00     0.010 A 
HETATM   38  C   UNL     1      -4.514  -2.936 -34.130  1.00  0.00     0.001 A 
HETATM   39  C   UNL     1      -5.299  -4.007 -34.551  1.00  0.00     0.000 A 
HETATM   40  C   UNL     1      -6.638  -3.802 -34.879  1.00  0.00     0.001 A 
HETATM   41  C   UNL     1      -7.187  -2.521 -34.800  1.00  0.00     0.010 A 
ENDBRANCH  33  36
ENDBRANCH  32  33
ENDBRANCH  30  32
ENDBRANCH  11  30
TORSDOF 11
ENDMDL
MODEL 7
REMARK VINA RESULT:      -9.1      2.797      9.722
REMARK  11 active torsions:
REMARK  status: ('A' for Active; 'I' for Inactive)
REMARK    1  A    between atoms: O_2  and  C_3 
REMARK    2  A    between atoms: C_6  and  C_7 
REMARK    3  A    between atoms: C_7  and  C_8 
REMARK    4  A    between atoms: C_8  and  N_9 
REMARK    5  A    between atoms: C_13  and  C_14 
REMARK    6  A    between atoms: C_14  and  C_15 
REMARK    7  A    between atoms: C_25  and  N_26 
REMARK    8  A    between atoms: N_26  and  C_27 
REMARK    9  A    between atoms: C_27  and  C_28 
REMARK   10  A    between atoms: C_28  and  O_29 
REMARK   11  A    between atoms: C_28  and  C_30 
ROOT
HETATM    1  C   UNL     1      -5.409   0.342 -31.475  1.00  0.00     0.074 A 
HETATM    2  C   UNL     1      -4.459  -0.691 -31.975  1.00  0.00     0.266 A 
HETATM    3  O   UNL     1      -3.335  -0.786 -31.475  1.00  0.00    -0.267 OA
HETATM    4  N   UNL     1      -4.928  -1.504 -32.995  1.00  0.00    -0.273 N 
HETATM    5  C   UNL     1      -6.230  -1.357 -33.439  1.00  0.00     0.138 A 
HETATM    6  N   UNL     1      -7.071  -0.492 -32.968  1.00  0.00    -0.218 NA
HETATM    7  C   UNL     1      -4.087  -2.461 -33.552  1.00  0.00     0.102 A 
HETATM    8  C   UNL     1      -4.496  -3.274 -34.533  1.00  0.00     0.018 A 
HETATM    9  C   UNL     1      -5.840  -3.172 -35.037  1.00  0.00     0.005 A 
HETATM   10  C   UNL     1      -6.684  -2.267 -34.528  1.00  0.00     0.051 A 
HETATM   11  C   UNL     1      -6.661   0.367 -31.986  1.00  0.00     0.121 A 
ENDROOT
BRANCH   1  12
HETATM   12  C   UNL     1      -4.928   1.349 -30.541  1.00  0.00     0.045 C 
BRANCH  12  13
HETATM   13  C   UNL     1      -4.787   2.649 -30.827  1.00  0.00     0.077 C 
HETATM   14  S   UNL     1      -5.693   3.965 -30.192  1.00  0.00    -0.055 SA
HETATM   15  C   UNL     1      -4.685   5.162 -30.991  1.00  0.00     0.148 C 
HETATM   16  N   UNL     1      -3.672   4.531 -31.684  1.00  0.00    -0.298 N 
HETATM   17  S   UNL     1      -4.979   6.799 -30.863  1.00  0.00    -0.052 SA
HETATM   18  C   UNL     1      -3.714   3.148 -31.723  1.00  0.00     0.266 C 
HETATM   19  O   UNL     1      -2.980   2.422 -32.381  1.00  0.00    -0.266 OA
BRANCH  16  20
HETATM   20  C   UNL     1      -2.544   5.216 -32.306  1.00  0.00     0.138 C 
BRANCH  20  21
HETATM   21  C   UNL     1      -1.191   4.882 -31.676  1.00  0.00     0.059 C 
BRANCH  21  22
HETATM   22  C   UNL     1      -0.872   5.886 -30.594  1.00  0.00    -0.057 A 
HETATM   23  C   UNL     1      -1.409   7.179 -30.633  1.00  0.00     0.010 A 
HETATM   24  C   UNL     1      -1.048   8.131 -29.671  1.00  0.00     0.037 A 
HETATM   25  C   UNL     1      -0.141   7.802 -28.664  1.00  0.00     0.068 A 
HETATM   26  C   UNL     1       0.402   6.517 -28.627  1.00  0.00     0.037 A 
HETATM   27  C   UNL     1       0.037   5.562 -29.580  1.00  0.00     0.010 A 
BRANCH  25  28
HETATM   28  O   UNL     1       0.306   8.638 -27.678  1.00  0.00    -0.356 OA
HETATM   29  C   UNL     1       1.714   8.778 -27.544  1.00  0.00     0.210 C 
ENDBRANCH  25  28
ENDBRANCH  21  22
ENDBRANCH  20  21
ENDBRANCH  16  20
ENDBRANCH  12  13
ENDBRANCH   1  12
BRANCH  11  30
HETATM   30  N   UNL     1      -7.596   1.313 -31.574  1.00  0.00    -0.274 NA
HETATM   31  H   UNL     1      -7.078   2.024 -31.052  1.00  0.00     0.129 HD
BRANCH  30  32
HETATM   32  C   UNL     1      -8.416   2.031 -32.569  1.00  0.00     0.130 C 
BRANCH  32  33
HETATM   33  C   UNL     1      -9.905   1.637 -32.477  1.00  0.00     0.164 C 
BRANCH  33  34
HETATM   34  O   UNL     1     -10.034   0.220 -32.293  1.00  0.00    -0.390 OA
HETATM   35  H   UNL     1     -10.986   0.021 -32.297  1.00  0.00     0.210 HD
ENDBRANCH  33  34
BRANCH  33  36
HETATM   36  C   UNL     1     -10.739   2.116 -33.652  1.00  0.00    -0.029 A 
HETATM   37  C   UNL     1     -11.812   1.337 -34.112  1.00  0.00     0.010 A 
HETATM   38  C   UNL     1     -12.580   1.758 -35.198  1.00  0.00     0.001 A 
HETATM   39  C   UNL     1     -12.285   2.959 -35.840  1.00  0.00     0.000 A 
HETATM   40  C   UNL     1     -11.236   3.753 -35.381  1.00  0.00     0.001 A 
HETATM   41  C   UNL     1     -10.472   3.337 -34.289  1.00  0.00     0.010 A 
ENDBRANCH  33  36
ENDBRANCH  32  33
ENDBRANCH  30  32
ENDBRANCH  11  30
TORSDOF 11
ENDMDL
MODEL 8
REMARK VINA RESULT:      -9.0      3.188      9.541
REMARK  11 active torsions:
REMARK  status: ('A' for Active; 'I' for Inactive)
REMARK    1  A    between atoms: O_2  and  C_3 
REMARK    2  A    between atoms: C_6  and  C_7 
REMARK    3  A    between atoms: C_7  and  C_8 
REMARK    4  A    between atoms: C_8  and  N_9 
REMARK    5  A    between atoms: C_13  and  C_14 
REMARK    6  A    between atoms: C_14  and  C_15 
REMARK    7  A    between atoms: C_25  and  N_26 
REMARK    8  A    between atoms: N_26  and  C_27 
REMARK    9  A    between atoms: C_27  and  C_28 
REMARK   10  A    between atoms: C_28  and  O_29 
REMARK   11  A    between atoms: C_28  and  C_30 
ROOT
HETATM    1  C   UNL     1      -7.401   3.955 -32.873  1.00  0.00     0.074 A 
HETATM    2  C   UNL     1      -8.498   4.373 -33.790  1.00  0.00     0.266 A 
HETATM    3  O   UNL     1      -8.498   5.509 -34.272  1.00  0.00    -0.267 OA
HETATM    4  N   UNL     1      -9.468   3.418 -34.051  1.00  0.00    -0.273 N 
HETATM    5  C   UNL     1      -9.338   2.150 -33.512  1.00  0.00     0.138 A 
HETATM    6  N   UNL     1      -8.357   1.774 -32.755  1.00  0.00    -0.218 NA
HETATM    7  C   UNL     1     -10.552   3.743 -34.859  1.00  0.00     0.102 A 
HETATM    8  C   UNL     1     -11.510   2.853 -35.146  1.00  0.00     0.018 A 
HETATM    9  C   UNL     1     -11.430   1.518 -34.616  1.00  0.00     0.005 A 
HETATM   10  C   UNL     1     -10.403   1.161 -33.838  1.00  0.00     0.051 A 
HETATM   11  C   UNL     1      -7.385   2.678 -32.427  1.00  0.00     0.121 A 
ENDROOT
BRANCH   1  12
HETATM   12  C   UNL     1      -6.454   4.957 -32.405  1.00  0.00     0.045 C 
BRANCH  12  13
HETATM   13  C   UNL     1      -5.162   5.005 -32.749  1.00  0.00     0.077 C 
HETATM   14  S   UNL     1      -4.497   4.947 -34.333  1.00  0.00    -0.055 SA
HETATM   15  C   UNL     1      -2.864   5.245 -33.756  1.00  0.00     0.148 C 
HETATM   16  N   UNL     1      -2.877   5.415 -32.387  1.00  0.00    -0.298 N 
HETATM   17  S   UNL     1      -1.555   5.308 -34.789  1.00  0.00    -0.052 SA
HETATM   18  C   UNL     1      -4.085   5.203 -31.746  1.00  0.00     0.266 C 
HETATM   19  O   UNL     1      -4.266   5.189 -30.536  1.00  0.00    -0.266 OA
BRANCH  16  20
HETATM   20  C   UNL     1      -1.734   5.864 -31.599  1.00  0.00     0.138 C 
BRANCH  20  21
HETATM   21  C   UNL     1      -1.604   7.386 -31.504  1.00  0.00     0.059 C 
BRANCH  21  22
HETATM   22  C   UNL     1      -0.934   7.759 -30.203  1.00  0.00    -0.057 A 
HETATM   23  C   UNL     1       0.252   7.133 -29.801  1.00  0.00     0.010 A 
HETATM   24  C   UNL     1       0.827   7.426 -28.558  1.00  0.00     0.037 A 
HETATM   25  C   UNL     1       0.218   8.343 -27.701  1.00  0.00     0.068 A 
HETATM   26  C   UNL     1      -0.968   8.963 -28.096  1.00  0.00     0.037 A 
HETATM   27  C   UNL     1      -1.540   8.679 -29.339  1.00  0.00     0.010 A 
BRANCH  25  28
HETATM   28  O   UNL     1       0.664   8.704 -26.460  1.00  0.00    -0.356 OA
HETATM   29  C   UNL     1       1.900   8.145 -26.035  1.00  0.00     0.210 C 
ENDBRANCH  25  28
ENDBRANCH  21  22
ENDBRANCH  20  21
ENDBRANCH  16  20
ENDBRANCH  12  13
ENDBRANCH   1  12
BRANCH  11  30
HETATM   30  N   UNL     1      -6.397   2.224 -31.558  1.00  0.00    -0.274 NA
HETATM   31  H   UNL     1      -6.861   1.593 -30.898  1.00  0.00     0.129 HD
BRANCH  30  32
HETATM   32  C   UNL     1      -5.221   1.501 -32.080  1.00  0.00     0.130 C 
BRANCH  32  33
HETATM   33  C   UNL     1      -5.214   0.023 -31.638  1.00  0.00     0.164 C 
BRANCH  33  34
HETATM   34  O   UNL     1      -4.017  -0.270 -30.903  1.00  0.00    -0.390 OA
HETATM   35  H   UNL     1      -4.286  -0.784 -30.121  1.00  0.00     0.210 HD
ENDBRANCH  33  34
BRANCH  33  36
HETATM   36  C   UNL     1      -5.411  -0.958 -32.780  1.00  0.00    -0.029 A 
HETATM   37  C   UNL     1      -4.349  -1.779 -33.188  1.00  0.00     0.010 A 
HETATM   38  C   UNL     1      -4.510  -2.678 -34.243  1.00  0.00     0.001 A 
HETATM   39  C   UNL     1      -5.732  -2.765 -34.906  1.00  0.00     0.000 A 
HETATM   40  C   UNL     1      -6.802  -1.970 -34.500  1.00  0.00     0.001 A 
HETATM   41  C   UNL     1      -6.644  -1.077 -33.439  1.00  0.00     0.010 A 
ENDBRANCH  33  36
ENDBRANCH  32  33
ENDBRANCH  30  32
ENDBRANCH  11  30
TORSDOF 11
ENDMDL
MODEL 9
REMARK VINA RESULT:      -9.0      3.527      9.532
REMARK  11 active torsions:
REMARK  status: ('A' for Active; 'I' for Inactive)
REMARK    1  A    between atoms: O_2  and  C_3 
REMARK    2  A    between atoms: C_6  and  C_7 
REMARK    3  A    between atoms: C_7  and  C_8 
REMARK    4  A    between atoms: C_8  and  N_9 
REMARK    5  A    between atoms: C_13  and  C_14 
REMARK    6  A    between atoms: C_14  and  C_15 
REMARK    7  A    between atoms: C_25  and  N_26 
REMARK    8  A    between atoms: N_26  and  C_27 
REMARK    9  A    between atoms: C_27  and  C_28 
REMARK   10  A    between atoms: C_28  and  O_29 
REMARK   11  A    between atoms: C_28  and  C_30 
ROOT
HETATM    1  C   UNL     1      -6.192   3.212 -32.376  1.00  0.00     0.074 A 
HETATM    2  C   UNL     1      -7.283   3.964 -33.057  1.00  0.00     0.266 A 
HETATM    3  O   UNL     1      -7.145   4.321 -34.230  1.00  0.00    -0.267 OA
HETATM    4  N   UNL     1      -8.418   4.206 -32.299  1.00  0.00    -0.273 N 
HETATM    5  C   UNL     1      -8.498   3.703 -31.013  1.00  0.00     0.138 A 
HETATM    6  N   UNL     1      -7.569   3.007 -30.440  1.00  0.00    -0.218 NA
HETATM    7  C   UNL     1      -9.464   4.943 -32.845  1.00  0.00     0.102 A 
HETATM    8  C   UNL     1     -10.583   5.197 -32.156  1.00  0.00     0.018 A 
HETATM    9  C   UNL     1     -10.727   4.700 -30.813  1.00  0.00     0.005 A 
HETATM   10  C   UNL     1      -9.747   3.983 -30.250  1.00  0.00     0.051 A 
HETATM   11  C   UNL     1      -6.407   2.763 -31.119  1.00  0.00     0.121 A 
ENDROOT
BRANCH   1  12
HETATM   12  C   UNL     1      -4.903   3.084 -33.041  1.00  0.00     0.045 C 
BRANCH  12  13
HETATM   13  C   UNL     1      -3.945   4.018 -33.034  1.00  0.00     0.077 C 
HETATM   14  S   UNL     1      -3.786   5.362 -34.093  1.00  0.00    -0.055 SA
HETATM   15  C   UNL     1      -2.424   6.021 -33.199  1.00  0.00     0.148 C 
HETATM   16  N   UNL     1      -2.154   5.223 -32.107  1.00  0.00    -0.298 N 
HETATM   17  S   UNL     1      -1.642   7.417 -33.673  1.00  0.00    -0.052 SA
HETATM   18  C   UNL     1      -2.883   4.052 -31.998  1.00  0.00     0.266 C 
HETATM   19  O   UNL     1      -2.705   3.165 -31.172  1.00  0.00    -0.266 OA
BRANCH  16  20
HETATM   20  C   UNL     1      -1.216   5.567 -31.043  1.00  0.00     0.138 C 
BRANCH  20  21
HETATM   21  C   UNL     1      -1.715   6.671 -30.109  1.00  0.00     0.059 C 
BRANCH  21  22
HETATM   22  C   UNL     1      -0.634   7.023 -29.115  1.00  0.00    -0.057 A 
HETATM   23  C   UNL     1       0.148   6.025 -28.519  1.00  0.00     0.010 A 
HETATM   24  C   UNL     1       1.095   6.350 -27.540  1.00  0.00     0.037 A 
HETATM   25  C   UNL     1       1.267   7.675 -27.141  1.00  0.00     0.068 A 
HETATM   26  C   UNL     1       0.485   8.671 -27.728  1.00  0.00     0.037 A 
HETATM   27  C   UNL     1      -0.455   8.352 -28.711  1.00  0.00     0.010 A 
BRANCH  25  28
HETATM   28  O   UNL     1       2.141   8.123 -26.190  1.00  0.00    -0.356 OA
HETATM   29  C   UNL     1       1.613   8.979 -25.186  1.00  0.00     0.210 C 
ENDBRANCH  25  28
ENDBRANCH  21  22
ENDBRANCH  20  21
ENDBRANCH  16  20
ENDBRANCH  12  13
ENDBRANCH   1  12
BRANCH  11  30
HETATM   30  N   UNL     1      -5.427   2.066 -30.418  1.00  0.00    -0.274 NA
HETATM   31  H   UNL     1      -5.334   2.531 -29.510  1.00  0.00     0.129 HD
BRANCH  30  32
HETATM   32  C   UNL     1      -5.591   0.626 -30.141  1.00  0.00     0.130 C 
BRANCH  32  33
HETATM   33  C   UNL     1      -4.605  -0.232 -30.961  1.00  0.00     0.164 C 
BRANCH  33  34
HETATM   34  O   UNL     1      -3.412   0.514 -31.241  1.00  0.00    -0.390 OA
HETATM   35  H   UNL     1      -3.104   0.880 -30.394  1.00  0.00     0.210 HD
ENDBRANCH  33  34
BRANCH  33  36
HETATM   36  C   UNL     1      -5.205  -0.807 -32.232  1.00  0.00    -0.029 A 
HETATM   37  C   UNL     1      -6.542  -0.539 -32.558  1.00  0.00     0.010 A 
HETATM   38  C   UNL     1      -7.112  -1.069 -33.716  1.00  0.00     0.001 A 
HETATM   39  C   UNL     1      -6.354  -1.877 -34.561  1.00  0.00     0.000 A 
HETATM   40  C   UNL     1      -5.017  -2.137 -34.260  1.00  0.00     0.001 A 
HETATM   41  C   UNL     1      -4.445  -1.599 -33.107  1.00  0.00     0.010 A 
ENDBRANCH  33  36
ENDBRANCH  32  33
ENDBRANCH  30  32
ENDBRANCH  11  30
TORSDOF 11
ENDMDL
MODEL 10
REMARK VINA RESULT:      -8.9      3.273      8.805
REMARK  11 active torsions:
REMARK  status: ('A' for Active; 'I' for Inactive)
REMARK    1  A    between atoms: O_2  and  C_3 
REMARK    2  A    between atoms: C_6  and  C_7 
REMARK    3  A    between atoms: C_7  and  C_8 
REMARK    4  A    between atoms: C_8  and  N_9 
REMARK    5  A    between atoms: C_13  and  C_14 
REMARK    6  A    between atoms: C_14  and  C_15 
REMARK    7  A    between atoms: C_25  and  N_26 
REMARK    8  A    between atoms: N_26  and  C_27 
REMARK    9  A    between atoms: C_27  and  C_28 
REMARK   10  A    between atoms: C_28  and  O_29 
REMARK   11  A    between atoms: C_28  and  C_30 
ROOT
HETATM    1  C   UNL     1     -12.352   4.559 -33.103  1.00  0.00     0.074 A 
HETATM    2  C   UNL     1     -13.642   5.156 -32.658  1.00  0.00     0.266 A 
HETATM    3  O   UNL     1     -13.738   6.378 -32.514  1.00  0.00    -0.267 OA
HETATM    4  N   UNL     1     -14.681   4.264 -32.440  1.00  0.00    -0.273 N 
HETATM    5  C   UNL     1     -14.487   2.918 -32.696  1.00  0.00     0.138 A 
HETATM    6  N   UNL     1     -13.379   2.408 -33.130  1.00  0.00    -0.218 NA
HETATM    7  C   UNL     1     -15.905   4.735 -31.977  1.00  0.00     0.102 A 
HETATM    8  C   UNL     1     -16.939   3.914 -31.759  1.00  0.00     0.018 A 
HETATM    9  C   UNL     1     -16.801   2.504 -32.007  1.00  0.00     0.005 A 
HETATM   10  C   UNL     1     -15.642   2.008 -32.456  1.00  0.00     0.051 A 
HETATM   11  C   UNL     1     -12.303   3.227 -33.330  1.00  0.00     0.121 A 
ENDROOT
BRANCH   1  12
HETATM   12  C   UNL     1     -11.169   5.406 -33.170  1.00  0.00     0.045 C 
BRANCH  12  13
HETATM   13  C   UNL     1     -10.305   5.590 -32.165  1.00  0.00     0.077 C 
HETATM   14  S   UNL     1     -10.567   6.451 -30.701  1.00  0.00    -0.055 SA
HETATM   15  C   UNL     1      -9.012   5.976 -30.037  1.00  0.00     0.148 C 
HETATM   16  N   UNL     1      -8.356   5.151 -30.928  1.00  0.00    -0.298 N 
HETATM   17  S   UNL     1      -8.493   6.487 -28.536  1.00  0.00    -0.052 SA
HETATM   18  C   UNL     1      -8.957   4.967 -32.161  1.00  0.00     0.266 C 
HETATM   19  O   UNL     1      -8.474   4.374 -33.117  1.00  0.00    -0.266 OA
BRANCH  16  20
HETATM   20  C   UNL     1      -7.129   4.420 -30.630  1.00  0.00     0.138 C 
BRANCH  20  21
HETATM   21  C   UNL     1      -7.363   3.008 -30.090  1.00  0.00     0.059 C 
BRANCH  21  22
HETATM   22  C   UNL     1      -6.385   2.051 -30.727  1.00  0.00    -0.057 A 
HETATM   23  C   UNL     1      -6.004   0.872 -30.075  1.00  0.00     0.010 A 
HETATM   24  C   UNL     1      -5.038   0.027 -30.634  1.00  0.00     0.037 A 
HETATM   25  C   UNL     1      -4.435   0.356 -31.849  1.00  0.00     0.068 A 
HETATM   26  C   UNL     1      -4.807   1.534 -32.498  1.00  0.00     0.037 A 
HETATM   27  C   UNL     1      -5.778   2.375 -31.947  1.00  0.00     0.010 A 
BRANCH  25  28
HETATM   28  O   UNL     1      -3.472  -0.370 -32.493  1.00  0.00    -0.356 OA
HETATM   29  C   UNL     1      -3.511  -1.781 -32.322  1.00  0.00     0.210 C 
ENDBRANCH  25  28
ENDBRANCH  21  22
ENDBRANCH  20  21
ENDBRANCH  16  20
ENDBRANCH  12  13
ENDBRANCH   1  12
BRANCH  11  30
HETATM   30  N   UNL     1     -11.127   2.601 -33.734  1.00  0.00    -0.274 NA
HETATM   31  H   UNL     1     -10.395   2.917 -33.092  1.00  0.00     0.129 HD
BRANCH  30  32
HETATM   32  C   UNL     1     -11.045   1.128 -33.778  1.00  0.00     0.130 C 
BRANCH  32  33
HETATM   33  C   UNL     1      -9.952   0.586 -32.833  1.00  0.00     0.164 C 
BRANCH  33  34
HETATM   34  O   UNL     1      -9.645   1.555 -31.821  1.00  0.00    -0.390 OA
HETATM   35  H   UNL     1     -10.484   1.988 -31.583  1.00  0.00     0.210 HD
ENDBRANCH  33  34
BRANCH  33  36
HETATM   36  C   UNL     1      -8.696   0.126 -33.551  1.00  0.00    -0.029 A 
HETATM   37  C   UNL     1      -8.213   0.851 -34.650  1.00  0.00     0.010 A 
HETATM   38  C   UNL     1      -7.066   0.435 -35.328  1.00  0.00     0.001 A 
HETATM   39  C   UNL     1      -6.391  -0.713 -34.919  1.00  0.00     0.000 A 
HETATM   40  C   UNL     1      -6.847  -1.433 -33.817  1.00  0.00     0.001 A 
HETATM   41  C   UNL     1      -7.989  -1.012 -33.132  1.00  0.00     0.010 A 
ENDBRANCH  33  36
ENDBRANCH  32  33
ENDBRANCH  30  32
ENDBRANCH  11  30
TORSDOF 11
ENDMDL
