MODEL 1
REMARK VINA RESULT:      -8.2      0.000      0.000
REMARK  7 active torsions:
REMARK  status: ('A' for Active; 'I' for Inactive)
REMARK       I    between atoms: C_2  and  N_3 
REMARK    1  A    between atoms: N_3  and  C_4 
REMARK    2  A    between atoms: C_7  and  N_8 
REMARK       I    between atoms: N_8  and  C_9 
REMARK    3  A    between atoms: C_9  and  C_10 
REMARK    4  A    between atoms: C_11  and  C_12 
REMARK    5  A    between atoms: C_13  and  O_14 
REMARK    6  A    between atoms: N_20  and  C_21 
REMARK    7  A    between atoms: C_24  and  O_25 
ROOT
HETATM    1  C   UNL     1      -5.173   4.536 -30.005  1.00  0.00     0.106 C 
HETATM    2  C   UNL     1      -5.384   5.492 -31.220  1.00  0.00     0.142 C 
HETATM    3  N   UNL     1      -6.817   5.815 -31.401  1.00  0.00    -0.308 N 
HETATM    4  C   UNL     1      -7.397   6.415 -30.272  1.00  0.00     0.225 C 
HETATM    5  O   UNL     1      -7.922   7.522 -30.253  1.00  0.00    -0.273 OA
HETATM    6  C   UNL     1      -7.387   5.481 -29.082  1.00  0.00     0.104 C 
HETATM    7  C   UNL     1      -5.982   4.993 -28.774  1.00  0.00     0.026 C 
ENDROOT
BRANCH   1   8
HETATM    8  C   UNL     1      -5.407   3.064 -30.346  1.00  0.00     0.228 C 
HETATM    9  N   UNL     1      -4.468   2.595 -31.245  1.00  0.00    -0.327 N 
HETATM   10  H   UNL     1      -3.700   3.227 -31.454  1.00  0.00     0.169 HD
HETATM   11  O   UNL     1      -6.332   2.420 -29.865  1.00  0.00    -0.273 OA
BRANCH   9  12
HETATM   12  C   UNL     1      -4.453   1.395 -31.974  1.00  0.00     0.034 A 
HETATM   13  C   UNL     1      -3.628   0.311 -31.694  1.00  0.00     0.032 A 
HETATM   14  C   UNL     1      -3.756  -0.882 -32.425  1.00  0.00     0.032 A 
HETATM   15  C   UNL     1      -4.703  -0.998 -33.446  1.00  0.00     0.034 A 
HETATM   16  C   UNL     1      -5.504   0.106 -33.747  1.00  0.00     0.032 A 
HETATM   17  C   UNL     1      -5.385   1.288 -33.013  1.00  0.00     0.032 A 
BRANCH  15  18
HETATM   18  N   UNL     1      -4.926  -2.167 -34.199  1.00  0.00    -0.328 N 
HETATM   19  C   UNL     1      -6.132  -2.794 -34.447  1.00  0.00     0.218 C 
HETATM   20  C   UNL     1      -5.969  -3.992 -35.350  1.00  0.00     0.117 C 
HETATM   21  O   UNL     1      -7.239  -2.449 -34.052  1.00  0.00    -0.274 OA
HETATM   22  H   UNL     1      -4.111  -2.563 -34.650  1.00  0.00     0.169 HD
ENDBRANCH  15  18
ENDBRANCH   9  12
ENDBRANCH   1   8
BRANCH   2  23
HETATM   23  C   UNL     1      -4.518   5.361 -32.494  1.00  0.00    -0.001 C 
HETATM   24  C   UNL     1      -3.119   5.542 -32.502  1.00  0.00     0.076 C 
HETATM   25  C   UNL     1      -2.356   5.324 -33.661  1.00  0.00     0.037 C 
HETATM   26  C   UNL     1      -2.978   5.030 -34.867  1.00  0.00     0.003 C 
HETATM   27  C   UNL     1      -4.363   4.987 -34.922  1.00  0.00     0.001 C 
HETATM   28  C   UNL     1      -5.116   5.178 -33.759  1.00  0.00     0.012 C 
BRANCH  24  29
HETATM   29  O   UNL     1      -2.480   5.893 -31.339  1.00  0.00    -0.355 OA
HETATM   30  C   UNL     1      -1.297   5.120 -31.110  1.00  0.00     0.210 C 
ENDBRANCH  24  29
ENDBRANCH   2  23
BRANCH   3  31
HETATM   31  C   UNL     1      -7.736   5.120 -32.267  1.00  0.00     0.038 A 
HETATM   32  C   UNL     1      -8.355   5.834 -33.308  1.00  0.00     0.032 A 
HETATM   33  C   UNL     1      -9.233   5.211 -34.200  1.00  0.00     0.039 A 
HETATM   34  C   UNL     1      -9.528   3.857 -34.072  1.00  0.00     0.068 A 
HETATM   35  C   UNL     1      -8.928   3.134 -33.046  1.00  0.00     0.039 A 
HETATM   36  C   UNL     1      -8.034   3.758 -32.158  1.00  0.00     0.032 A 
BRANCH  34  37
HETATM   37  O   UNL     1     -10.396   3.374 -35.010  1.00  0.00    -0.356 OA
HETATM   38  C   UNL     1     -11.252   2.313 -34.607  1.00  0.00     0.210 C 
ENDBRANCH  34  37
ENDBRANCH   3  31
TORSDOF 7
ENDMDL
MODEL 2
REMARK VINA RESULT:      -8.1      2.232      6.168
REMARK  7 active torsions:
REMARK  status: ('A' for Active; 'I' for Inactive)
REMARK       I    between atoms: C_2  and  N_3 
REMARK    1  A    between atoms: N_3  and  C_4 
REMARK    2  A    between atoms: C_7  and  N_8 
REMARK       I    between atoms: N_8  and  C_9 
REMARK    3  A    between atoms: C_9  and  C_10 
REMARK    4  A    between atoms: C_11  and  C_12 
REMARK    5  A    between atoms: C_13  and  O_14 
REMARK    6  A    between atoms: N_20  and  C_21 
REMARK    7  A    between atoms: C_24  and  O_25 
ROOT
HETATM    1  C   UNL     1      -4.441   6.027 -33.089  1.00  0.00     0.106 C 
HETATM    2  C   UNL     1      -4.239   5.394 -31.678  1.00  0.00     0.142 C 
HETATM    3  N   UNL     1      -3.320   4.235 -31.741  1.00  0.00    -0.308 N 
HETATM    4  C   UNL     1      -2.055   4.559 -32.256  1.00  0.00     0.225 C 
HETATM    5  O   UNL     1      -0.993   4.414 -31.662  1.00  0.00    -0.273 OA
HETATM    6  C   UNL     1      -2.144   5.026 -33.693  1.00  0.00     0.104 C 
HETATM    7  C   UNL     1      -3.102   6.196 -33.836  1.00  0.00     0.026 C 
ENDROOT
BRANCH   1   8
HETATM    8  C   UNL     1      -5.494   5.305 -33.931  1.00  0.00     0.228 C 
HETATM    9  N   UNL     1      -6.768   5.503 -33.432  1.00  0.00    -0.327 N 
HETATM   10  H   UNL     1      -6.848   6.180 -32.678  1.00  0.00     0.169 HD
HETATM   11  O   UNL     1      -5.199   4.637 -34.915  1.00  0.00    -0.273 OA
BRANCH   9  12
HETATM   12  C   UNL     1      -7.967   4.852 -33.763  1.00  0.00     0.034 A 
HETATM   13  C   UNL     1      -9.032   5.449 -34.428  1.00  0.00     0.032 A 
HETATM   14  C   UNL     1     -10.151   4.685 -34.799  1.00  0.00     0.032 A 
HETATM   15  C   UNL     1     -10.218   3.322 -34.501  1.00  0.00     0.034 A 
HETATM   16  C   UNL     1      -9.162   2.735 -33.801  1.00  0.00     0.032 A 
HETATM   17  C   UNL     1      -8.044   3.492 -33.443  1.00  0.00     0.032 A 
BRANCH  15  18
HETATM   18  N   UNL     1     -11.281   2.475 -34.870  1.00  0.00    -0.328 N 
HETATM   19  C   UNL     1     -12.398   2.148 -34.125  1.00  0.00     0.218 C 
HETATM   20  C   UNL     1     -13.345   1.256 -34.890  1.00  0.00     0.117 C 
HETATM   21  O   UNL     1     -12.671   2.532 -32.994  1.00  0.00    -0.274 OA
HETATM   22  H   UNL     1     -11.243   2.104 -35.811  1.00  0.00     0.169 HD
ENDBRANCH  15  18
ENDBRANCH   9  12
ENDBRANCH   1   8
BRANCH   2  23
HETATM   23  C   UNL     1      -5.404   5.323 -30.664  1.00  0.00    -0.001 C 
HETATM   24  C   UNL     1      -5.875   6.441 -29.945  1.00  0.00     0.076 C 
HETATM   25  C   UNL     1      -6.996   6.354 -29.102  1.00  0.00     0.037 C 
HETATM   26  C   UNL     1      -7.606   5.130 -28.868  1.00  0.00     0.003 C 
HETATM   27  C   UNL     1      -7.077   3.987 -29.447  1.00  0.00     0.001 C 
HETATM   28  C   UNL     1      -5.978   4.083 -30.308  1.00  0.00     0.012 C 
BRANCH  24  29
HETATM   29  O   UNL     1      -5.255   7.655 -30.108  1.00  0.00    -0.355 OA
HETATM   30  C   UNL     1      -6.057   8.585 -30.845  1.00  0.00     0.210 C 
ENDBRANCH  24  29
ENDBRANCH   2  23
BRANCH   3  31
HETATM   31  C   UNL     1      -3.710   2.856 -31.893  1.00  0.00     0.038 A 
HETATM   32  C   UNL     1      -3.073   1.883 -31.103  1.00  0.00     0.032 A 
HETATM   33  C   UNL     1      -3.425   0.533 -31.182  1.00  0.00     0.039 A 
HETATM   34  C   UNL     1      -4.418   0.112 -32.060  1.00  0.00     0.068 A 
HETATM   35  C   UNL     1      -5.058   1.059 -32.854  1.00  0.00     0.039 A 
HETATM   36  C   UNL     1      -4.713   2.419 -32.764  1.00  0.00     0.032 A 
BRANCH  34  37
HETATM   37  O   UNL     1      -4.668  -1.232 -32.034  1.00  0.00    -0.356 OA
HETATM   38  C   UNL     1      -3.542  -2.096 -32.117  1.00  0.00     0.210 C 
ENDBRANCH  34  37
ENDBRANCH   3  31
TORSDOF 7
ENDMDL
MODEL 3
REMARK VINA RESULT:      -7.8      2.942      7.554
REMARK  7 active torsions:
REMARK  status: ('A' for Active; 'I' for Inactive)
REMARK       I    between atoms: C_2  and  N_3 
REMARK    1  A    between atoms: N_3  and  C_4 
REMARK    2  A    between atoms: C_7  and  N_8 
REMARK       I    between atoms: N_8  and  C_9 
REMARK    3  A    between atoms: C_9  and  C_10 
REMARK    4  A    between atoms: C_11  and  C_12 
REMARK    5  A    between atoms: C_13  and  O_14 
REMARK    6  A    between atoms: N_20  and  C_21 
REMARK    7  A    between atoms: C_24  and  O_25 
ROOT
HETATM    1  C   UNL     1      -3.826   3.414 -33.128  1.00  0.00     0.106 C 
HETATM    2  C   UNL     1      -5.291   2.978 -32.814  1.00  0.00     0.142 C 
HETATM    3  N   UNL     1      -6.165   4.155 -32.607  1.00  0.00    -0.308 N 
HETATM    4  C   UNL     1      -6.197   5.022 -33.711  1.00  0.00     0.225 C 
HETATM    5  O   UNL     1      -7.205   5.325 -34.340  1.00  0.00    -0.273 OA
HETATM    6  C   UNL     1      -4.838   5.627 -33.982  1.00  0.00     0.104 C 
HETATM    7  C   UNL     1      -3.781   4.552 -34.169  1.00  0.00     0.026 C 
ENDROOT
BRANCH   1   8
HETATM    8  C   UNL     1      -3.009   3.735 -31.876  1.00  0.00     0.228 C 
HETATM    9  N   UNL     1      -2.604   5.056 -31.857  1.00  0.00    -0.327 N 
HETATM   10  H   UNL     1      -2.995   5.649 -32.583  1.00  0.00     0.169 HD
HETATM   11  O   UNL     1      -2.760   2.890 -31.024  1.00  0.00    -0.273 OA
BRANCH   9  12
HETATM   12  C   UNL     1      -1.670   5.691 -31.022  1.00  0.00     0.034 A 
HETATM   13  C   UNL     1      -0.296   5.487 -31.076  1.00  0.00     0.032 A 
HETATM   14  C   UNL     1       0.563   6.242 -30.260  1.00  0.00     0.032 A 
HETATM   15  C   UNL     1       0.055   7.199 -29.379  1.00  0.00     0.034 A 
HETATM   16  C   UNL     1      -1.328   7.374 -29.303  1.00  0.00     0.032 A 
HETATM   17  C   UNL     1      -2.181   6.632 -30.122  1.00  0.00     0.032 A 
BRANCH  15  18
HETATM   18  N   UNL     1       0.845   8.027 -28.557  1.00  0.00    -0.328 N 
HETATM   19  C   UNL     1       1.130   7.859 -27.215  1.00  0.00     0.218 C 
HETATM   20  C   UNL     1       2.064   8.926 -26.699  1.00  0.00     0.117 C 
HETATM   21  O   UNL     1       0.743   6.954 -26.485  1.00  0.00    -0.274 OA
HETATM   22  H   UNL     1       1.293   8.808 -29.018  1.00  0.00     0.169 HD
ENDBRANCH  15  18
ENDBRANCH   9  12
ENDBRANCH   1   8
BRANCH   2  23
HETATM   23  C   UNL     1      -5.580   1.719 -31.965  1.00  0.00    -0.001 C 
HETATM   24  C   UNL     1      -5.710   0.426 -32.514  1.00  0.00     0.076 C 
HETATM   25  C   UNL     1      -5.881  -0.705 -31.699  1.00  0.00     0.037 C 
HETATM   26  C   UNL     1      -6.039  -0.566 -30.326  1.00  0.00     0.003 C 
HETATM   27  C   UNL     1      -6.061   0.706 -29.773  1.00  0.00     0.001 C 
HETATM   28  C   UNL     1      -5.863   1.827 -30.586  1.00  0.00     0.012 C 
BRANCH  24  29
HETATM   29  O   UNL     1      -5.619   0.262 -33.873  1.00  0.00    -0.355 OA
HETATM   30  C   UNL     1      -6.824  -0.258 -34.445  1.00  0.00     0.210 C 
ENDBRANCH  24  29
ENDBRANCH   2  23
BRANCH   3  31
HETATM   31  C   UNL     1      -6.471   4.765 -31.338  1.00  0.00     0.038 A 
HETATM   32  C   UNL     1      -7.817   4.866 -30.944  1.00  0.00     0.032 A 
HETATM   33  C   UNL     1      -8.178   5.421 -29.713  1.00  0.00     0.039 A 
HETATM   34  C   UNL     1      -7.207   5.902 -28.842  1.00  0.00     0.068 A 
HETATM   35  C   UNL     1      -5.869   5.816 -29.216  1.00  0.00     0.039 A 
HETATM   36  C   UNL     1      -5.505   5.244 -30.448  1.00  0.00     0.032 A 
BRANCH  34  37
HETATM   37  O   UNL     1      -7.695   6.414 -27.673  1.00  0.00    -0.356 OA
HETATM   38  C   UNL     1      -8.860   7.222 -27.762  1.00  0.00     0.210 C 
ENDBRANCH  34  37
ENDBRANCH   3  31
TORSDOF 7
ENDMDL
MODEL 4
REMARK VINA RESULT:      -7.7      2.634      4.557
REMARK  7 active torsions:
REMARK  status: ('A' for Active; 'I' for Inactive)
REMARK       I    between atoms: C_2  and  N_3 
REMARK    1  A    between atoms: N_3  and  C_4 
REMARK    2  A    between atoms: C_7  and  N_8 
REMARK       I    between atoms: N_8  and  C_9 
REMARK    3  A    between atoms: C_9  and  C_10 
REMARK    4  A    between atoms: C_11  and  C_12 
REMARK    5  A    between atoms: C_13  and  O_14 
REMARK    6  A    between atoms: N_20  and  C_21 
REMARK    7  A    between atoms: C_24  and  O_25 
ROOT
HETATM    1  C   UNL     1      -5.418   2.462 -31.357  1.00  0.00     0.106 C 
HETATM    2  C   UNL     1      -4.758   3.875 -31.408  1.00  0.00     0.142 C 
HETATM    3  N   UNL     1      -5.577   4.871 -30.682  1.00  0.00    -0.308 N 
HETATM    4  C   UNL     1      -5.788   4.539 -29.334  1.00  0.00     0.225 C 
HETATM    5  O   UNL     1      -5.454   5.228 -28.378  1.00  0.00    -0.273 OA
HETATM    6  C   UNL     1      -6.578   3.256 -29.196  1.00  0.00     0.104 C 
HETATM    7  C   UNL     1      -5.907   2.112 -29.937  1.00  0.00     0.026 C 
ENDROOT
BRANCH   1   8
HETATM    8  C   UNL     1      -6.503   2.262 -32.416  1.00  0.00     0.228 C 
HETATM    9  N   UNL     1      -7.739   2.032 -31.840  1.00  0.00    -0.327 N 
HETATM   10  H   UNL     1      -7.786   2.149 -30.832  1.00  0.00     0.169 HD
HETATM   11  O   UNL     1      -6.261   2.301 -33.616  1.00  0.00    -0.273 OA
BRANCH   9  12
HETATM   12  C   UNL     1      -8.930   1.588 -32.435  1.00  0.00     0.034 A 
HETATM   13  C   UNL     1      -9.362   0.266 -32.447  1.00  0.00     0.032 A 
HETATM   14  C   UNL     1     -10.617  -0.063 -32.986  1.00  0.00     0.032 A 
HETATM   15  C   UNL     1     -11.446   0.925 -33.525  1.00  0.00     0.034 A 
HETATM   16  C   UNL     1     -10.992   2.245 -33.543  1.00  0.00     0.032 A 
HETATM   17  C   UNL     1      -9.749   2.574 -32.997  1.00  0.00     0.032 A 
BRANCH  15  18
HETATM   18  N   UNL     1     -12.733   0.690 -34.047  1.00  0.00    -0.328 N 
HETATM   19  C   UNL     1     -13.939   1.158 -33.562  1.00  0.00     0.218 C 
HETATM   20  C   UNL     1     -15.098   0.739 -34.433  1.00  0.00     0.117 C 
HETATM   21  O   UNL     1     -14.115   1.866 -32.578  1.00  0.00    -0.274 OA
HETATM   22  H   UNL     1     -12.769   0.156 -34.906  1.00  0.00     0.169 HD
ENDBRANCH  15  18
ENDBRANCH   9  12
ENDBRANCH   1   8
BRANCH   2  23
HETATM   23  C   UNL     1      -4.006   4.356 -32.670  1.00  0.00    -0.001 C 
HETATM   24  C   UNL     1      -2.600   4.395 -32.767  1.00  0.00     0.076 C 
HETATM   25  C   UNL     1      -1.954   4.750 -33.963  1.00  0.00     0.037 C 
HETATM   26  C   UNL     1      -2.691   5.183 -35.057  1.00  0.00     0.003 C 
HETATM   27  C   UNL     1      -4.068   5.295 -34.945  1.00  0.00     0.001 C 
HETATM   28  C   UNL     1      -4.708   4.913 -33.761  1.00  0.00     0.012 C 
BRANCH  24  29
HETATM   29  O   UNL     1      -1.841   4.029 -31.683  1.00  0.00    -0.355 OA
HETATM   30  C   UNL     1      -1.152   5.139 -31.097  1.00  0.00     0.210 C 
ENDBRANCH  24  29
ENDBRANCH   2  23
BRANCH   3  31
HETATM   31  C   UNL     1      -6.578   5.728 -31.267  1.00  0.00     0.038 A 
HETATM   32  C   UNL     1      -6.297   7.099 -31.404  1.00  0.00     0.032 A 
HETATM   33  C   UNL     1      -7.213   7.977 -31.990  1.00  0.00     0.039 A 
HETATM   34  C   UNL     1      -8.443   7.515 -32.446  1.00  0.00     0.068 A 
HETATM   35  C   UNL     1      -8.742   6.163 -32.315  1.00  0.00     0.039 A 
HETATM   36  C   UNL     1      -7.814   5.276 -31.739  1.00  0.00     0.032 A 
BRANCH  34  37
HETATM   37  O   UNL     1      -9.241   8.476 -33.000  1.00  0.00    -0.356 OA
HETATM   38  C   UNL     1     -10.625   8.423 -32.682  1.00  0.00     0.210 C 
ENDBRANCH  34  37
ENDBRANCH   3  31
TORSDOF 7
ENDMDL
MODEL 5
REMARK VINA RESULT:      -7.7      1.932      5.031
REMARK  7 active torsions:
REMARK  status: ('A' for Active; 'I' for Inactive)
REMARK       I    between atoms: C_2  and  N_3 
REMARK    1  A    between atoms: N_3  and  C_4 
REMARK    2  A    between atoms: C_7  and  N_8 
REMARK       I    between atoms: N_8  and  C_9 
REMARK    3  A    between atoms: C_9  and  C_10 
REMARK    4  A    between atoms: C_11  and  C_12 
REMARK    5  A    between atoms: C_13  and  O_14 
REMARK    6  A    between atoms: N_20  and  C_21 
REMARK    7  A    between atoms: C_24  and  O_25 
ROOT
HETATM    1  C   UNL     1      -9.301   3.098 -31.899  1.00  0.00     0.106 C 
HETATM    2  C   UNL     1      -8.864   4.581 -31.688  1.00  0.00     0.142 C 
HETATM    3  N   UNL     1      -8.326   5.161 -32.939  1.00  0.00    -0.308 N 
HETATM    4  C   UNL     1      -9.240   5.125 -34.004  1.00  0.00     0.225 C 
HETATM    5  O   UNL     1      -9.652   6.106 -34.612  1.00  0.00    -0.273 OA
HETATM    6  C   UNL     1      -9.589   3.704 -34.388  1.00  0.00     0.104 C 
HETATM    7  C   UNL     1     -10.116   2.923 -33.197  1.00  0.00     0.026 C 
ENDROOT
BRANCH   1   8
HETATM    8  C   UNL     1      -8.142   2.105 -31.798  1.00  0.00     0.228 C 
HETATM    9  N   UNL     1      -7.777   1.621 -33.040  1.00  0.00    -0.327 N 
HETATM   10  H   UNL     1      -8.222   2.068 -33.837  1.00  0.00     0.169 HD
HETATM   11  O   UNL     1      -7.635   1.798 -30.725  1.00  0.00    -0.273 OA
BRANCH   9  12
HETATM   12  C   UNL     1      -6.931   0.550 -33.366  1.00  0.00     0.034 A 
HETATM   13  C   UNL     1      -5.543   0.584 -33.280  1.00  0.00     0.032 A 
HETATM   14  C   UNL     1      -4.790  -0.573 -33.539  1.00  0.00     0.032 A 
HETATM   15  C   UNL     1      -5.416  -1.770 -33.893  1.00  0.00     0.034 A 
HETATM   16  C   UNL     1      -6.807  -1.790 -34.014  1.00  0.00     0.032 A 
HETATM   17  C   UNL     1      -7.557  -0.643 -33.746  1.00  0.00     0.032 A 
BRANCH  15  18
HETATM   18  N   UNL     1      -4.743  -2.985 -34.129  1.00  0.00    -0.328 N 
HETATM   19  C   UNL     1      -3.785  -3.586 -33.335  1.00  0.00     0.218 C 
HETATM   20  C   UNL     1      -3.341  -4.915 -33.897  1.00  0.00     0.117 C 
HETATM   21  O   UNL     1      -3.337  -3.171 -32.273  1.00  0.00    -0.274 OA
HETATM   22  H   UNL     1      -5.032  -3.497 -34.952  1.00  0.00     0.169 HD
ENDBRANCH  15  18
ENDBRANCH   9  12
ENDBRANCH   1   8
BRANCH   2  23
HETATM   23  C   UNL     1      -8.222   5.038 -30.358  1.00  0.00    -0.001 C 
HETATM   24  C   UNL     1      -8.821   5.975 -29.490  1.00  0.00     0.076 C 
HETATM   25  C   UNL     1      -8.250   6.295 -28.247  1.00  0.00     0.037 C 
HETATM   26  C   UNL     1      -7.014   5.777 -27.887  1.00  0.00     0.003 C 
HETATM   27  C   UNL     1      -6.332   4.967 -28.782  1.00  0.00     0.001 C 
HETATM   28  C   UNL     1      -6.918   4.629 -30.007  1.00  0.00     0.012 C 
BRANCH  24  29
HETATM   29  O   UNL     1     -10.015   6.551 -29.844  1.00  0.00    -0.355 OA
HETATM   30  C   UNL     1     -10.296   7.736 -29.092  1.00  0.00     0.210 C 
ENDBRANCH  24  29
ENDBRANCH   2  23
BRANCH   3  31
HETATM   31  C   UNL     1      -6.937   5.198 -33.323  1.00  0.00     0.038 A 
HETATM   32  C   UNL     1      -6.121   6.221 -32.809  1.00  0.00     0.032 A 
HETATM   33  C   UNL     1      -4.760   6.295 -33.120  1.00  0.00     0.039 A 
HETATM   34  C   UNL     1      -4.175   5.356 -33.962  1.00  0.00     0.068 A 
HETATM   35  C   UNL     1      -4.966   4.337 -34.484  1.00  0.00     0.039 A 
HETATM   36  C   UNL     1      -6.332   4.255 -34.160  1.00  0.00     0.032 A 
BRANCH  34  37
HETATM   37  O   UNL     1      -2.838   5.542 -34.179  1.00  0.00    -0.356 OA
HETATM   38  C   UNL     1      -2.176   6.481 -33.343  1.00  0.00     0.210 C 
ENDBRANCH  34  37
ENDBRANCH   3  31
TORSDOF 7
ENDMDL
MODEL 6
REMARK VINA RESULT:      -7.3      2.564      8.150
REMARK  7 active torsions:
REMARK  status: ('A' for Active; 'I' for Inactive)
REMARK       I    between atoms: C_2  and  N_3 
REMARK    1  A    between atoms: N_3  and  C_4 
REMARK    2  A    between atoms: C_7  and  N_8 
REMARK       I    between atoms: N_8  and  C_9 
REMARK    3  A    between atoms: C_9  and  C_10 
REMARK    4  A    between atoms: C_11  and  C_12 
REMARK    5  A    between atoms: C_13  and  O_14 
REMARK    6  A    between atoms: N_20  and  C_21 
REMARK    7  A    between atoms: C_24  and  O_25 
ROOT
HETATM    1  C   UNL     1      -6.708   2.120 -30.310  1.00  0.00     0.106 C 
HETATM    2  C   UNL     1      -7.062   2.178 -31.828  1.00  0.00     0.142 C 
HETATM    3  N   UNL     1      -5.851   2.016 -32.664  1.00  0.00    -0.308 N 
HETATM    4  C   UNL     1      -5.167   0.815 -32.422  1.00  0.00     0.225 C 
HETATM    5  O   UNL     1      -4.946  -0.051 -33.260  1.00  0.00    -0.273 OA
HETATM    6  C   UNL     1      -4.638   0.752 -31.006  1.00  0.00     0.104 C 
HETATM    7  C   UNL     1      -5.749   0.955 -29.991  1.00  0.00     0.026 C 
ENDROOT
BRANCH   1   8
HETATM    8  C   UNL     1      -6.213   3.456 -29.754  1.00  0.00     0.228 C 
HETATM    9  N   UNL     1      -7.201   4.109 -29.041  1.00  0.00    -0.327 N 
HETATM   10  H   UNL     1      -8.052   3.578 -28.877  1.00  0.00     0.169 HD
HETATM   11  O   UNL     1      -5.073   3.863 -29.948  1.00  0.00    -0.273 OA
BRANCH   9  12
HETATM   12  C   UNL     1      -7.234   5.430 -28.567  1.00  0.00     0.034 A 
HETATM   13  C   UNL     1      -6.156   6.086 -27.982  1.00  0.00     0.032 A 
HETATM   14  C   UNL     1      -6.262   7.441 -27.626  1.00  0.00     0.032 A 
HETATM   15  C   UNL     1      -7.448   8.147 -27.844  1.00  0.00     0.034 A 
HETATM   16  C   UNL     1      -8.538   7.474 -28.398  1.00  0.00     0.032 A 
HETATM   17  C   UNL     1      -8.429   6.130 -28.762  1.00  0.00     0.032 A 
BRANCH  15  18
HETATM   18  N   UNL     1      -7.627   9.514 -27.556  1.00  0.00    -0.328 N 
HETATM   19  C   UNL     1      -8.224  10.071 -26.441  1.00  0.00     0.218 C 
HETATM   20  C   UNL     1      -8.171  11.579 -26.467  1.00  0.00     0.117 C 
HETATM   21  O   UNL     1      -8.716   9.474 -25.490  1.00  0.00    -0.274 OA
HETATM   22  H   UNL     1      -7.227  10.162 -28.223  1.00  0.00     0.169 HD
ENDBRANCH  15  18
ENDBRANCH   9  12
ENDBRANCH   1   8
BRANCH   2  23
HETATM   23  C   UNL     1      -8.167   3.123 -32.352  1.00  0.00    -0.001 C 
HETATM   24  C   UNL     1      -9.260   2.685 -33.127  1.00  0.00     0.076 C 
HETATM   25  C   UNL     1     -10.292   3.560 -33.506  1.00  0.00     0.037 C 
HETATM   26  C   UNL     1     -10.205   4.915 -33.218  1.00  0.00     0.003 C 
HETATM   27  C   UNL     1      -9.072   5.401 -32.583  1.00  0.00     0.001 C 
HETATM   28  C   UNL     1      -8.061   4.521 -32.184  1.00  0.00     0.012 C 
BRANCH  24  29
HETATM   29  O   UNL     1      -9.345   1.361 -33.481  1.00  0.00    -0.355 OA
HETATM   30  C   UNL     1     -10.693   0.879 -33.479  1.00  0.00     0.210 C 
ENDBRANCH  24  29
ENDBRANCH   2  23
BRANCH   3  31
HETATM   31  C   UNL     1      -5.044   3.086 -33.194  1.00  0.00     0.038 A 
HETATM   32  C   UNL     1      -3.738   3.256 -32.701  1.00  0.00     0.032 A 
HETATM   33  C   UNL     1      -2.895   4.256 -33.195  1.00  0.00     0.039 A 
HETATM   34  C   UNL     1      -3.335   5.124 -34.188  1.00  0.00     0.068 A 
HETATM   35  C   UNL     1      -4.626   4.976 -34.686  1.00  0.00     0.039 A 
HETATM   36  C   UNL     1      -5.468   3.960 -34.199  1.00  0.00     0.032 A 
BRANCH  34  37
HETATM   37  O   UNL     1      -2.411   6.051 -34.583  1.00  0.00    -0.356 OA
HETATM   38  C   UNL     1      -2.110   7.091 -33.661  1.00  0.00     0.210 C 
ENDBRANCH  34  37
ENDBRANCH   3  31
TORSDOF 7
ENDMDL
MODEL 7
REMARK VINA RESULT:      -7.3      2.333      6.576
REMARK  7 active torsions:
REMARK  status: ('A' for Active; 'I' for Inactive)
REMARK       I    between atoms: C_2  and  N_3 
REMARK    1  A    between atoms: N_3  and  C_4 
REMARK    2  A    between atoms: C_7  and  N_8 
REMARK       I    between atoms: N_8  and  C_9 
REMARK    3  A    between atoms: C_9  and  C_10 
REMARK    4  A    between atoms: C_11  and  C_12 
REMARK    5  A    between atoms: C_13  and  O_14 
REMARK    6  A    between atoms: N_20  and  C_21 
REMARK    7  A    between atoms: C_24  and  O_25 
ROOT
HETATM    1  C   UNL     1      -8.259   3.226 -33.625  1.00  0.00     0.106 C 
HETATM    2  C   UNL     1      -8.408   2.684 -32.170  1.00  0.00     0.142 C 
HETATM    3  N   UNL     1      -8.987   3.712 -31.275  1.00  0.00    -0.308 N 
HETATM    4  C   UNL     1     -10.244   4.170 -31.698  1.00  0.00     0.225 C 
HETATM    5  O   UNL     1     -11.278   4.096 -31.044  1.00  0.00    -0.273 OA
HETATM    6  C   UNL     1     -10.159   4.867 -33.038  1.00  0.00     0.104 C 
HETATM    7  C   UNL     1      -9.529   3.969 -34.089  1.00  0.00     0.026 C 
ENDROOT
BRANCH   1   8
HETATM    8  C   UNL     1      -6.988   4.050 -33.837  1.00  0.00     0.228 C 
HETATM    9  N   UNL     1      -5.867   3.381 -33.384  1.00  0.00    -0.327 N 
HETATM   10  H   UNL     1      -6.012   2.417 -33.100  1.00  0.00     0.169 HD
HETATM   11  O   UNL     1      -7.009   5.167 -34.342  1.00  0.00    -0.273 OA
BRANCH   9  12
HETATM   12  C   UNL     1      -4.561   3.860 -33.188  1.00  0.00     0.034 A 
HETATM   13  C   UNL     1      -3.861   4.640 -34.101  1.00  0.00     0.032 A 
HETATM   14  C   UNL     1      -2.594   5.148 -33.771  1.00  0.00     0.032 A 
HETATM   15  C   UNL     1      -2.014   4.874 -32.531  1.00  0.00     0.034 A 
HETATM   16  C   UNL     1      -2.705   4.060 -31.631  1.00  0.00     0.032 A 
HETATM   17  C   UNL     1      -3.970   3.564 -31.955  1.00  0.00     0.032 A 
BRANCH  15  18
HETATM   18  N   UNL     1      -0.769   5.376 -32.103  1.00  0.00    -0.328 N 
HETATM   19  C   UNL     1      -0.490   6.638 -31.615  1.00  0.00     0.218 C 
HETATM   20  C   UNL     1       0.955   6.777 -31.203  1.00  0.00     0.117 C 
HETATM   21  O   UNL     1      -1.279   7.564 -31.466  1.00  0.00    -0.274 OA
HETATM   22  H   UNL     1      -0.002   4.716 -32.110  1.00  0.00     0.169 HD
ENDBRANCH  15  18
ENDBRANCH   9  12
ENDBRANCH   1   8
BRANCH   2  23
HETATM   23  C   UNL     1      -7.354   1.728 -31.566  1.00  0.00    -0.001 C 
HETATM   24  C   UNL     1      -6.980   0.507 -32.166  1.00  0.00     0.076 C 
HETATM   25  C   UNL     1      -5.953  -0.289 -31.634  1.00  0.00     0.037 C 
HETATM   26  C   UNL     1      -5.347   0.054 -30.433  1.00  0.00     0.003 C 
HETATM   27  C   UNL     1      -5.792   1.172 -29.745  1.00  0.00     0.001 C 
HETATM   28  C   UNL     1      -6.797   1.977 -30.293  1.00  0.00     0.012 C 
BRANCH  24  29
HETATM   29  O   UNL     1      -7.602   0.110 -33.323  1.00  0.00    -0.355 OA
HETATM   30  C   UNL     1      -6.679  -0.100 -34.397  1.00  0.00     0.210 C 
ENDBRANCH  24  29
ENDBRANCH   2  23
BRANCH   3  31
HETATM   31  C   UNL     1      -8.241   4.634 -30.457  1.00  0.00     0.038 A 
HETATM   32  C   UNL     1      -7.379   5.550 -31.084  1.00  0.00     0.032 A 
HETATM   33  C   UNL     1      -6.650   6.489 -30.349  1.00  0.00     0.039 A 
HETATM   34  C   UNL     1      -6.752   6.536 -28.962  1.00  0.00     0.068 A 
HETATM   35  C   UNL     1      -7.597   5.634 -28.322  1.00  0.00     0.039 A 
HETATM   36  C   UNL     1      -8.341   4.699 -29.063  1.00  0.00     0.032 A 
BRANCH  34  37
HETATM   37  O   UNL     1      -5.991   7.502 -28.368  1.00  0.00    -0.356 OA
HETATM   38  C   UNL     1      -5.059   7.072 -27.384  1.00  0.00     0.210 C 
ENDBRANCH  34  37
ENDBRANCH   3  31
TORSDOF 7
ENDMDL
MODEL 8
REMARK VINA RESULT:      -7.2      2.559      7.630
REMARK  7 active torsions:
REMARK  status: ('A' for Active; 'I' for Inactive)
REMARK       I    between atoms: C_2  and  N_3 
REMARK    1  A    between atoms: N_3  and  C_4 
REMARK    2  A    between atoms: C_7  and  N_8 
REMARK       I    between atoms: N_8  and  C_9 
REMARK    3  A    between atoms: C_9  and  C_10 
REMARK    4  A    between atoms: C_11  and  C_12 
REMARK    5  A    between atoms: C_13  and  O_14 
REMARK    6  A    between atoms: N_20  and  C_21 
REMARK    7  A    between atoms: C_24  and  O_25 
ROOT
HETATM    1  C   UNL     1      -7.085   1.650 -30.391  1.00  0.00     0.106 C 
HETATM    2  C   UNL     1      -7.087   1.439 -31.937  1.00  0.00     0.142 C 
HETATM    3  N   UNL     1      -5.726   1.596 -32.498  1.00  0.00    -0.308 N 
HETATM    4  C   UNL     1      -4.791   0.710 -31.941  1.00  0.00     0.225 C 
HETATM    5  O   UNL     1      -4.142  -0.117 -32.570  1.00  0.00    -0.273 OA
HETATM    6  C   UNL     1      -4.602   0.961 -30.461  1.00  0.00     0.104 C 
HETATM    7  C   UNL     1      -5.923   0.894 -29.715  1.00  0.00     0.026 C 
ENDROOT
BRANCH   1   8
HETATM    8  C   UNL     1      -7.144   3.121 -29.981  1.00  0.00     0.228 C 
HETATM    9  N   UNL     1      -5.884   3.689 -29.939  1.00  0.00    -0.327 N 
HETATM   10  H   UNL     1      -5.127   3.113 -30.297  1.00  0.00     0.169 HD
HETATM   11  O   UNL     1      -8.200   3.687 -29.721  1.00  0.00    -0.273 OA
BRANCH   9  12
HETATM   12  C   UNL     1      -5.479   4.923 -29.407  1.00  0.00     0.034 A 
HETATM   13  C   UNL     1      -5.670   5.315 -28.086  1.00  0.00     0.032 A 
HETATM   14  C   UNL     1      -5.143   6.533 -27.627  1.00  0.00     0.032 A 
HETATM   15  C   UNL     1      -4.429   7.373 -28.485  1.00  0.00     0.034 A 
HETATM   16  C   UNL     1      -4.271   6.992 -29.820  1.00  0.00     0.032 A 
HETATM   17  C   UNL     1      -4.785   5.775 -30.273  1.00  0.00     0.032 A 
BRANCH  15  18
HETATM   18  N   UNL     1      -3.833   8.589 -28.099  1.00  0.00    -0.328 N 
HETATM   19  C   UNL     1      -2.539   8.793 -27.658  1.00  0.00     0.218 C 
HETATM   20  C   UNL     1      -2.256  10.252 -27.396  1.00  0.00     0.117 C 
HETATM   21  O   UNL     1      -1.665   7.946 -27.517  1.00  0.00    -0.274 OA
HETATM   22  H   UNL     1      -4.408   9.415 -28.205  1.00  0.00     0.169 HD
ENDBRANCH  15  18
ENDBRANCH   9  12
ENDBRANCH   1   8
BRANCH   2  23
HETATM   23  C   UNL     1      -8.273   1.921 -32.803  1.00  0.00    -0.001 C 
HETATM   24  C   UNL     1      -8.810   1.171 -33.870  1.00  0.00     0.076 C 
HETATM   25  C   UNL     1      -9.947   1.602 -34.574  1.00  0.00     0.037 C 
HETATM   26  C   UNL     1     -10.511   2.842 -34.307  1.00  0.00     0.003 C 
HETATM   27  C   UNL     1      -9.918   3.666 -33.362  1.00  0.00     0.001 C 
HETATM   28  C   UNL     1      -8.803   3.220 -32.645  1.00  0.00     0.012 C 
BRANCH  24  29
HETATM   29  O   UNL     1      -8.238  -0.033 -34.200  1.00  0.00    -0.355 OA
HETATM   30  C   UNL     1      -7.358   0.068 -35.324  1.00  0.00     0.210 C 
ENDBRANCH  24  29
ENDBRANCH   2  23
BRANCH   3  31
HETATM   31  C   UNL     1      -5.172   2.812 -33.040  1.00  0.00     0.038 A 
HETATM   32  C   UNL     1      -3.858   3.169 -32.693  1.00  0.00     0.032 A 
HETATM   33  C   UNL     1      -3.253   4.320 -33.207  1.00  0.00     0.039 A 
HETATM   34  C   UNL     1      -3.947   5.154 -34.076  1.00  0.00     0.068 A 
HETATM   35  C   UNL     1      -5.252   4.821 -34.429  1.00  0.00     0.039 A 
HETATM   36  C   UNL     1      -5.855   3.655 -33.922  1.00  0.00     0.032 A 
BRANCH  34  37
HETATM   37  O   UNL     1      -3.240   6.241 -34.508  1.00  0.00    -0.356 OA
HETATM   38  C   UNL     1      -1.842   6.242 -34.249  1.00  0.00     0.210 C 
ENDBRANCH  34  37
ENDBRANCH   3  31
TORSDOF 7
ENDMDL
MODEL 9
REMARK VINA RESULT:      -7.2      2.905      5.511
REMARK  7 active torsions:
REMARK  status: ('A' for Active; 'I' for Inactive)
REMARK       I    between atoms: C_2  and  N_3 
REMARK    1  A    between atoms: N_3  and  C_4 
REMARK    2  A    between atoms: C_7  and  N_8 
REMARK       I    between atoms: N_8  and  C_9 
REMARK    3  A    between atoms: C_9  and  C_10 
REMARK    4  A    between atoms: C_11  and  C_12 
REMARK    5  A    between atoms: C_13  and  O_14 
REMARK    6  A    between atoms: N_20  and  C_21 
REMARK    7  A    between atoms: C_24  and  O_25 
ROOT
HETATM    1  C   UNL     1      -6.236   6.871 -29.314  1.00  0.00     0.106 C 
HETATM    2  C   UNL     1      -5.031   7.852 -29.166  1.00  0.00     0.142 C 
HETATM    3  N   UNL     1      -4.700   8.487 -30.462  1.00  0.00    -0.308 N 
HETATM    4  C   UNL     1      -5.773   9.198 -31.021  1.00  0.00     0.225 C 
HETATM    5  O   UNL     1      -5.763  10.394 -31.287  1.00  0.00    -0.273 OA
HETATM    6  C   UNL     1      -6.931   8.284 -31.356  1.00  0.00     0.104 C 
HETATM    7  C   UNL     1      -7.381   7.494 -30.139  1.00  0.00     0.026 C 
ENDROOT
BRANCH   1   8
HETATM    8  C   UNL     1      -5.830   5.489 -29.827  1.00  0.00     0.228 C 
HETATM    9  N   UNL     1      -6.703   5.029 -30.795  1.00  0.00    -0.327 N 
HETATM   10  H   UNL     1      -7.397   5.697 -31.119  1.00  0.00     0.169 HD
HETATM   11  O   UNL     1      -4.849   4.894 -29.398  1.00  0.00    -0.273 OA
BRANCH   9  12
HETATM   12  C   UNL     1      -6.822   3.746 -31.352  1.00  0.00     0.034 A 
HETATM   13  C   UNL     1      -7.601   2.723 -30.822  1.00  0.00     0.032 A 
HETATM   14  C   UNL     1      -7.728   1.504 -31.507  1.00  0.00     0.032 A 
HETATM   15  C   UNL     1      -7.071   1.293 -32.721  1.00  0.00     0.034 A 
HETATM   16  C   UNL     1      -6.260   2.309 -33.231  1.00  0.00     0.032 A 
HETATM   17  C   UNL     1      -6.143   3.526 -32.556  1.00  0.00     0.032 A 
BRANCH  15  18
HETATM   18  N   UNL     1      -7.175   0.119 -33.493  1.00  0.00    -0.328 N 
HETATM   19  C   UNL     1      -6.386  -1.013 -33.419  1.00  0.00     0.218 C 
HETATM   20  C   UNL     1      -6.849  -2.087 -34.372  1.00  0.00     0.117 C 
HETATM   21  O   UNL     1      -5.439  -1.206 -32.665  1.00  0.00    -0.274 OA
HETATM   22  H   UNL     1      -7.950   0.085 -34.142  1.00  0.00     0.169 HD
ENDBRANCH  15  18
ENDBRANCH   9  12
ENDBRANCH   1   8
BRANCH   2  23
HETATM   23  C   UNL     1      -3.860   7.534 -28.209  1.00  0.00    -0.001 C 
HETATM   24  C   UNL     1      -3.976   7.567 -26.804  1.00  0.00     0.076 C 
HETATM   25  C   UNL     1      -2.914   7.182 -25.969  1.00  0.00     0.037 C 
HETATM   26  C   UNL     1      -1.676   6.862 -26.509  1.00  0.00     0.003 C 
HETATM   27  C   UNL     1      -1.489   6.960 -27.879  1.00  0.00     0.001 C 
HETATM   28  C   UNL     1      -2.557   7.317 -28.708  1.00  0.00     0.012 C 
BRANCH  24  29
HETATM   29  O   UNL     1      -5.170   7.937 -26.237  1.00  0.00    -0.355 OA
HETATM   30  C   UNL     1      -5.132   9.262 -25.695  1.00  0.00     0.210 C 
ENDBRANCH  24  29
ENDBRANCH   2  23
BRANCH   3  31
HETATM   31  C   UNL     1      -3.717   8.016 -31.405  1.00  0.00     0.038 A 
HETATM   32  C   UNL     1      -4.022   6.893 -32.194  1.00  0.00     0.032 A 
HETATM   33  C   UNL     1      -3.124   6.404 -33.147  1.00  0.00     0.039 A 
HETATM   34  C   UNL     1      -1.889   7.015 -33.333  1.00  0.00     0.068 A 
HETATM   35  C   UNL     1      -1.566   8.125 -32.559  1.00  0.00     0.039 A 
HETATM   36  C   UNL     1      -2.476   8.626 -31.610  1.00  0.00     0.032 A 
BRANCH  34  37
HETATM   37  O   UNL     1      -1.109   6.440 -34.298  1.00  0.00    -0.356 OA
HETATM   38  C   UNL     1      -1.577   5.221 -34.859  1.00  0.00     0.210 C 
ENDBRANCH  34  37
ENDBRANCH   3  31
TORSDOF 7
ENDMDL
MODEL 10
REMARK VINA RESULT:      -7.1     17.283     20.377
REMARK  7 active torsions:
REMARK  status: ('A' for Active; 'I' for Inactive)
REMARK       I    between atoms: C_2  and  N_3 
REMARK    1  A    between atoms: N_3  and  C_4 
REMARK    2  A    between atoms: C_7  and  N_8 
REMARK       I    between atoms: N_8  and  C_9 
REMARK    3  A    between atoms: C_9  and  C_10 
REMARK    4  A    between atoms: C_11  and  C_12 
REMARK    5  A    between atoms: C_13  and  O_14 
REMARK    6  A    between atoms: N_20  and  C_21 
REMARK    7  A    between atoms: C_24  and  O_25 
ROOT
HETATM    1  C   UNL     1      -7.306 -16.760 -41.274  1.00  0.00     0.106 C 
HETATM    2  C   UNL     1      -7.457 -15.235 -41.568  1.00  0.00     0.142 C 
HETATM    3  N   UNL     1      -6.136 -14.596 -41.758  1.00  0.00    -0.308 N 
HETATM    4  C   UNL     1      -5.389 -15.167 -42.801  1.00  0.00     0.225 C 
HETATM    5  O   UNL     1      -4.984 -14.567 -43.789  1.00  0.00    -0.273 OA
HETATM    6  C   UNL     1      -5.050 -16.614 -42.513  1.00  0.00     0.104 C 
HETATM    7  C   UNL     1      -6.301 -17.429 -42.233  1.00  0.00     0.026 C 
ENDROOT
BRANCH   1   8
HETATM    8  C   UNL     1      -7.007 -17.066 -39.806  1.00  0.00     0.228 C 
HETATM    9  N   UNL     1      -7.695 -16.218 -38.959  1.00  0.00    -0.327 N 
HETATM   10  H   UNL     1      -8.382 -15.613 -39.400  1.00  0.00     0.169 HD
HETATM   11  O   UNL     1      -6.236 -17.957 -39.467  1.00  0.00    -0.273 OA
BRANCH   9  12
HETATM   12  C   UNL     1      -7.538 -16.015 -37.578  1.00  0.00     0.034 A 
HETATM   13  C   UNL     1      -7.796 -16.974 -36.605  1.00  0.00     0.032 A 
HETATM   14  C   UNL     1      -7.516 -16.704 -35.255  1.00  0.00     0.032 A 
HETATM   15  C   UNL     1      -6.984 -15.471 -34.867  1.00  0.00     0.034 A 
HETATM   16  C   UNL     1      -6.761 -14.499 -35.844  1.00  0.00     0.032 A 
HETATM   17  C   UNL     1      -7.028 -14.772 -37.187  1.00  0.00     0.032 A 
BRANCH  15  18
HETATM   18  N   UNL     1      -6.636 -15.132 -33.545  1.00  0.00    -0.328 N 
HETATM   19  C   UNL     1      -5.393 -15.225 -32.949  1.00  0.00     0.218 C 
HETATM   20  C   UNL     1      -5.407 -14.708 -31.531  1.00  0.00     0.117 C 
HETATM   21  O   UNL     1      -4.355 -15.625 -33.463  1.00  0.00    -0.274 OA
HETATM   22  H   UNL     1      -7.376 -14.729 -32.984  1.00  0.00     0.169 HD
ENDBRANCH  15  18
ENDBRANCH   9  12
ENDBRANCH   1   8
BRANCH   2  23
HETATM   23  C   UNL     1      -8.560 -14.398 -40.880  1.00  0.00    -0.001 C 
HETATM   24  C   UNL     1      -9.935 -14.695 -40.980  1.00  0.00     0.076 C 
HETATM   25  C   UNL     1     -10.899 -13.965 -40.265  1.00  0.00     0.037 C 
HETATM   26  C   UNL     1     -10.529 -12.853 -39.520  1.00  0.00     0.003 C 
HETATM   27  C   UNL     1      -9.202 -12.450 -39.519  1.00  0.00     0.001 C 
HETATM   28  C   UNL     1      -8.243 -13.196 -40.211  1.00  0.00     0.012 C 
BRANCH  24  29
HETATM   29  O   UNL     1     -10.339 -15.752 -41.756  1.00  0.00    -0.355 OA
HETATM   30  C   UNL     1     -11.022 -16.758 -41.000  1.00  0.00     0.210 C 
ENDBRANCH  24  29
ENDBRANCH   2  23
BRANCH   3  31
HETATM   31  C   UNL     1      -5.360 -13.941 -40.735  1.00  0.00     0.038 A 
HETATM   32  C   UNL     1      -4.528 -14.721 -39.914  1.00  0.00     0.032 A 
HETATM   33  C   UNL     1      -3.730 -14.143 -38.923  1.00  0.00     0.039 A 
HETATM   34  C   UNL     1      -3.746 -12.768 -38.715  1.00  0.00     0.068 A 
HETATM   35  C   UNL     1      -4.567 -11.978 -39.514  1.00  0.00     0.039 A 
HETATM   36  C   UNL     1      -5.360 -12.559 -40.520  1.00  0.00     0.032 A 
BRANCH  34  37
HETATM   37  O   UNL     1      -2.917 -12.334 -37.719  1.00  0.00    -0.356 OA
HETATM   38  C   UNL     1      -1.559 -12.749 -37.786  1.00  0.00     0.210 C 
ENDBRANCH  34  37
ENDBRANCH   3  31
TORSDOF 7
ENDMDL
