MODEL 1
REMARK VINA RESULT:      -9.3      0.000      0.000
REMARK  3 active torsions:
REMARK  status: ('A' for Active; 'I' for Inactive)
REMARK    1  A    between atoms: C_3  and  C_4 
REMARK       I    between atoms: C_4  and  N_5 
REMARK    2  A    between atoms: N_5  and  C_6 
REMARK    3  A    between atoms: C_13  and  C_14 
REMARK       I    between atoms: C_14  and  N_15 
ROOT
HETATM    1  C   UNL     1      -3.659   3.518 -32.643  1.00  0.00     0.035 A 
HETATM    2  C   UNL     1      -2.478   3.813 -31.942  1.00  0.00     0.046 A 
HETATM    3  C   UNL     1      -1.943   5.118 -31.990  1.00  0.00     0.030 A 
HETATM    4  C   UNL     1      -2.600   6.082 -32.741  1.00  0.00     0.063 A 
HETATM    5  N   UNL     1      -1.856   7.219 -32.601  1.00  0.00    -0.277 N 
HETATM    6  H   UNL     1      -2.037   8.127 -33.016  1.00  0.00     0.189 HD
HETATM    7  N   UNL     1      -0.773   7.083 -31.814  1.00  0.00    -0.168 NA
HETATM    8  C   UNL     1      -0.815   5.787 -31.431  1.00  0.00     0.156 A 
HETATM    9  C   UNL     1      -3.773   5.822 -33.451  1.00  0.00     0.034 A 
HETATM   10  C   UNL     1      -4.290   4.521 -33.383  1.00  0.00     0.032 A 
ENDROOT
BRANCH   1  11
HETATM   11  N   UNL     1      -4.137   2.198 -32.548  1.00  0.00    -0.325 N 
HETATM   12  C   UNL     1      -4.997   1.660 -31.605  1.00  0.00     0.252 C 
HETATM   13  O   UNL     1      -5.483   2.246 -30.642  1.00  0.00    -0.270 OA
HETATM   14  H   UNL     1      -3.850   1.553 -33.281  1.00  0.00     0.169 HD
BRANCH  12  15
HETATM   15  C   UNL     1      -5.248   0.162 -31.816  1.00  0.00     0.229 C 
HETATM   16  C   UNL     1      -4.092  -0.461 -32.621  1.00  0.00     0.056 C 
HETATM   17  C   UNL     1      -3.012  -1.060 -31.733  1.00  0.00     0.018 C 
HETATM   18  C   UNL     1      -4.869  -1.449 -33.416  1.00  0.00    -0.018 A 
HETATM   19  C   UNL     1      -6.218  -1.132 -33.340  1.00  0.00     0.076 A 
HETATM   20  C   UNL     1      -4.439  -2.505 -34.200  1.00  0.00     0.010 A 
HETATM   21  O   UNL     1      -6.488  -0.051 -32.543  1.00  0.00    -0.335 OA
HETATM   22  C   UNL     1      -7.179  -1.841 -34.030  1.00  0.00     0.037 A 
HETATM   23  C   UNL     1      -6.759  -2.916 -34.814  1.00  0.00     0.003 A 
HETATM   24  C   UNL     1      -5.396  -3.247 -34.897  1.00  0.00     0.001 A 
ENDBRANCH  12  15
ENDBRANCH   1  11
BRANCH   8  25
HETATM   25  C   UNL     1       0.207   5.217 -30.543  1.00  0.00     0.270 C 
HETATM   26  N   UNL     1      -0.061   5.368 -29.210  1.00  0.00    -0.365 N 
HETATM   27  H   UNL     1      -0.915   5.842 -28.938  1.00  0.00     0.159 HD
HETATM   28  H   UNL     1       0.579   5.003 -28.524  1.00  0.00     0.159 HD
HETATM   29  O   UNL     1       1.222   4.648 -30.929  1.00  0.00    -0.266 OA
ENDBRANCH   8  25
TORSDOF 3
ENDMDL
MODEL 2
REMARK VINA RESULT:      -8.7      3.170      8.127
REMARK  3 active torsions:
REMARK  status: ('A' for Active; 'I' for Inactive)
REMARK    1  A    between atoms: C_3  and  C_4 
REMARK       I    between atoms: C_4  and  N_5 
REMARK    2  A    between atoms: N_5  and  C_6 
REMARK    3  A    between atoms: C_13  and  C_14 
REMARK       I    between atoms: C_14  and  N_15 
ROOT
HETATM    1  C   UNL     1      -5.888  -0.172 -34.000  1.00  0.00     0.035 A 
HETATM    2  C   UNL     1      -5.054  -1.268 -33.726  1.00  0.00     0.046 A 
HETATM    3  C   UNL     1      -5.445  -2.563 -34.126  1.00  0.00     0.030 A 
HETATM    4  C   UNL     1      -6.659  -2.721 -34.781  1.00  0.00     0.063 A 
HETATM    5  N   UNL     1      -6.762  -4.060 -35.033  1.00  0.00    -0.277 N 
HETATM    6  H   UNL     1      -7.526  -4.540 -35.498  1.00  0.00     0.189 HD
HETATM    7  N   UNL     1      -5.715  -4.790 -34.607  1.00  0.00    -0.168 NA
HETATM    8  C   UNL     1      -4.894  -3.875 -34.044  1.00  0.00     0.156 A 
HETATM    9  C   UNL     1      -7.513  -1.654 -35.067  1.00  0.00     0.034 A 
HETATM   10  C   UNL     1      -7.099  -0.376 -34.665  1.00  0.00     0.032 A 
ENDROOT
BRANCH   1  11
HETATM   11  N   UNL     1      -5.433   1.091 -33.574  1.00  0.00    -0.325 N 
HETATM   12  C   UNL     1      -5.583   1.684 -32.332  1.00  0.00     0.252 C 
HETATM   13  O   UNL     1      -6.182   1.216 -31.367  1.00  0.00    -0.270 OA
HETATM   14  H   UNL     1      -4.891   1.632 -34.244  1.00  0.00     0.169 HD
BRANCH  12  15
HETATM   15  C   UNL     1      -4.982   3.093 -32.270  1.00  0.00     0.229 C 
HETATM   16  C   UNL     1      -5.146   3.800 -33.630  1.00  0.00     0.056 C 
HETATM   17  C   UNL     1      -6.404   4.651 -33.703  1.00  0.00     0.018 C 
HETATM   18  C   UNL     1      -3.870   4.563 -33.649  1.00  0.00    -0.018 A 
HETATM   19  C   UNL     1      -3.019   4.050 -32.680  1.00  0.00     0.076 A 
HETATM   20  C   UNL     1      -3.449   5.583 -34.484  1.00  0.00     0.010 A 
HETATM   21  O   UNL     1      -3.567   3.032 -31.947  1.00  0.00    -0.335 OA
HETATM   22  C   UNL     1      -1.735   4.523 -32.505  1.00  0.00     0.037 A 
HETATM   23  C   UNL     1      -1.304   5.560 -33.333  1.00  0.00     0.003 A 
HETATM   24  C   UNL     1      -2.157   6.088 -34.316  1.00  0.00     0.001 A 
ENDBRANCH  12  15
ENDBRANCH   1  11
BRANCH   8  25
HETATM   25  C   UNL     1      -3.609  -4.264 -33.447  1.00  0.00     0.270 C 
HETATM   26  N   UNL     1      -2.947  -5.246 -34.133  1.00  0.00    -0.365 N 
HETATM   27  H   UNL     1      -3.372  -5.620 -34.974  1.00  0.00     0.159 HD
HETATM   28  H   UNL     1      -2.054  -5.574 -33.804  1.00  0.00     0.159 HD
HETATM   29  O   UNL     1      -3.140  -3.771 -32.427  1.00  0.00    -0.266 OA
ENDBRANCH   8  25
TORSDOF 3
ENDMDL
MODEL 3
REMARK VINA RESULT:      -8.6      5.200      7.170
REMARK  3 active torsions:
REMARK  status: ('A' for Active; 'I' for Inactive)
REMARK    1  A    between atoms: C_3  and  C_4 
REMARK       I    between atoms: C_4  and  N_5 
REMARK    2  A    between atoms: N_5  and  C_6 
REMARK    3  A    between atoms: C_13  and  C_14 
REMARK       I    between atoms: C_14  and  N_15 
ROOT
HETATM    1  C   UNL     1      -8.148   2.480 -33.820  1.00  0.00     0.035 A 
HETATM    2  C   UNL     1      -9.464   2.570 -34.303  1.00  0.00     0.046 A 
HETATM    3  C   UNL     1     -10.025   3.836 -34.575  1.00  0.00     0.030 A 
HETATM    4  C   UNL     1      -9.256   4.969 -34.350  1.00  0.00     0.063 A 
HETATM    5  N   UNL     1     -10.054   6.023 -34.694  1.00  0.00    -0.277 N 
HETATM    6  H   UNL     1      -9.821   7.010 -34.653  1.00  0.00     0.189 HD
HETATM    7  N   UNL     1     -11.277   5.675 -35.133  1.00  0.00    -0.168 NA
HETATM    8  C   UNL     1     -11.271   4.325 -35.065  1.00  0.00     0.156 A 
HETATM    9  C   UNL     1      -7.947   4.916 -33.868  1.00  0.00     0.034 A 
HETATM   10  C   UNL     1      -7.409   3.647 -33.611  1.00  0.00     0.032 A 
ENDROOT
BRANCH   1  11
HETATM   11  N   UNL     1      -7.653   1.185 -33.573  1.00  0.00    -0.325 N 
HETATM   12  C   UNL     1      -7.124   0.281 -34.477  1.00  0.00     0.252 C 
HETATM   13  O   UNL     1      -7.017   0.438 -35.690  1.00  0.00    -0.270 OA
HETATM   14  H   UNL     1      -7.645   0.876 -32.603  1.00  0.00     0.169 HD
BRANCH  12  15
HETATM   15  C   UNL     1      -6.732  -1.050 -33.825  1.00  0.00     0.229 C 
HETATM   16  C   UNL     1      -5.207  -1.105 -33.605  1.00  0.00     0.056 C 
HETATM   17  C   UNL     1      -4.796  -0.634 -32.219  1.00  0.00     0.018 C 
HETATM   18  C   UNL     1      -4.988  -2.552 -33.867  1.00  0.00    -0.018 A 
HETATM   19  C   UNL     1      -6.109  -3.076 -34.494  1.00  0.00     0.076 A 
HETATM   20  C   UNL     1      -3.875  -3.344 -33.639  1.00  0.00     0.010 A 
HETATM   21  O   UNL     1      -7.119  -2.168 -34.669  1.00  0.00    -0.335 OA
HETATM   22  C   UNL     1      -6.170  -4.389 -34.914  1.00  0.00     0.037 A 
HETATM   23  C   UNL     1      -5.060  -5.201 -34.679  1.00  0.00     0.003 A 
HETATM   24  C   UNL     1      -3.920  -4.681 -34.044  1.00  0.00     0.001 A 
ENDBRANCH  12  15
ENDBRANCH   1  11
BRANCH   8  25
HETATM   25  C   UNL     1     -12.441   3.532 -35.467  1.00  0.00     0.270 C 
HETATM   26  N   UNL     1     -13.472   3.558 -34.568  1.00  0.00    -0.365 N 
HETATM   27  H   UNL     1     -13.362   4.105 -33.721  1.00  0.00     0.159 HD
HETATM   28  H   UNL     1     -14.320   3.051 -34.761  1.00  0.00     0.159 HD
HETATM   29  O   UNL     1     -12.520   2.893 -36.511  1.00  0.00    -0.266 OA
ENDBRANCH   8  25
TORSDOF 3
ENDMDL
MODEL 4
REMARK VINA RESULT:      -8.4      1.986      2.410
REMARK  3 active torsions:
REMARK  status: ('A' for Active; 'I' for Inactive)
REMARK    1  A    between atoms: C_3  and  C_4 
REMARK       I    between atoms: C_4  and  N_5 
REMARK    2  A    between atoms: N_5  and  C_6 
REMARK    3  A    between atoms: C_13  and  C_14 
REMARK       I    between atoms: C_14  and  N_15 
ROOT
HETATM    1  C   UNL     1      -3.107   4.154 -33.083  1.00  0.00     0.035 A 
HETATM    2  C   UNL     1      -3.409   5.177 -32.170  1.00  0.00     0.046 A 
HETATM    3  C   UNL     1      -2.835   6.456 -32.336  1.00  0.00     0.030 A 
HETATM    4  C   UNL     1      -1.975   6.668 -33.404  1.00  0.00     0.063 A 
HETATM    5  N   UNL     1      -1.584   7.973 -33.301  1.00  0.00    -0.277 N 
HETATM    6  H   UNL     1      -0.951   8.475 -33.914  1.00  0.00     0.189 HD
HETATM    7  N   UNL     1      -2.123   8.635 -32.261  1.00  0.00    -0.168 NA
HETATM    8  C   UNL     1      -2.899   7.707 -31.657  1.00  0.00     0.156 A 
HETATM    9  C   UNL     1      -1.652   5.673 -34.329  1.00  0.00     0.034 A 
HETATM   10  C   UNL     1      -2.239   4.413 -34.147  1.00  0.00     0.032 A 
ENDROOT
BRANCH   1  11
HETATM   11  N   UNL     1      -3.717   2.905 -32.857  1.00  0.00    -0.325 N 
HETATM   12  C   UNL     1      -3.459   1.993 -31.848  1.00  0.00     0.252 C 
HETATM   13  O   UNL     1      -2.610   2.100 -30.966  1.00  0.00    -0.270 OA
HETATM   14  H   UNL     1      -4.470   2.642 -33.488  1.00  0.00     0.169 HD
BRANCH  12  15
HETATM   15  C   UNL     1      -4.306   0.721 -31.966  1.00  0.00     0.229 C 
HETATM   16  C   UNL     1      -3.524  -0.368 -32.725  1.00  0.00     0.056 C 
HETATM   17  C   UNL     1      -2.766  -1.304 -31.796  1.00  0.00     0.018 C 
HETATM   18  C   UNL     1      -4.655  -0.994 -33.461  1.00  0.00    -0.018 A 
HETATM   19  C   UNL     1      -5.753  -0.148 -33.411  1.00  0.00     0.076 A 
HETATM   20  C   UNL     1      -4.711  -2.178 -34.176  1.00  0.00     0.010 A 
HETATM   21  O   UNL     1      -5.540   0.993 -32.685  1.00  0.00    -0.335 OA
HETATM   22  C   UNL     1      -6.935  -0.440 -34.060  1.00  0.00     0.037 A 
HETATM   23  C   UNL     1      -7.009  -1.637 -34.774  1.00  0.00     0.003 A 
HETATM   24  C   UNL     1      -5.903  -2.501 -34.831  1.00  0.00     0.001 A 
ENDBRANCH  12  15
ENDBRANCH   1  11
BRANCH   8  25
HETATM   25  C   UNL     1      -3.682   8.029 -30.456  1.00  0.00     0.270 C 
HETATM   26  N   UNL     1      -4.994   8.327 -30.705  1.00  0.00    -0.365 N 
HETATM   27  H   UNL     1      -5.322   8.303 -31.665  1.00  0.00     0.159 HD
HETATM   28  H   UNL     1      -5.612   8.552 -29.944  1.00  0.00     0.159 HD
HETATM   29  O   UNL     1      -3.232   8.035 -29.315  1.00  0.00    -0.266 OA
ENDBRANCH   8  25
TORSDOF 3
ENDMDL
MODEL 5
REMARK VINA RESULT:      -8.2      4.006      5.896
REMARK  3 active torsions:
REMARK  status: ('A' for Active; 'I' for Inactive)
REMARK    1  A    between atoms: C_3  and  C_4 
REMARK       I    between atoms: C_4  and  N_5 
REMARK    2  A    between atoms: N_5  and  C_6 
REMARK    3  A    between atoms: C_13  and  C_14 
REMARK       I    between atoms: C_14  and  N_15 
ROOT
HETATM    1  C   UNL     1      -6.562   2.734 -31.961  1.00  0.00     0.035 A 
HETATM    2  C   UNL     1      -7.933   2.983 -31.787  1.00  0.00     0.046 A 
HETATM    3  C   UNL     1      -8.352   4.079 -31.004  1.00  0.00     0.030 A 
HETATM    4  C   UNL     1      -7.389   4.885 -30.414  1.00  0.00     0.063 A 
HETATM    5  N   UNL     1      -8.085   5.840 -29.729  1.00  0.00    -0.277 N 
HETATM    6  H   UNL     1      -7.704   6.599 -29.173  1.00  0.00     0.189 HD
HETATM    7  N   UNL     1      -9.423   5.732 -29.828  1.00  0.00    -0.168 NA
HETATM    8  C   UNL     1      -9.600   4.647 -30.614  1.00  0.00     0.156 A 
HETATM    9  C   UNL     1      -6.018   4.664 -30.563  1.00  0.00     0.034 A 
HETATM   10  C   UNL     1      -5.626   3.573 -31.352  1.00  0.00     0.032 A 
ENDROOT
BRANCH   1  11
HETATM   11  N   UNL     1      -6.217   1.625 -32.757  1.00  0.00    -0.325 N 
HETATM   12  C   UNL     1      -5.605   0.445 -32.368  1.00  0.00     0.252 C 
HETATM   13  O   UNL     1      -5.217   0.162 -31.238  1.00  0.00    -0.270 OA
HETATM   14  H   UNL     1      -6.478   1.668 -33.740  1.00  0.00     0.169 HD
BRANCH  12  15
HETATM   15  C   UNL     1      -5.356  -0.509 -33.542  1.00  0.00     0.229 C 
HETATM   16  C   UNL     1      -6.673  -1.188 -33.963  1.00  0.00     0.056 C 
HETATM   17  C   UNL     1      -7.383  -0.450 -35.088  1.00  0.00     0.018 C 
HETATM   18  C   UNL     1      -6.136  -2.526 -34.331  1.00  0.00    -0.018 A 
HETATM   19  C   UNL     1      -4.852  -2.655 -33.824  1.00  0.00     0.076 A 
HETATM   20  C   UNL     1      -6.738  -3.578 -34.999  1.00  0.00     0.010 A 
HETATM   21  O   UNL     1      -4.401  -1.539 -33.170  1.00  0.00    -0.335 OA
HETATM   22  C   UNL     1      -4.123  -3.818 -33.957  1.00  0.00     0.037 A 
HETATM   23  C   UNL     1      -4.713  -4.882 -34.640  1.00  0.00     0.003 A 
HETATM   24  C   UNL     1      -6.013  -4.762 -35.159  1.00  0.00     0.001 A 
ENDBRANCH  12  15
ENDBRANCH   1  11
BRANCH   8  25
HETATM   25  C   UNL     1     -10.944   4.177 -30.979  1.00  0.00     0.270 C 
HETATM   26  N   UNL     1     -11.656   3.650 -29.937  1.00  0.00    -0.365 N 
HETATM   27  H   UNL     1     -11.224   3.624 -29.019  1.00  0.00     0.159 HD
HETATM   28  H   UNL     1     -12.591   3.309 -30.088  1.00  0.00     0.159 HD
HETATM   29  O   UNL     1     -11.417   4.240 -32.109  1.00  0.00    -0.266 OA
ENDBRANCH   8  25
TORSDOF 3
ENDMDL
MODEL 6
REMARK VINA RESULT:      -8.0      6.261      9.262
REMARK  3 active torsions:
REMARK  status: ('A' for Active; 'I' for Inactive)
REMARK    1  A    between atoms: C_3  and  C_4 
REMARK       I    between atoms: C_4  and  N_5 
REMARK    2  A    between atoms: N_5  and  C_6 
REMARK    3  A    between atoms: C_13  and  C_14 
REMARK       I    between atoms: C_14  and  N_15 
ROOT
HETATM    1  C   UNL     1     -11.648   1.522 -33.919  1.00  0.00     0.035 A 
HETATM    2  C   UNL     1     -12.069   2.456 -32.959  1.00  0.00     0.046 A 
HETATM    3  C   UNL     1     -13.447   2.650 -32.727  1.00  0.00     0.030 A 
HETATM    4  C   UNL     1     -14.359   1.910 -33.466  1.00  0.00     0.063 A 
HETATM    5  N   UNL     1     -15.590   2.312 -33.030  1.00  0.00    -0.277 N 
HETATM    6  H   UNL     1     -16.494   1.984 -33.353  1.00  0.00     0.189 HD
HETATM    7  N   UNL     1     -15.560   3.246 -32.062  1.00  0.00    -0.168 NA
HETATM    8  C   UNL     1     -14.240   3.464 -31.866  1.00  0.00     0.156 A 
HETATM    9  C   UNL     1     -13.976   0.976 -34.430  1.00  0.00     0.034 A 
HETATM   10  C   UNL     1     -12.601   0.796 -34.638  1.00  0.00     0.032 A 
ENDROOT
BRANCH   1  11
HETATM   11  N   UNL     1     -10.259   1.379 -34.096  1.00  0.00    -0.325 N 
HETATM   12  C   UNL     1      -9.399   0.495 -33.466  1.00  0.00     0.252 C 
HETATM   13  O   UNL     1      -9.697  -0.320 -32.597  1.00  0.00    -0.270 OA
HETATM   14  H   UNL     1      -9.824   1.971 -34.800  1.00  0.00     0.169 HD
BRANCH  12  15
HETATM   15  C   UNL     1      -7.940   0.677 -33.899  1.00  0.00     0.229 C 
HETATM   16  C   UNL     1      -7.129  -0.593 -33.579  1.00  0.00     0.056 C 
HETATM   17  C   UNL     1      -7.057  -1.556 -34.754  1.00  0.00     0.018 C 
HETATM   18  C   UNL     1      -5.837   0.044 -33.209  1.00  0.00    -0.018 A 
HETATM   19  C   UNL     1      -6.044   1.397 -32.989  1.00  0.00     0.076 A 
HETATM   20  C   UNL     1      -4.586  -0.517 -33.014  1.00  0.00     0.010 A 
HETATM   21  O   UNL     1      -7.335   1.800 -33.202  1.00  0.00    -0.335 OA
HETATM   22  C   UNL     1      -5.033   2.237 -32.572  1.00  0.00     0.037 A 
HETATM   23  C   UNL     1      -3.764   1.687 -32.384  1.00  0.00     0.003 A 
HETATM   24  C   UNL     1      -3.542   0.317 -32.605  1.00  0.00     0.001 A 
ENDBRANCH  12  15
ENDBRANCH   1  11
BRANCH   8  25
HETATM   25  C   UNL     1     -13.764   4.430 -30.867  1.00  0.00     0.270 C 
HETATM   26  N   UNL     1     -12.925   3.897 -29.926  1.00  0.00    -0.365 N 
HETATM   27  H   UNL     1     -12.698   2.911 -29.984  1.00  0.00     0.159 HD
HETATM   28  H   UNL     1     -12.541   4.485 -29.205  1.00  0.00     0.159 HD
HETATM   29  O   UNL     1     -14.068   5.618 -30.851  1.00  0.00    -0.266 OA
ENDBRANCH   8  25
TORSDOF 3
ENDMDL
MODEL 7
REMARK VINA RESULT:      -8.0      2.819      8.308
REMARK  3 active torsions:
REMARK  status: ('A' for Active; 'I' for Inactive)
REMARK    1  A    between atoms: C_3  and  C_4 
REMARK       I    between atoms: C_4  and  N_5 
REMARK    2  A    between atoms: N_5  and  C_6 
REMARK    3  A    between atoms: C_13  and  C_14 
REMARK       I    between atoms: C_14  and  N_15 
ROOT
HETATM    1  C   UNL     1      -3.701   3.457 -31.349  1.00  0.00     0.035 A 
HETATM    2  C   UNL     1      -3.287   2.119 -31.447  1.00  0.00     0.046 A 
HETATM    3  C   UNL     1      -4.240   1.106 -31.684  1.00  0.00     0.030 A 
HETATM    4  C   UNL     1      -5.576   1.461 -31.807  1.00  0.00     0.063 A 
HETATM    5  N   UNL     1      -6.244   0.290 -32.022  1.00  0.00    -0.277 N 
HETATM    6  H   UNL     1      -7.243   0.167 -32.155  1.00  0.00     0.189 HD
HETATM    7  N   UNL     1      -5.458  -0.801 -32.059  1.00  0.00    -0.168 NA
HETATM    8  C   UNL     1      -4.216  -0.310 -31.851  1.00  0.00     0.156 A 
HETATM    9  C   UNL     1      -6.023   2.781 -31.712  1.00  0.00     0.034 A 
HETATM   10  C   UNL     1      -5.056   3.771 -31.483  1.00  0.00     0.032 A 
ENDROOT
BRANCH   1  11
HETATM   11  N   UNL     1      -2.697   4.415 -31.115  1.00  0.00    -0.325 N 
HETATM   12  C   UNL     1      -1.809   4.969 -32.022  1.00  0.00     0.252 C 
HETATM   13  O   UNL     1      -1.718   4.694 -33.215  1.00  0.00    -0.270 OA
HETATM   14  H   UNL     1      -2.626   4.782 -30.168  1.00  0.00     0.169 HD
BRANCH  12  15
HETATM   15  C   UNL     1      -0.830   5.952 -31.370  1.00  0.00     0.229 C 
HETATM   16  C   UNL     1      -0.040   5.249 -30.248  1.00  0.00     0.056 C 
HETATM   17  C   UNL     1       1.289   4.689 -30.728  1.00  0.00     0.018 C 
HETATM   18  C   UNL     1       0.064   6.384 -29.293  1.00  0.00    -0.018 A 
HETATM   19  C   UNL     1      -0.838   7.372 -29.660  1.00  0.00     0.076 A 
HETATM   20  C   UNL     1       0.836   6.526 -28.153  1.00  0.00     0.010 A 
HETATM   21  O   UNL     1      -1.544   7.081 -30.797  1.00  0.00    -0.335 OA
HETATM   22  C   UNL     1      -1.007   8.524 -28.920  1.00  0.00     0.037 A 
HETATM   23  C   UNL     1      -0.225   8.684 -27.776  1.00  0.00     0.003 A 
HETATM   24  C   UNL     1       0.692   7.691 -27.395  1.00  0.00     0.001 A 
ENDBRANCH  12  15
ENDBRANCH   1  11
BRANCH   8  25
HETATM   25  C   UNL     1      -3.039  -1.189 -31.820  1.00  0.00     0.270 C 
HETATM   26  N   UNL     1      -3.319  -2.509 -32.046  1.00  0.00    -0.365 N 
HETATM   27  H   UNL     1      -4.283  -2.777 -32.215  1.00  0.00     0.159 HD
HETATM   28  H   UNL     1      -2.576  -3.187 -32.051  1.00  0.00     0.159 HD
HETATM   29  O   UNL     1      -1.892  -0.806 -31.614  1.00  0.00    -0.266 OA
ENDBRANCH   8  25
TORSDOF 3
ENDMDL
MODEL 8
REMARK VINA RESULT:      -7.9      4.840      7.606
REMARK  3 active torsions:
REMARK  status: ('A' for Active; 'I' for Inactive)
REMARK    1  A    between atoms: C_3  and  C_4 
REMARK       I    between atoms: C_4  and  N_5 
REMARK    2  A    between atoms: N_5  and  C_6 
REMARK    3  A    between atoms: C_13  and  C_14 
REMARK       I    between atoms: C_14  and  N_15 
ROOT
HETATM    1  C   UNL     1      -6.859   0.587 -32.556  1.00  0.00     0.035 A 
HETATM    2  C   UNL     1      -6.235  -0.529 -33.135  1.00  0.00     0.046 A 
HETATM    3  C   UNL     1      -5.010  -0.997 -32.613  1.00  0.00     0.030 A 
HETATM    4  C   UNL     1      -4.447  -0.330 -31.534  1.00  0.00     0.063 A 
HETATM    5  N   UNL     1      -3.287  -0.998 -31.261  1.00  0.00    -0.277 N 
HETATM    6  H   UNL     1      -2.612  -0.786 -30.534  1.00  0.00     0.189 HD
HETATM    7  N   UNL     1      -3.049  -2.051 -32.064  1.00  0.00    -0.168 NA
HETATM    8  C   UNL     1      -4.108  -2.061 -32.905  1.00  0.00     0.156 A 
HETATM    9  C   UNL     1      -5.039   0.784 -30.936  1.00  0.00     0.034 A 
HETATM   10  C   UNL     1      -6.258   1.226 -31.468  1.00  0.00     0.032 A 
ENDROOT
BRANCH   1  11
HETATM   11  N   UNL     1      -8.079   0.997 -33.127  1.00  0.00    -0.325 N 
HETATM   12  C   UNL     1      -8.383   2.206 -33.729  1.00  0.00     0.252 C 
HETATM   13  O   UNL     1      -7.634   3.172 -33.847  1.00  0.00    -0.270 OA
HETATM   14  H   UNL     1      -8.832   0.312 -33.138  1.00  0.00     0.169 HD
BRANCH  12  15
HETATM   15  C   UNL     1      -9.842   2.288 -34.193  1.00  0.00     0.229 C 
HETATM   16  C   UNL     1     -10.637   3.239 -33.277  1.00  0.00     0.056 C 
HETATM   17  C   UNL     1     -10.689   4.662 -33.810  1.00  0.00     0.018 C 
HETATM   18  C   UNL     1     -11.940   2.522 -33.275  1.00  0.00    -0.018 A 
HETATM   19  C   UNL     1     -11.753   1.237 -33.764  1.00  0.00     0.076 A 
HETATM   20  C   UNL     1     -13.185   2.928 -32.824  1.00  0.00     0.010 A 
HETATM   21  O   UNL     1     -10.466   0.976 -34.153  1.00  0.00    -0.335 OA
HETATM   22  C   UNL     1     -12.779   0.317 -33.824  1.00  0.00     0.037 A 
HETATM   23  C   UNL     1     -14.041   0.718 -33.383  1.00  0.00     0.003 A 
HETATM   24  C   UNL     1     -14.242   2.017 -32.887  1.00  0.00     0.001 A 
ENDBRANCH  12  15
ENDBRANCH   1  11
BRANCH   8  25
HETATM   25  C   UNL     1      -4.240  -3.077 -33.958  1.00  0.00     0.270 C 
HETATM   26  N   UNL     1      -3.665  -4.279 -33.652  1.00  0.00    -0.365 N 
HETATM   27  H   UNL     1      -3.207  -4.383 -32.753  1.00  0.00     0.159 HD
HETATM   28  H   UNL     1      -3.711  -5.040 -34.309  1.00  0.00     0.159 HD
HETATM   29  O   UNL     1      -4.813  -2.896 -35.027  1.00  0.00    -0.266 OA
ENDBRANCH   8  25
TORSDOF 3
ENDMDL
MODEL 9
REMARK VINA RESULT:      -7.9      5.275      7.740
REMARK  3 active torsions:
REMARK  status: ('A' for Active; 'I' for Inactive)
REMARK    1  A    between atoms: C_3  and  C_4 
REMARK       I    between atoms: C_4  and  N_5 
REMARK    2  A    between atoms: N_5  and  C_6 
REMARK    3  A    between atoms: C_13  and  C_14 
REMARK       I    between atoms: C_14  and  N_15 
ROOT
HETATM    1  C   UNL     1      -8.984   3.113 -31.953  1.00  0.00     0.035 A 
HETATM    2  C   UNL     1     -10.356   2.984 -32.226  1.00  0.00     0.046 A 
HETATM    3  C   UNL     1     -11.280   3.839 -31.589  1.00  0.00     0.030 A 
HETATM    4  C   UNL     1     -10.805   4.789 -30.696  1.00  0.00     0.063 A 
HETATM    5  N   UNL     1     -11.913   5.449 -30.246  1.00  0.00    -0.277 N 
HETATM    6  H   UNL     1     -11.945   6.210 -29.575  1.00  0.00     0.189 HD
HETATM    7  N   UNL     1     -13.072   5.018 -30.776  1.00  0.00    -0.168 NA
HETATM    8  C   UNL     1     -12.694   4.022 -31.608  1.00  0.00     0.156 A 
HETATM    9  C   UNL     1      -9.449   4.942 -30.399  1.00  0.00     0.034 A 
HETATM   10  C   UNL     1      -8.550   4.086 -31.050  1.00  0.00     0.032 A 
ENDROOT
BRANCH   1  11
HETATM   11  N   UNL     1      -8.120   2.229 -32.626  1.00  0.00    -0.325 N 
HETATM   12  C   UNL     1      -7.332   1.224 -32.092  1.00  0.00     0.252 C 
HETATM   13  O   UNL     1      -7.220   0.938 -30.903  1.00  0.00    -0.270 OA
HETATM   14  H   UNL     1      -8.088   2.304 -33.641  1.00  0.00     0.169 HD
BRANCH  12  15
HETATM   15  C   UNL     1      -6.491   0.502 -33.151  1.00  0.00     0.229 C 
HETATM   16  C   UNL     1      -7.360  -0.517 -33.914  1.00  0.00     0.056 C 
HETATM   17  C   UNL     1      -7.954   0.056 -35.191  1.00  0.00     0.018 C 
HETATM   18  C   UNL     1      -6.341  -1.582 -34.118  1.00  0.00    -0.018 A 
HETATM   19  C   UNL     1      -5.262  -1.345 -33.279  1.00  0.00     0.076 A 
HETATM   20  C   UNL     1      -6.373  -2.708 -34.923  1.00  0.00     0.010 A 
HETATM   21  O   UNL     1      -5.384  -0.206 -32.530  1.00  0.00    -0.335 OA
HETATM   22  C   UNL     1      -4.186  -2.205 -33.206  1.00  0.00     0.037 A 
HETATM   23  C   UNL     1      -4.200  -3.337 -34.022  1.00  0.00     0.003 A 
HETATM   24  C   UNL     1      -5.287  -3.586 -34.876  1.00  0.00     0.001 A 
ENDBRANCH  12  15
ENDBRANCH   1  11
BRANCH   8  25
HETATM   25  C   UNL     1     -13.677   3.272 -32.403  1.00  0.00     0.270 C 
HETATM   26  N   UNL     1     -13.630   3.535 -33.744  1.00  0.00    -0.365 N 
HETATM   27  H   UNL     1     -12.945   4.200 -34.084  1.00  0.00     0.159 HD
HETATM   28  H   UNL     1     -14.261   3.063 -34.371  1.00  0.00     0.159 HD
HETATM   29  O   UNL     1     -14.481   2.472 -31.936  1.00  0.00    -0.266 OA
ENDBRANCH   8  25
TORSDOF 3
ENDMDL
MODEL 10
REMARK VINA RESULT:      -7.9      2.757      7.898
REMARK  3 active torsions:
REMARK  status: ('A' for Active; 'I' for Inactive)
REMARK    1  A    between atoms: C_3  and  C_4 
REMARK       I    between atoms: C_4  and  N_5 
REMARK    2  A    between atoms: N_5  and  C_6 
REMARK    3  A    between atoms: C_13  and  C_14 
REMARK       I    between atoms: C_14  and  N_15 
ROOT
HETATM    1  C   UNL     1      -5.704   2.981 -33.091  1.00  0.00     0.035 A 
HETATM    2  C   UNL     1      -5.210   1.667 -33.136  1.00  0.00     0.046 A 
HETATM    3  C   UNL     1      -6.104   0.588 -33.311  1.00  0.00     0.030 A 
HETATM    4  C   UNL     1      -7.460   0.857 -33.428  1.00  0.00     0.063 A 
HETATM    5  N   UNL     1      -8.059  -0.362 -33.580  1.00  0.00    -0.277 N 
HETATM    6  H   UNL     1      -9.050  -0.550 -33.690  1.00  0.00     0.189 HD
HETATM    7  N   UNL     1      -7.208  -1.404 -33.581  1.00  0.00    -0.168 NA
HETATM    8  C   UNL     1      -5.995  -0.829 -33.415  1.00  0.00     0.156 A 
HETATM    9  C   UNL     1      -7.985   2.150 -33.384  1.00  0.00     0.034 A 
HETATM   10  C   UNL     1      -7.077   3.205 -33.216  1.00  0.00     0.032 A 
ENDROOT
BRANCH   1  11
HETATM   11  N   UNL     1      -4.756   4.006 -32.916  1.00  0.00    -0.325 N 
HETATM   12  C   UNL     1      -4.384   4.994 -33.812  1.00  0.00     0.252 C 
HETATM   13  O   UNL     1      -4.802   5.136 -34.958  1.00  0.00    -0.270 OA
HETATM   14  H   UNL     1      -4.305   4.063 -32.006  1.00  0.00     0.169 HD
BRANCH  12  15
HETATM   15  C   UNL     1      -3.280   5.906 -33.265  1.00  0.00     0.229 C 
HETATM   16  C   UNL     1      -1.914   5.200 -33.357  1.00  0.00     0.056 C 
HETATM   17  C   UNL     1      -1.162   5.537 -34.635  1.00  0.00     0.018 C 
HETATM   18  C   UNL     1      -1.297   5.724 -32.109  1.00  0.00    -0.018 A 
HETATM   19  C   UNL     1      -2.288   6.279 -31.312  1.00  0.00     0.076 A 
HETATM   20  C   UNL     1       0.013   5.669 -31.667  1.00  0.00     0.010 A 
HETATM   21  O   UNL     1      -3.535   6.242 -31.875  1.00  0.00    -0.335 OA
HETATM   22  C   UNL     1      -2.021   6.793 -30.060  1.00  0.00     0.037 A 
HETATM   23  C   UNL     1      -0.701   6.755 -29.608  1.00  0.00     0.003 A 
HETATM   24  C   UNL     1       0.310   6.197 -30.407  1.00  0.00     0.001 A 
ENDBRANCH  12  15
ENDBRANCH   1  11
BRANCH   8  25
HETATM   25  C   UNL     1      -4.767  -1.634 -33.364  1.00  0.00     0.270 C 
HETATM   26  N   UNL     1      -4.112  -1.582 -32.164  1.00  0.00    -0.365 N 
HETATM   27  H   UNL     1      -4.507  -1.015 -31.422  1.00  0.00     0.159 HD
HETATM   28  H   UNL     1      -3.264  -2.107 -32.031  1.00  0.00     0.159 HD
HETATM   29  O   UNL     1      -4.340  -2.307 -34.296  1.00  0.00    -0.266 OA
ENDBRANCH   8  25
TORSDOF 3
ENDMDL
