MODEL 1
REMARK VINA RESULT:      -9.4      0.000      0.000
REMARK  7 active torsions:
REMARK  status: ('A' for Active; 'I' for Inactive)
REMARK    1  A    between atoms: O_2  and  C_3 
REMARK    2  A    between atoms: C_3  and  C_4 
REMARK    3  A    between atoms: C_5  and  N_6 
REMARK       I    between atoms: N_6  and  C_7 
REMARK    4  A    between atoms: C_7  and  C_8 
REMARK    5  A    between atoms: C_8  and  N_9 
REMARK    6  A    between atoms: C_11  and  C_12 
REMARK    7  A    between atoms: C_20  and  O_21 
ROOT
HETATM    1  N   UNL     1      -9.176   3.037 -32.997  1.00  0.00    -0.054 N 
HETATM    2  H   UNL     1      -9.504   2.558 -32.154  1.00  0.00     0.281 HD
HETATM    3  C   UNL     1      -9.269   2.037 -34.149  1.00  0.00     0.228 C 
HETATM    4  C   UNL     1     -10.744   1.545 -34.333  1.00  0.00     0.055 C 
HETATM    5  C   UNL     1     -11.722   2.738 -34.470  1.00  0.00     0.065 C 
HETATM    6  C   UNL     1     -11.513   3.773 -33.358  1.00  0.00     0.066 C 
HETATM    7  C   UNL     1     -10.072   4.222 -33.249  1.00  0.00     0.239 C 
HETATM    8  C   UNL     1     -11.272   0.565 -33.272  1.00  0.00     0.010 C 
HETATM    9  C   UNL     1     -12.668   0.025 -33.617  1.00  0.00     0.001 C 
HETATM   10  C   UNL     1     -13.397   0.826 -34.691  1.00  0.00     0.003 C 
HETATM   11  C   UNL     1     -13.212   2.322 -34.479  1.00  0.00     0.038 C 
ENDROOT
BRANCH   1  12
HETATM   12  C   UNL     1      -7.741   3.529 -32.663  1.00  0.00     0.338 C 
BRANCH  12  13
HETATM   13  C   UNL     1      -7.180   3.167 -31.279  1.00  0.00     0.248 C 
HETATM   14  N   UNL     1      -6.223   3.939 -30.685  1.00  0.00    -0.319 N 
HETATM   15  H   UNL     1      -6.240   3.900 -29.662  1.00  0.00     0.169 HD
HETATM   16  O   UNL     1      -7.702   2.264 -30.619  1.00  0.00    -0.271 OA
BRANCH  14  17
HETATM   17  C   UNL     1      -5.083   4.537 -31.204  1.00  0.00     0.094 A 
HETATM   18  C   UNL     1      -4.043   3.897 -31.873  1.00  0.00     0.080 A 
HETATM   19  C   UNL     1      -3.093   4.868 -32.388  1.00  0.00    -0.026 A 
HETATM   20  C   UNL     1      -3.504   6.162 -32.128  1.00  0.00    -0.008 A 
HETATM   21  C   UNL     1      -1.845   4.596 -33.192  1.00  0.00     0.041 C 
HETATM   22  S   UNL     1      -4.938   6.225 -31.240  1.00  0.00    -0.075 SA
HETATM   23  C   UNL     1      -2.793   7.407 -32.568  1.00  0.00     0.047 C 
HETATM   24  C   UNL     1      -1.832   7.088 -33.720  1.00  0.00     0.005 C 
HETATM   25  C   UNL     1      -0.983   5.852 -33.399  1.00  0.00     0.005 C 
BRANCH  18  26
HETATM   26  C   UNL     1      -3.998   2.433 -32.008  1.00  0.00     0.296 C 
HETATM   27  O   UNL     1      -4.721   1.827 -32.792  1.00  0.00    -0.259 OA
BRANCH  26  28
HETATM   28  O   UNL     1      -3.094   1.837 -31.184  1.00  0.00    -0.322 OA
HETATM   29  C   UNL     1      -3.157   0.410 -31.158  1.00  0.00     0.213 C 
ENDBRANCH  26  28
ENDBRANCH  18  26
ENDBRANCH  14  17
ENDBRANCH  12  13
ENDBRANCH   1  12
BRANCH   3  30
HETATM   30  C   UNL     1      -8.290   0.870 -34.077  1.00  0.00    -0.027 A 
HETATM   31  C   UNL     1      -8.129   0.070 -32.931  1.00  0.00     0.012 A 
HETATM   32  C   UNL     1      -7.237  -1.006 -32.933  1.00  0.00     0.043 A 
HETATM   33  C   UNL     1      -6.504  -1.293 -34.077  1.00  0.00     0.116 A 
HETATM   34  F   UNL     1      -5.656  -2.329 -34.074  1.00  0.00    -0.206 F 
HETATM   35  C   UNL     1      -6.642  -0.523 -35.221  1.00  0.00     0.043 A 
HETATM   36  C   UNL     1      -7.532   0.554 -35.223  1.00  0.00     0.012 A 
ENDBRANCH   3  30
BRANCH   5  37
HETATM   37  O   UNL     1     -11.414   3.400 -35.700  1.00  0.00    -0.389 OA
HETATM   38  H   UNL     1     -11.195   4.334 -35.515  1.00  0.00     0.210 HD
ENDBRANCH   5  37
TORSDOF 7
ENDMDL
MODEL 2
REMARK VINA RESULT:      -9.3      2.514      5.412
REMARK  7 active torsions:
REMARK  status: ('A' for Active; 'I' for Inactive)
REMARK    1  A    between atoms: O_2  and  C_3 
REMARK    2  A    between atoms: C_3  and  C_4 
REMARK    3  A    between atoms: C_5  and  N_6 
REMARK       I    between atoms: N_6  and  C_7 
REMARK    4  A    between atoms: C_7  and  C_8 
REMARK    5  A    between atoms: C_8  and  N_9 
REMARK    6  A    between atoms: C_11  and  C_12 
REMARK    7  A    between atoms: C_20  and  O_21 
ROOT
HETATM    1  N   UNL     1      -5.519   2.532 -32.340  1.00  0.00    -0.054 N 
HETATM    2  H   UNL     1      -5.288   2.467 -33.335  1.00  0.00     0.281 HD
HETATM    3  C   UNL     1      -6.314   1.277 -31.978  1.00  0.00     0.228 C 
HETATM    4  C   UNL     1      -5.472  -0.011 -32.267  1.00  0.00     0.055 C 
HETATM    5  C   UNL     1      -4.084   0.060 -31.582  1.00  0.00     0.065 C 
HETATM    6  C   UNL     1      -3.373   1.385 -31.878  1.00  0.00     0.066 C 
HETATM    7  C   UNL     1      -4.232   2.589 -31.557  1.00  0.00     0.239 C 
HETATM    8  C   UNL     1      -5.298  -0.394 -33.746  1.00  0.00     0.010 C 
HETATM    9  C   UNL     1      -4.588  -1.744 -33.921  1.00  0.00     0.001 C 
HETATM   10  C   UNL     1      -3.873  -2.239 -32.668  1.00  0.00     0.003 C 
HETATM   11  C   UNL     1      -3.139  -1.102 -31.971  1.00  0.00     0.038 C 
ENDROOT
BRANCH   1  12
HETATM   12  C   UNL     1      -6.288   3.871 -32.179  1.00  0.00     0.338 C 
BRANCH  12  13
HETATM   13  C   UNL     1      -6.089   4.930 -33.274  1.00  0.00     0.248 C 
HETATM   14  N   UNL     1      -4.962   5.701 -33.309  1.00  0.00    -0.319 N 
HETATM   15  H   UNL     1      -4.713   6.024 -34.248  1.00  0.00     0.169 HD
HETATM   16  O   UNL     1      -6.871   4.987 -34.227  1.00  0.00    -0.271 OA
BRANCH  14  17
HETATM   17  C   UNL     1      -4.263   6.340 -32.295  1.00  0.00     0.094 A 
HETATM   18  C   UNL     1      -2.917   6.167 -31.980  1.00  0.00     0.080 A 
HETATM   19  C   UNL     1      -2.509   7.106 -30.948  1.00  0.00    -0.026 A 
HETATM   20  C   UNL     1      -3.544   7.954 -30.600  1.00  0.00    -0.008 A 
HETATM   21  C   UNL     1      -1.136   7.268 -30.345  1.00  0.00     0.041 C 
HETATM   22  S   UNL     1      -4.977   7.603 -31.421  1.00  0.00    -0.075 SA
HETATM   23  C   UNL     1      -3.455   9.078 -29.613  1.00  0.00     0.047 C 
HETATM   24  C   UNL     1      -1.989   9.470 -29.389  1.00  0.00     0.005 C 
HETATM   25  C   UNL     1      -1.121   8.230 -29.145  1.00  0.00     0.005 C 
BRANCH  18  26
HETATM   26  C   UNL     1      -2.090   5.157 -32.658  1.00  0.00     0.296 C 
HETATM   27  O   UNL     1      -1.274   4.470 -32.054  1.00  0.00    -0.259 OA
BRANCH  26  28
HETATM   28  O   UNL     1      -2.319   5.074 -33.997  1.00  0.00    -0.322 OA
HETATM   29  C   UNL     1      -1.221   5.476 -34.818  1.00  0.00     0.213 C 
ENDBRANCH  26  28
ENDBRANCH  18  26
ENDBRANCH  14  17
ENDBRANCH  12  13
ENDBRANCH   1  12
BRANCH   3  30
HETATM   30  C   UNL     1      -7.706   1.191 -32.595  1.00  0.00    -0.027 A 
HETATM   31  C   UNL     1      -8.045   1.798 -33.818  1.00  0.00     0.012 A 
HETATM   32  C   UNL     1      -9.330   1.659 -34.350  1.00  0.00     0.043 A 
HETATM   33  C   UNL     1     -10.283   0.912 -33.668  1.00  0.00     0.116 A 
HETATM   34  F   UNL     1     -11.510   0.777 -34.187  1.00  0.00    -0.206 F 
HETATM   35  C   UNL     1      -9.977   0.302 -32.462  1.00  0.00     0.043 A 
HETATM   36  C   UNL     1      -8.694   0.438 -31.927  1.00  0.00     0.012 A 
ENDBRANCH   3  30
BRANCH   5  37
HETATM   37  O   UNL     1      -4.306   0.029 -30.170  1.00  0.00    -0.389 OA
HETATM   38  H   UNL     1      -5.266  -0.042 -29.998  1.00  0.00     0.210 HD
ENDBRANCH   5  37
TORSDOF 7
ENDMDL
MODEL 3
REMARK VINA RESULT:      -9.2      3.787      6.232
REMARK  7 active torsions:
REMARK  status: ('A' for Active; 'I' for Inactive)
REMARK    1  A    between atoms: O_2  and  C_3 
REMARK    2  A    between atoms: C_3  and  C_4 
REMARK    3  A    between atoms: C_5  and  N_6 
REMARK       I    between atoms: N_6  and  C_7 
REMARK    4  A    between atoms: C_7  and  C_8 
REMARK    5  A    between atoms: C_8  and  N_9 
REMARK    6  A    between atoms: C_11  and  C_12 
REMARK    7  A    between atoms: C_20  and  O_21 
ROOT
HETATM    1  N   UNL     1      -3.938   2.375 -32.562  1.00  0.00    -0.054 N 
HETATM    2  H   UNL     1      -3.927   2.503 -33.577  1.00  0.00     0.281 HD
HETATM    3  C   UNL     1      -5.402   2.329 -32.126  1.00  0.00     0.228 C 
HETATM    4  C   UNL     1      -6.152   1.154 -32.840  1.00  0.00     0.055 C 
HETATM    5  C   UNL     1      -5.406  -0.190 -32.642  1.00  0.00     0.065 C 
HETATM    6  C   UNL     1      -3.916  -0.067 -32.979  1.00  0.00     0.066 C 
HETATM    7  C   UNL     1      -3.248   1.073 -32.241  1.00  0.00     0.239 C 
HETATM    8  C   UNL     1      -6.468   1.353 -34.331  1.00  0.00     0.010 C 
HETATM    9  C   UNL     1      -7.331   0.218 -34.903  1.00  0.00     0.001 C 
HETATM   10  C   UNL     1      -7.377  -1.030 -34.028  1.00  0.00     0.003 C 
HETATM   11  C   UNL     1      -6.001  -1.357 -33.466  1.00  0.00     0.038 C 
ENDROOT
BRANCH   1  12
HETATM   12  C   UNL     1      -3.113   3.558 -31.985  1.00  0.00     0.338 C 
BRANCH  12  13
HETATM   13  C   UNL     1      -2.393   4.467 -32.992  1.00  0.00     0.248 C 
HETATM   14  N   UNL     1      -1.241   5.118 -32.653  1.00  0.00    -0.319 N 
HETATM   15  H   UNL     1      -0.628   5.311 -33.449  1.00  0.00     0.169 HD
HETATM   16  O   UNL     1      -2.760   4.495 -34.170  1.00  0.00    -0.271 OA
BRANCH  14  17
HETATM   17  C   UNL     1      -0.883   5.793 -31.494  1.00  0.00     0.094 A 
HETATM   18  C   UNL     1      -1.294   7.070 -31.119  1.00  0.00     0.080 A 
HETATM   19  C   UNL     1      -0.825   7.385 -29.780  1.00  0.00    -0.026 A 
HETATM   20  C   UNL     1      -0.152   6.316 -29.218  1.00  0.00    -0.008 A 
HETATM   21  C   UNL     1      -1.073   8.648 -28.993  1.00  0.00     0.041 C 
HETATM   22  S   UNL     1      -0.018   5.003 -30.271  1.00  0.00    -0.075 SA
HETATM   23  C   UNL     1       0.413   6.275 -27.830  1.00  0.00     0.047 C 
HETATM   24  C   UNL     1      -0.242   7.356 -26.960  1.00  0.00     0.005 C 
HETATM   25  C   UNL     1      -0.262   8.705 -27.687  1.00  0.00     0.005 C 
BRANCH  18  26
HETATM   26  C   UNL     1      -2.102   7.913 -32.012  1.00  0.00     0.296 C 
HETATM   27  O   UNL     1      -1.708   8.255 -33.122  1.00  0.00    -0.259 OA
BRANCH  26  28
HETATM   28  O   UNL     1      -3.305   8.271 -31.485  1.00  0.00    -0.322 OA
HETATM   29  C   UNL     1      -4.253   7.207 -31.380  1.00  0.00     0.213 C 
ENDBRANCH  26  28
ENDBRANCH  18  26
ENDBRANCH  14  17
ENDBRANCH  12  13
ENDBRANCH   1  12
BRANCH   3  30
HETATM   30  C   UNL     1      -6.160   3.645 -32.261  1.00  0.00    -0.027 A 
HETATM   31  C   UNL     1      -6.185   4.402 -33.447  1.00  0.00     0.012 A 
HETATM   32  C   UNL     1      -6.924   5.586 -33.520  1.00  0.00     0.043 A 
HETATM   33  C   UNL     1      -7.643   6.021 -32.415  1.00  0.00     0.116 A 
HETATM   34  F   UNL     1      -8.353   7.154 -32.494  1.00  0.00    -0.206 F 
HETATM   35  C   UNL     1      -7.638   5.297 -31.233  1.00  0.00     0.043 A 
HETATM   36  C   UNL     1      -6.901   4.112 -31.156  1.00  0.00     0.012 A 
ENDBRANCH   3  30
BRANCH   5  37
HETATM   37  O   UNL     1      -5.479  -0.515 -31.252  1.00  0.00    -0.389 OA
HETATM   38  H   UNL     1      -4.627  -0.296 -30.826  1.00  0.00     0.210 HD
ENDBRANCH   5  37
TORSDOF 7
ENDMDL
MODEL 4
REMARK VINA RESULT:      -9.2      1.789      2.633
REMARK  7 active torsions:
REMARK  status: ('A' for Active; 'I' for Inactive)
REMARK    1  A    between atoms: O_2  and  C_3 
REMARK    2  A    between atoms: C_3  and  C_4 
REMARK    3  A    between atoms: C_5  and  N_6 
REMARK       I    between atoms: N_6  and  C_7 
REMARK    4  A    between atoms: C_7  and  C_8 
REMARK    5  A    between atoms: C_8  and  N_9 
REMARK    6  A    between atoms: C_11  and  C_12 
REMARK    7  A    between atoms: C_20  and  O_21 
ROOT
HETATM    1  N   UNL     1      -8.892   3.084 -33.057  1.00  0.00    -0.054 N 
HETATM    2  H   UNL     1      -9.259   2.650 -32.206  1.00  0.00     0.281 HD
HETATM    3  C   UNL     1      -9.003   2.048 -34.176  1.00  0.00     0.228 C 
HETATM    4  C   UNL     1     -10.493   1.612 -34.377  1.00  0.00     0.055 C 
HETATM    5  C   UNL     1     -11.417   2.840 -34.578  1.00  0.00     0.065 C 
HETATM    6  C   UNL     1     -11.188   3.903 -33.498  1.00  0.00     0.066 C 
HETATM    7  C   UNL     1      -9.732   4.296 -33.371  1.00  0.00     0.239 C 
HETATM    8  C   UNL     1     -11.086   0.693 -33.295  1.00  0.00     0.010 C 
HETATM    9  C   UNL     1     -12.495   0.201 -33.653  1.00  0.00     0.001 C 
HETATM   10  C   UNL     1     -13.166   0.993 -34.771  1.00  0.00     0.003 C 
HETATM   11  C   UNL     1     -12.923   2.486 -34.607  1.00  0.00     0.038 C 
ENDROOT
BRANCH   1  12
HETATM   12  C   UNL     1      -7.445   3.527 -32.707  1.00  0.00     0.338 C 
BRANCH  12  13
HETATM   13  C   UNL     1      -7.079   3.611 -31.217  1.00  0.00     0.248 C 
HETATM   14  N   UNL     1      -6.209   4.560 -30.760  1.00  0.00    -0.319 N 
HETATM   15  H   UNL     1      -6.366   4.825 -29.784  1.00  0.00     0.169 HD
HETATM   16  O   UNL     1      -7.689   2.925 -30.392  1.00  0.00    -0.271 OA
BRANCH  14  17
HETATM   17  C   UNL     1      -5.008   5.021 -31.279  1.00  0.00     0.094 A 
HETATM   18  C   UNL     1      -4.701   6.338 -31.614  1.00  0.00     0.080 A 
HETATM   19  C   UNL     1      -3.304   6.455 -31.997  1.00  0.00    -0.026 A 
HETATM   20  C   UNL     1      -2.644   5.247 -31.871  1.00  0.00    -0.008 A 
HETATM   21  C   UNL     1      -2.565   7.706 -32.402  1.00  0.00     0.041 C 
HETATM   22  S   UNL     1      -3.664   3.995 -31.379  1.00  0.00    -0.075 SA
HETATM   23  C   UNL     1      -1.184   5.022 -32.125  1.00  0.00     0.047 C 
HETATM   24  C   UNL     1      -0.428   6.355 -32.085  1.00  0.00     0.005 C 
HETATM   25  C   UNL     1      -1.147   7.418 -32.924  1.00  0.00     0.005 C 
BRANCH  18  26
HETATM   26  C   UNL     1      -5.710   7.406 -31.546  1.00  0.00     0.296 C 
HETATM   27  O   UNL     1      -5.587   8.374 -30.803  1.00  0.00    -0.259 OA
BRANCH  26  28
HETATM   28  O   UNL     1      -6.772   7.207 -32.373  1.00  0.00    -0.322 OA
HETATM   29  C   UNL     1      -8.041   7.546 -31.811  1.00  0.00     0.213 C 
ENDBRANCH  26  28
ENDBRANCH  18  26
ENDBRANCH  14  17
ENDBRANCH  12  13
ENDBRANCH   1  12
BRANCH   3  30
HETATM   30  C   UNL     1      -8.076   0.845 -34.041  1.00  0.00    -0.027 A 
HETATM   31  C   UNL     1      -7.649   0.338 -32.800  1.00  0.00     0.012 A 
HETATM   32  C   UNL     1      -6.823  -0.788 -32.737  1.00  0.00     0.043 A 
HETATM   33  C   UNL     1      -6.421  -1.416 -33.909  1.00  0.00     0.116 A 
HETATM   34  F   UNL     1      -5.635  -2.497 -33.841  1.00  0.00    -0.206 F 
HETATM   35  C   UNL     1      -6.827  -0.939 -35.145  1.00  0.00     0.043 A 
HETATM   36  C   UNL     1      -7.652   0.186 -35.212  1.00  0.00     0.012 A 
ENDBRANCH   3  30
BRANCH   5  37
HETATM   37  O   UNL     1     -11.054   3.444 -35.822  1.00  0.00    -0.389 OA
HETATM   38  H   UNL     1     -11.722   4.117 -36.058  1.00  0.00     0.210 HD
ENDBRANCH   5  37
TORSDOF 7
ENDMDL
MODEL 5
REMARK VINA RESULT:      -9.2      3.497      7.471
REMARK  7 active torsions:
REMARK  status: ('A' for Active; 'I' for Inactive)
REMARK    1  A    between atoms: O_2  and  C_3 
REMARK    2  A    between atoms: C_3  and  C_4 
REMARK    3  A    between atoms: C_5  and  N_6 
REMARK       I    between atoms: N_6  and  C_7 
REMARK    4  A    between atoms: C_7  and  C_8 
REMARK    5  A    between atoms: C_8  and  N_9 
REMARK    6  A    between atoms: C_11  and  C_12 
REMARK    7  A    between atoms: C_20  and  O_21 
ROOT
HETATM    1  N   UNL     1      -6.105   3.994 -32.016  1.00  0.00    -0.054 N 
HETATM    2  H   UNL     1      -6.514   4.822 -32.457  1.00  0.00     0.281 HD
HETATM    3  C   UNL     1      -4.719   4.391 -31.506  1.00  0.00     0.228 C 
HETATM    4  C   UNL     1      -4.827   5.568 -30.479  1.00  0.00     0.055 C 
HETATM    5  C   UNL     1      -5.830   5.236 -29.346  1.00  0.00     0.065 C 
HETATM    6  C   UNL     1      -7.166   4.731 -29.902  1.00  0.00     0.066 C 
HETATM    7  C   UNL     1      -6.993   3.580 -30.870  1.00  0.00     0.239 C 
HETATM    8  C   UNL     1      -5.149   6.954 -31.062  1.00  0.00     0.010 C 
HETATM    9  C   UNL     1      -5.087   8.064 -30.003  1.00  0.00     0.001 C 
HETATM   10  C   UNL     1      -5.105   7.554 -28.566  1.00  0.00     0.003 C 
HETATM   11  C   UNL     1      -6.111   6.425 -28.397  1.00  0.00     0.038 C 
ENDROOT
BRANCH   1  12
HETATM   12  C   UNL     1      -6.116   2.891 -33.109  1.00  0.00     0.338 C 
BRANCH  12  13
HETATM   13  C   UNL     1      -7.444   2.157 -33.350  1.00  0.00     0.248 C 
HETATM   14  N   UNL     1      -7.560   0.817 -33.111  1.00  0.00    -0.319 N 
HETATM   15  H   UNL     1      -8.510   0.524 -32.870  1.00  0.00     0.169 HD
HETATM   16  O   UNL     1      -8.466   2.799 -33.611  1.00  0.00    -0.271 OA
BRANCH  14  17
HETATM   17  C   UNL     1      -6.703  -0.237 -33.396  1.00  0.00     0.094 A 
HETATM   18  C   UNL     1      -5.741  -0.775 -32.545  1.00  0.00     0.080 A 
HETATM   19  C   UNL     1      -5.135  -1.954 -33.141  1.00  0.00    -0.026 A 
HETATM   20  C   UNL     1      -5.715  -2.258 -34.358  1.00  0.00    -0.008 A 
HETATM   21  C   UNL     1      -4.075  -2.844 -32.541  1.00  0.00     0.041 C 
HETATM   22  S   UNL     1      -6.894  -1.141 -34.816  1.00  0.00    -0.075 SA
HETATM   23  C   UNL     1      -5.373  -3.441 -35.214  1.00  0.00     0.047 C 
HETATM   24  C   UNL     1      -4.656  -4.509 -34.379  1.00  0.00     0.005 C 
HETATM   25  C   UNL     1      -3.538  -3.886 -33.536  1.00  0.00     0.005 C 
BRANCH  18  26
HETATM   26  C   UNL     1      -5.450  -0.176 -31.233  1.00  0.00     0.296 C 
HETATM   27  O   UNL     1      -6.338   0.213 -30.482  1.00  0.00    -0.259 OA
BRANCH  26  28
HETATM   28  O   UNL     1      -4.121  -0.098 -30.952  1.00  0.00    -0.322 OA
HETATM   29  C   UNL     1      -3.428   0.958 -31.621  1.00  0.00     0.213 C 
ENDBRANCH  26  28
ENDBRANCH  18  26
ENDBRANCH  14  17
ENDBRANCH  12  13
ENDBRANCH   1  12
BRANCH   3  30
HETATM   30  C   UNL     1      -3.688   4.681 -32.591  1.00  0.00    -0.027 A 
HETATM   31  C   UNL     1      -4.034   5.024 -33.910  1.00  0.00     0.012 A 
HETATM   32  C   UNL     1      -3.044   5.310 -34.855  1.00  0.00     0.043 A 
HETATM   33  C   UNL     1      -1.705   5.258 -34.489  1.00  0.00     0.116 A 
HETATM   34  F   UNL     1      -0.763   5.539 -35.397  1.00  0.00    -0.206 F 
HETATM   35  C   UNL     1      -1.334   4.924 -33.196  1.00  0.00     0.043 A 
HETATM   36  C   UNL     1      -2.320   4.638 -32.249  1.00  0.00     0.012 A 
ENDBRANCH   3  30
BRANCH   5  37
HETATM   37  O   UNL     1      -5.274   4.156 -28.591  1.00  0.00    -0.389 OA
HETATM   38  H   UNL     1      -5.465   3.314 -29.048  1.00  0.00     0.210 HD
ENDBRANCH   5  37
TORSDOF 7
ENDMDL
MODEL 6
REMARK VINA RESULT:      -9.0      2.795      4.876
REMARK  7 active torsions:
REMARK  status: ('A' for Active; 'I' for Inactive)
REMARK    1  A    between atoms: O_2  and  C_3 
REMARK    2  A    between atoms: C_3  and  C_4 
REMARK    3  A    between atoms: C_5  and  N_6 
REMARK       I    between atoms: N_6  and  C_7 
REMARK    4  A    between atoms: C_7  and  C_8 
REMARK    5  A    between atoms: C_8  and  N_9 
REMARK    6  A    between atoms: C_11  and  C_12 
REMARK    7  A    between atoms: C_20  and  O_21 
ROOT
HETATM    1  N   UNL     1      -6.419   3.041 -32.102  1.00  0.00    -0.054 N 
HETATM    2  H   UNL     1      -6.145   3.238 -33.068  1.00  0.00     0.281 HD
HETATM    3  C   UNL     1      -7.709   2.223 -32.155  1.00  0.00     0.228 C 
HETATM    4  C   UNL     1      -7.484   0.892 -32.948  1.00  0.00     0.055 C 
HETATM    5  C   UNL     1      -6.275   0.102 -32.389  1.00  0.00     0.065 C 
HETATM    6  C   UNL     1      -5.035   0.992 -32.243  1.00  0.00     0.066 C 
HETATM    7  C   UNL     1      -5.315   2.249 -31.448  1.00  0.00     0.239 C 
HETATM    8  C   UNL     1      -7.354   1.022 -34.474  1.00  0.00     0.010 C 
HETATM    9  C   UNL     1      -7.286  -0.343 -35.174  1.00  0.00     0.001 C 
HETATM   10  C   UNL     1      -6.978  -1.508 -34.239  1.00  0.00     0.003 C 
HETATM   11  C   UNL     1      -5.895  -1.135 -33.238  1.00  0.00     0.038 C 
ENDROOT
BRANCH   1  12
HETATM   12  C   UNL     1      -6.543   4.428 -31.414  1.00  0.00     0.338 C 
BRANCH  12  13
HETATM   13  C   UNL     1      -6.245   5.666 -32.274  1.00  0.00     0.248 C 
HETATM   14  N   UNL     1      -4.960   6.028 -32.562  1.00  0.00    -0.319 N 
HETATM   15  H   UNL     1      -4.866   6.540 -33.444  1.00  0.00     0.169 HD
HETATM   16  O   UNL     1      -7.166   6.256 -32.846  1.00  0.00    -0.271 OA
BRANCH  14  17
HETATM   17  C   UNL     1      -3.824   6.070 -31.767  1.00  0.00     0.094 A 
HETATM   18  C   UNL     1      -2.649   5.348 -31.962  1.00  0.00     0.080 A 
HETATM   19  C   UNL     1      -1.634   5.756 -31.006  1.00  0.00    -0.026 A 
HETATM   20  C   UNL     1      -2.084   6.787 -30.202  1.00  0.00    -0.008 A 
HETATM   21  C   UNL     1      -0.219   5.244 -30.893  1.00  0.00     0.041 C 
HETATM   22  S   UNL     1      -3.686   7.212 -30.523  1.00  0.00    -0.075 SA
HETATM   23  C   UNL     1      -1.278   7.487 -29.149  1.00  0.00     0.047 C 
HETATM   24  C   UNL     1       0.219   7.251 -29.386  1.00  0.00     0.005 C 
HETATM   25  C   UNL     1       0.507   5.767 -29.642  1.00  0.00     0.005 C 
BRANCH  18  26
HETATM   26  C   UNL     1      -2.532   4.338 -33.025  1.00  0.00     0.296 C 
HETATM   27  O   UNL     1      -2.410   3.143 -32.779  1.00  0.00    -0.259 OA
BRANCH  26  28
HETATM   28  O   UNL     1      -2.568   4.861 -34.281  1.00  0.00    -0.322 OA
HETATM   29  C   UNL     1      -1.350   5.471 -34.711  1.00  0.00     0.213 C 
ENDBRANCH  26  28
ENDBRANCH  18  26
ENDBRANCH  14  17
ENDBRANCH  12  13
ENDBRANCH   1  12
BRANCH   3  30
HETATM   30  C   UNL     1      -8.936   2.978 -32.656  1.00  0.00    -0.027 A 
HETATM   31  C   UNL     1     -10.101   3.151 -31.886  1.00  0.00     0.012 A 
HETATM   32  C   UNL     1     -11.183   3.880 -32.387  1.00  0.00     0.043 A 
HETATM   33  C   UNL     1     -11.109   4.443 -33.655  1.00  0.00     0.116 A 
HETATM   34  F   UNL     1     -12.147   5.145 -34.125  1.00  0.00    -0.206 F 
HETATM   35  C   UNL     1      -9.974   4.290 -34.435  1.00  0.00     0.043 A 
HETATM   36  C   UNL     1      -8.890   3.563 -33.938  1.00  0.00     0.012 A 
ENDBRANCH   3  30
BRANCH   5  37
HETATM   37  O   UNL     1      -6.621  -0.326 -31.069  1.00  0.00    -0.389 OA
HETATM   38  H   UNL     1      -7.541  -0.057 -30.876  1.00  0.00     0.210 HD
ENDBRANCH   5  37
TORSDOF 7
ENDMDL
MODEL 7
REMARK VINA RESULT:      -9.0      2.684      4.936
REMARK  7 active torsions:
REMARK  status: ('A' for Active; 'I' for Inactive)
REMARK    1  A    between atoms: O_2  and  C_3 
REMARK    2  A    between atoms: C_3  and  C_4 
REMARK    3  A    between atoms: C_5  and  N_6 
REMARK       I    between atoms: N_6  and  C_7 
REMARK    4  A    between atoms: C_7  and  C_8 
REMARK    5  A    between atoms: C_8  and  N_9 
REMARK    6  A    between atoms: C_11  and  C_12 
REMARK    7  A    between atoms: C_20  and  O_21 
ROOT
HETATM    1  N   UNL     1      -7.459   2.622 -33.007  1.00  0.00    -0.054 N 
HETATM    2  H   UNL     1      -7.251   2.698 -34.006  1.00  0.00     0.281 HD
HETATM    3  C   UNL     1      -8.295   1.356 -32.814  1.00  0.00     0.228 C 
HETATM    4  C   UNL     1      -7.510   0.097 -33.313  1.00  0.00     0.055 C 
HETATM    5  C   UNL     1      -6.106   0.015 -32.661  1.00  0.00     0.065 C 
HETATM    6  C   UNL     1      -5.350   1.343 -32.776  1.00  0.00     0.066 C 
HETATM    7  C   UNL     1      -6.155   2.515 -32.257  1.00  0.00     0.239 C 
HETATM    8  C   UNL     1      -7.381  -0.067 -34.836  1.00  0.00     0.010 C 
HETATM    9  C   UNL     1      -6.729  -1.400 -35.229  1.00  0.00     0.001 C 
HETATM   10  C   UNL     1      -6.008  -2.102 -34.083  1.00  0.00     0.003 C 
HETATM   11  C   UNL     1      -5.216  -1.109 -33.243  1.00  0.00     0.038 C 
ENDROOT
BRANCH   1  12
HETATM   12  C   UNL     1      -8.171   3.949 -32.627  1.00  0.00     0.338 C 
BRANCH  12  13
HETATM   13  C   UNL     1      -7.857   5.183 -33.487  1.00  0.00     0.248 C 
HETATM   14  N   UNL     1      -6.676   5.855 -33.346  1.00  0.00    -0.319 N 
HETATM   15  H   UNL     1      -6.373   6.335 -34.198  1.00  0.00     0.169 HD
HETATM   16  O   UNL     1      -8.599   5.486 -34.426  1.00  0.00    -0.271 OA
BRANCH  14  17
HETATM   17  C   UNL     1      -5.969   6.226 -32.212  1.00  0.00     0.094 A 
HETATM   18  C   UNL     1      -4.594   6.115 -32.021  1.00  0.00     0.080 A 
HETATM   19  C   UNL     1      -4.202   6.732 -30.764  1.00  0.00    -0.026 A 
HETATM   20  C   UNL     1      -5.283   7.313 -30.129  1.00  0.00    -0.008 A 
HETATM   21  C   UNL     1      -2.809   6.853 -30.196  1.00  0.00     0.041 C 
HETATM   22  S   UNL     1      -6.733   7.075 -30.961  1.00  0.00    -0.075 SA
HETATM   23  C   UNL     1      -5.228   8.085 -28.845  1.00  0.00     0.047 C 
HETATM   24  C   UNL     1      -3.792   8.548 -28.568  1.00  0.00     0.005 C 
HETATM   25  C   UNL     1      -2.798   7.397 -28.757  1.00  0.00     0.005 C 
BRANCH  18  26
HETATM   26  C   UNL     1      -3.727   5.459 -33.012  1.00  0.00     0.296 C 
HETATM   27  O   UNL     1      -3.080   4.451 -32.748  1.00  0.00    -0.259 OA
BRANCH  26  28
HETATM   28  O   UNL     1      -3.717   6.080 -34.222  1.00  0.00    -0.322 OA
HETATM   29  C   UNL     1      -3.741   5.200 -35.348  1.00  0.00     0.213 C 
ENDBRANCH  26  28
ENDBRANCH  18  26
ENDBRANCH  14  17
ENDBRANCH  12  13
ENDBRANCH   1  12
BRANCH   3  30
HETATM   30  C   UNL     1      -9.701   1.413 -33.400  1.00  0.00    -0.027 A 
HETATM   31  C   UNL     1     -10.101   2.370 -34.351  1.00  0.00     0.012 A 
HETATM   32  C   UNL     1     -11.396   2.354 -34.876  1.00  0.00     0.043 A 
HETATM   33  C   UNL     1     -12.298   1.383 -34.459  1.00  0.00     0.116 A 
HETATM   34  F   UNL     1     -13.535   1.369 -34.971  1.00  0.00    -0.206 F 
HETATM   35  C   UNL     1     -11.932   0.427 -33.525  1.00  0.00     0.043 A 
HETATM   36  C   UNL     1     -10.639   0.440 -32.998  1.00  0.00     0.012 A 
ENDBRANCH   3  30
BRANCH   5  37
HETATM   37  O   UNL     1      -6.300  -0.219 -31.264  1.00  0.00    -0.389 OA
HETATM   38  H   UNL     1      -7.259  -0.226 -31.071  1.00  0.00     0.210 HD
ENDBRANCH   5  37
TORSDOF 7
ENDMDL
MODEL 8
REMARK VINA RESULT:      -8.9      3.573      6.057
REMARK  7 active torsions:
REMARK  status: ('A' for Active; 'I' for Inactive)
REMARK    1  A    between atoms: O_2  and  C_3 
REMARK    2  A    between atoms: C_3  and  C_4 
REMARK    3  A    between atoms: C_5  and  N_6 
REMARK       I    between atoms: N_6  and  C_7 
REMARK    4  A    between atoms: C_7  and  C_8 
REMARK    5  A    between atoms: C_8  and  N_9 
REMARK    6  A    between atoms: C_11  and  C_12 
REMARK    7  A    between atoms: C_20  and  O_21 
ROOT
HETATM    1  N   UNL     1      -4.778   3.120 -32.272  1.00  0.00    -0.054 N 
HETATM    2  H   UNL     1      -4.751   3.213 -33.290  1.00  0.00     0.281 HD
HETATM    3  C   UNL     1      -6.068   2.381 -31.919  1.00  0.00     0.228 C 
HETATM    4  C   UNL     1      -6.101   0.973 -32.603  1.00  0.00     0.055 C 
HETATM    5  C   UNL     1      -4.819   0.163 -32.285  1.00  0.00     0.065 C 
HETATM    6  C   UNL     1      -3.551   0.985 -32.543  1.00  0.00     0.066 C 
HETATM    7  C   UNL     1      -3.574   2.323 -31.836  1.00  0.00     0.239 C 
HETATM    8  C   UNL     1      -6.356   0.958 -34.120  1.00  0.00     0.010 C 
HETATM    9  C   UNL     1      -6.518  -0.465 -34.672  1.00  0.00     0.001 C 
HETATM   10  C   UNL     1      -6.027  -1.559 -33.730  1.00  0.00     0.003 C 
HETATM   11  C   UNL     1      -4.712  -1.165 -33.072  1.00  0.00     0.038 C 
ENDROOT
BRANCH   1  12
HETATM   12  C   UNL     1      -4.673   4.568 -31.719  1.00  0.00     0.338 C 
BRANCH  12  13
HETATM   13  C   UNL     1      -4.222   5.661 -32.699  1.00  0.00     0.248 C 
HETATM   14  N   UNL     1      -2.912   6.042 -32.773  1.00  0.00    -0.319 N 
HETATM   15  H   UNL     1      -2.641   6.406 -33.691  1.00  0.00     0.169 HD
HETATM   16  O   UNL     1      -5.010   6.096 -33.544  1.00  0.00    -0.271 OA
BRANCH  14  17
HETATM   17  C   UNL     1      -1.974   6.277 -31.778  1.00  0.00     0.094 A 
HETATM   18  C   UNL     1      -1.822   7.451 -31.045  1.00  0.00     0.080 A 
HETATM   19  C   UNL     1      -0.826   7.275 -30.000  1.00  0.00    -0.026 A 
HETATM   20  C   UNL     1      -0.344   5.980 -29.977  1.00  0.00    -0.008 A 
HETATM   21  C   UNL     1      -0.384   8.288 -28.973  1.00  0.00     0.041 C 
HETATM   22  S   UNL     1      -0.999   5.019 -31.200  1.00  0.00    -0.075 SA
HETATM   23  C   UNL     1       0.648   5.437 -28.992  1.00  0.00     0.047 C 
HETATM   24  C   UNL     1       0.707   6.336 -27.751  1.00  0.00     0.005 C 
HETATM   25  C   UNL     1       0.824   7.812 -28.149  1.00  0.00     0.005 C 
BRANCH  18  26
HETATM   26  C   UNL     1      -2.611   8.656 -31.344  1.00  0.00     0.296 C 
HETATM   27  O   UNL     1      -2.096   9.686 -31.765  1.00  0.00    -0.259 OA
BRANCH  26  28
HETATM   28  O   UNL     1      -3.942   8.509 -31.104  1.00  0.00    -0.322 OA
HETATM   29  C   UNL     1      -4.282   8.271 -29.737  1.00  0.00     0.213 C 
ENDBRANCH  26  28
ENDBRANCH  18  26
ENDBRANCH  14  17
ENDBRANCH  12  13
ENDBRANCH   1  12
BRANCH   3  30
HETATM   30  C   UNL     1      -7.353   3.162 -32.173  1.00  0.00    -0.027 A 
HETATM   31  C   UNL     1      -8.367   3.310 -31.210  1.00  0.00     0.012 A 
HETATM   32  C   UNL     1      -9.510   4.064 -31.490  1.00  0.00     0.043 A 
HETATM   33  C   UNL     1      -9.648   4.676 -32.729  1.00  0.00     0.116 A 
HETATM   34  F   UNL     1     -10.743   5.402 -32.988  1.00  0.00    -0.206 F 
HETATM   35  C   UNL     1      -8.665   4.548 -33.698  1.00  0.00     0.043 A 
HETATM   36  C   UNL     1      -7.521   3.795 -33.422  1.00  0.00     0.012 A 
ENDBRANCH   3  30
BRANCH   5  37
HETATM   37  O   UNL     1      -4.835  -0.123 -30.885  1.00  0.00    -0.389 OA
HETATM   38  H   UNL     1      -5.666   0.218 -30.497  1.00  0.00     0.210 HD
ENDBRANCH   5  37
TORSDOF 7
ENDMDL
MODEL 9
REMARK VINA RESULT:      -8.8      1.770      3.294
REMARK  7 active torsions:
REMARK  status: ('A' for Active; 'I' for Inactive)
REMARK    1  A    between atoms: O_2  and  C_3 
REMARK    2  A    between atoms: C_3  and  C_4 
REMARK    3  A    between atoms: C_5  and  N_6 
REMARK       I    between atoms: N_6  and  C_7 
REMARK    4  A    between atoms: C_7  and  C_8 
REMARK    5  A    between atoms: C_8  and  N_9 
REMARK    6  A    between atoms: C_11  and  C_12 
REMARK    7  A    between atoms: C_20  and  O_21 
ROOT
HETATM    1  N   UNL     1     -10.274   3.086 -32.786  1.00  0.00    -0.054 N 
HETATM    2  H   UNL     1     -10.465   2.493 -31.974  1.00  0.00     0.281 HD
HETATM    3  C   UNL     1     -10.214   2.172 -34.010  1.00  0.00     0.228 C 
HETATM    4  C   UNL     1     -11.567   1.406 -34.192  1.00  0.00     0.055 C 
HETATM    5  C   UNL     1     -12.768   2.384 -34.210  1.00  0.00     0.065 C 
HETATM    6  C   UNL     1     -12.724   3.358 -33.027  1.00  0.00     0.066 C 
HETATM    7  C   UNL     1     -11.398   4.081 -32.922  1.00  0.00     0.239 C 
HETATM    8  C   UNL     1     -11.844   0.267 -33.196  1.00  0.00     0.010 C 
HETATM    9  C   UNL     1     -13.117  -0.517 -33.544  1.00  0.00     0.001 C 
HETATM   10  C   UNL     1     -14.036   0.193 -34.534  1.00  0.00     0.003 C 
HETATM   11  C   UNL     1     -14.145   1.677 -34.212  1.00  0.00     0.038 C 
ENDROOT
BRANCH   1  12
HETATM   12  C   UNL     1      -8.953   3.833 -32.453  1.00  0.00     0.338 C 
BRANCH  12  13
HETATM   13  C   UNL     1      -8.529   3.882 -30.978  1.00  0.00     0.248 C 
HETATM   14  N   UNL     1      -7.242   3.611 -30.608  1.00  0.00    -0.319 N 
HETATM   15  H   UNL     1      -6.955   4.079 -29.743  1.00  0.00     0.169 HD
HETATM   16  O   UNL     1      -9.306   4.322 -30.126  1.00  0.00    -0.271 OA
BRANCH  14  17
HETATM   17  C   UNL     1      -6.361   2.624 -31.029  1.00  0.00     0.094 A 
HETATM   18  C   UNL     1      -5.438   2.727 -32.066  1.00  0.00     0.080 A 
HETATM   19  C   UNL     1      -4.599   1.541 -32.121  1.00  0.00    -0.026 A 
HETATM   20  C   UNL     1      -4.901   0.661 -31.099  1.00  0.00    -0.008 A 
HETATM   21  C   UNL     1      -3.463   1.263 -33.074  1.00  0.00     0.041 C 
HETATM   22  S   UNL     1      -6.187   1.191 -30.142  1.00  0.00    -0.075 SA
HETATM   23  C   UNL     1      -4.193  -0.631 -30.823  1.00  0.00     0.047 C 
HETATM   24  C   UNL     1      -2.819  -0.637 -31.504  1.00  0.00     0.005 C 
HETATM   25  C   UNL     1      -2.927  -0.174 -32.962  1.00  0.00     0.005 C 
BRANCH  18  26
HETATM   26  C   UNL     1      -5.378   3.914 -32.931  1.00  0.00     0.296 C 
HETATM   27  O   UNL     1      -5.665   3.869 -34.123  1.00  0.00    -0.259 OA
BRANCH  26  28
HETATM   28  O   UNL     1      -4.974   5.041 -32.284  1.00  0.00    -0.322 OA
HETATM   29  C   UNL     1      -3.646   5.467 -32.595  1.00  0.00     0.213 C 
ENDBRANCH  26  28
ENDBRANCH  18  26
ENDBRANCH  14  17
ENDBRANCH  12  13
ENDBRANCH   1  12
BRANCH   3  30
HETATM   30  C   UNL     1      -9.019   1.225 -34.054  1.00  0.00    -0.027 A 
HETATM   31  C   UNL     1      -8.021   1.290 -35.044  1.00  0.00     0.012 A 
HETATM   32  C   UNL     1      -6.932   0.415 -35.015  1.00  0.00     0.043 A 
HETATM   33  C   UNL     1      -6.830  -0.527 -34.000  1.00  0.00     0.116 A 
HETATM   34  F   UNL     1      -5.780  -1.359 -33.976  1.00  0.00    -0.206 F 
HETATM   35  C   UNL     1      -7.797  -0.615 -33.012  1.00  0.00     0.043 A 
HETATM   36  C   UNL     1      -8.887   0.259 -33.036  1.00  0.00     0.012 A 
ENDBRANCH   3  30
BRANCH   5  37
HETATM   37  O   UNL     1     -12.650   3.179 -35.392  1.00  0.00    -0.389 OA
HETATM   38  H   UNL     1     -12.241   2.642 -36.100  1.00  0.00     0.210 HD
ENDBRANCH   5  37
TORSDOF 7
ENDMDL
MODEL 10
REMARK VINA RESULT:      -8.8      3.011      7.973
REMARK  7 active torsions:
REMARK  status: ('A' for Active; 'I' for Inactive)
REMARK    1  A    between atoms: O_2  and  C_3 
REMARK    2  A    between atoms: C_3  and  C_4 
REMARK    3  A    between atoms: C_5  and  N_6 
REMARK       I    between atoms: N_6  and  C_7 
REMARK    4  A    between atoms: C_7  and  C_8 
REMARK    5  A    between atoms: C_8  and  N_9 
REMARK    6  A    between atoms: C_11  and  C_12 
REMARK    7  A    between atoms: C_20  and  O_21 
ROOT
HETATM    1  N   UNL     1      -5.758   5.134 -30.521  1.00  0.00    -0.054 N 
HETATM    2  H   UNL     1      -6.272   5.810 -31.093  1.00  0.00     0.281 HD
HETATM    3  C   UNL     1      -4.284   5.540 -30.556  1.00  0.00     0.228 C 
HETATM    4  C   UNL     1      -4.100   6.990 -29.996  1.00  0.00     0.055 C 
HETATM    5  C   UNL     1      -4.748   7.140 -28.597  1.00  0.00     0.065 C 
HETATM    6  C   UNL     1      -6.187   6.613 -28.581  1.00  0.00     0.066 C 
HETATM    7  C   UNL     1      -6.293   5.200 -29.113  1.00  0.00     0.239 C 
HETATM    8  C   UNL     1      -4.569   8.137 -30.907  1.00  0.00     0.010 C 
HETATM    9  C   UNL     1      -4.212   9.519 -30.339  1.00  0.00     0.001 C 
HETATM   10  C   UNL     1      -3.829   9.506 -28.863  1.00  0.00     0.003 C 
HETATM   11  C   UNL     1      -4.752   8.593 -28.066  1.00  0.00     0.038 C 
ENDROOT
BRANCH   1  12
HETATM   12  C   UNL     1      -6.076   3.744 -31.136  1.00  0.00     0.338 C 
BRANCH  12  13
HETATM   13  C   UNL     1      -7.422   3.104 -30.763  1.00  0.00     0.248 C 
HETATM   14  N   UNL     1      -7.539   1.751 -30.613  1.00  0.00    -0.319 N 
HETATM   15  H   UNL     1      -8.282   1.472 -29.966  1.00  0.00     0.169 HD
HETATM   16  O   UNL     1      -8.375   3.817 -30.438  1.00  0.00    -0.271 OA
BRANCH  14  17
HETATM   17  C   UNL     1      -7.030   0.703 -31.366  1.00  0.00     0.094 A 
HETATM   18  C   UNL     1      -7.637   0.105 -32.468  1.00  0.00     0.080 A 
HETATM   19  C   UNL     1      -6.743  -0.865 -33.079  1.00  0.00    -0.026 A 
HETATM   20  C   UNL     1      -5.516  -0.890 -32.443  1.00  0.00    -0.008 A 
HETATM   21  C   UNL     1      -7.000  -1.708 -34.303  1.00  0.00     0.041 C 
HETATM   22  S   UNL     1      -5.447   0.153 -31.118  1.00  0.00    -0.075 SA
HETATM   23  C   UNL     1      -4.341  -1.729 -32.848  1.00  0.00     0.047 C 
HETATM   24  C   UNL     1      -4.500  -2.195 -34.300  1.00  0.00     0.005 C 
HETATM   25  C   UNL     1      -5.904  -2.759 -34.545  1.00  0.00     0.005 C 
BRANCH  18  26
HETATM   26  C   UNL     1      -8.995   0.473 -32.896  1.00  0.00     0.296 C 
HETATM   27  O   UNL     1      -9.946  -0.292 -32.777  1.00  0.00    -0.259 OA
BRANCH  26  28
HETATM   28  O   UNL     1      -9.079   1.721 -33.430  1.00  0.00    -0.322 OA
HETATM   29  C   UNL     1     -10.324   2.386 -33.207  1.00  0.00     0.213 C 
ENDBRANCH  26  28
ENDBRANCH  18  26
ENDBRANCH  14  17
ENDBRANCH  12  13
ENDBRANCH   1  12
BRANCH   3  30
HETATM   30  C   UNL     1      -3.595   5.364 -31.905  1.00  0.00    -0.027 A 
HETATM   31  C   UNL     1      -4.230   5.621 -33.134  1.00  0.00     0.012 A 
HETATM   32  C   UNL     1      -3.538   5.471 -34.338  1.00  0.00     0.043 A 
HETATM   33  C   UNL     1      -2.209   5.068 -34.325  1.00  0.00     0.116 A 
HETATM   34  F   UNL     1      -1.550   4.933 -35.483  1.00  0.00    -0.206 F 
HETATM   35  C   UNL     1      -1.557   4.808 -33.131  1.00  0.00     0.043 A 
HETATM   36  C   UNL     1      -2.245   4.957 -31.924  1.00  0.00     0.012 A 
ENDBRANCH   3  30
BRANCH   5  37
HETATM   37  O   UNL     1      -4.006   6.315 -27.696  1.00  0.00    -0.389 OA
HETATM   38  H   UNL     1      -4.608   5.972 -27.006  1.00  0.00     0.210 HD
ENDBRANCH   5  37
TORSDOF 7
ENDMDL
