MODEL 1
REMARK VINA RESULT:      -9.1      0.000      0.000
REMARK  7 active torsions:
REMARK  status: ('A' for Active; 'I' for Inactive)
REMARK    1  A    between atoms: C_2  and  N_3 
REMARK       I    between atoms: N_3  and  C_4 
REMARK    2  A    between atoms: N_3  and  C_21 
REMARK    3  A    between atoms: C_4  and  C_5 
REMARK    4  A    between atoms: C_14  and  O_15 
REMARK    5  A    between atoms: C_21  and  C_22 
REMARK       I    between atoms: C_22  and  N_23 
REMARK    6  A    between atoms: N_23  and  C_24 
REMARK    7  A    between atoms: C_27  and  N_28 
REMARK       I    between atoms: N_28  and  C_29 
ROOT
HETATM    1  N   UNL     1      -9.997   3.578 -32.769  1.00  0.00    -0.339 N 
HETATM    2  C   UNL     1      -9.441   3.084 -31.571  1.00  0.00     0.261 C 
HETATM    3  O   UNL     1     -10.051   3.311 -30.521  1.00  0.00    -0.267 OA
ENDROOT
BRANCH   1   4
HETATM    4  C   UNL     1     -11.364   4.115 -32.701  1.00  0.00     0.122 C 
HETATM    5  C   UNL     1     -12.412   3.116 -33.175  1.00  0.00     0.026 C 
ENDBRANCH   1   4
BRANCH   1   6
HETATM    6  C   UNL     1      -9.219   3.963 -33.953  1.00  0.00     0.229 C 
BRANCH   6   7
HETATM    7  C   UNL     1      -8.033   4.901 -33.669  1.00  0.00     0.240 C 
HETATM    8  N   UNL     1      -6.805   4.328 -33.940  1.00  0.00    -0.326 N 
HETATM    9  H   UNL     1      -6.842   3.403 -34.355  1.00  0.00     0.169 HD
HETATM   10  O   UNL     1      -8.228   5.996 -33.152  1.00  0.00    -0.271 OA
BRANCH   8  11
HETATM   11  C   UNL     1      -5.527   4.825 -33.628  1.00  0.00     0.034 A 
HETATM   12  C   UNL     1      -4.526   5.057 -34.569  1.00  0.00     0.032 A 
HETATM   13  C   UNL     1      -3.287   5.587 -34.180  1.00  0.00     0.032 A 
HETATM   14  C   UNL     1      -3.030   5.896 -32.845  1.00  0.00     0.034 A 
HETATM   15  C   UNL     1      -4.034   5.655 -31.899  1.00  0.00     0.032 A 
HETATM   16  C   UNL     1      -5.268   5.121 -32.287  1.00  0.00     0.032 A 
BRANCH  14  17
HETATM   17  N   UNL     1      -1.820   6.445 -32.375  1.00  0.00    -0.328 N 
HETATM   18  C   UNL     1      -0.803   5.790 -31.706  1.00  0.00     0.218 C 
HETATM   19  C   UNL     1       0.357   6.694 -31.363  1.00  0.00     0.117 C 
HETATM   20  O   UNL     1      -0.769   4.604 -31.397  1.00  0.00    -0.274 OA
HETATM   21  H   UNL     1      -1.685   7.432 -32.558  1.00  0.00     0.169 HD
ENDBRANCH  14  17
ENDBRANCH   8  11
ENDBRANCH   6   7
ENDBRANCH   1   6
BRANCH   2  22
HETATM   22  C   UNL     1      -8.251   2.216 -31.586  1.00  0.00     0.074 A 
HETATM   23  S   UNL     1      -8.377   0.777 -32.548  1.00  0.00    -0.084 SA
HETATM   24  C   UNL     1      -6.749   0.368 -32.336  1.00  0.00     0.023 A 
HETATM   25  C   UNL     1      -6.111   1.240 -31.481  1.00  0.00    -0.038 A 
HETATM   26  C   UNL     1      -6.081  -0.774 -32.969  1.00  0.00    -0.012 A 
HETATM   27  C   UNL     1      -4.657   1.069 -31.156  1.00  0.00     0.044 C 
HETATM   28  C   UNL     1      -6.977   2.294 -31.046  1.00  0.00     0.033 A 
HETATM   29  C   UNL     1      -4.208  -0.399 -31.290  1.00  0.00     0.044 C 
HETATM   30  C   UNL     1      -4.798  -1.122 -32.490  1.00  0.00    -0.044 A 
HETATM   31  C   UNL     1      -4.109  -2.199 -33.068  1.00  0.00     0.044 A 
HETATM   32  C   UNL     1      -4.669  -2.922 -34.125  1.00  0.00     0.068 A 
HETATM   33  C   UNL     1      -5.926  -2.565 -34.609  1.00  0.00     0.037 A 
HETATM   34  C   UNL     1      -6.628  -1.500 -34.034  1.00  0.00     0.016 A 
BRANCH  32  35
HETATM   35  O   UNL     1      -3.892  -3.946 -34.594  1.00  0.00    -0.356 OA
HETATM   36  C   UNL     1      -3.368  -4.846 -33.624  1.00  0.00     0.210 C 
ENDBRANCH  32  35
ENDBRANCH   2  22
TORSDOF 7
ENDMDL
MODEL 2
REMARK VINA RESULT:      -8.9      2.459      6.440
REMARK  7 active torsions:
REMARK  status: ('A' for Active; 'I' for Inactive)
REMARK    1  A    between atoms: C_2  and  N_3 
REMARK       I    between atoms: N_3  and  C_4 
REMARK    2  A    between atoms: N_3  and  C_21 
REMARK    3  A    between atoms: C_4  and  C_5 
REMARK    4  A    between atoms: C_14  and  O_15 
REMARK    5  A    between atoms: C_21  and  C_22 
REMARK       I    between atoms: C_22  and  N_23 
REMARK    6  A    between atoms: N_23  and  C_24 
REMARK    7  A    between atoms: C_27  and  N_28 
REMARK       I    between atoms: N_28  and  C_29 
ROOT
HETATM    1  N   UNL     1     -11.566   2.667 -33.001  1.00  0.00    -0.339 N 
HETATM    2  C   UNL     1     -10.779   3.688 -32.427  1.00  0.00     0.261 C 
HETATM    3  O   UNL     1     -11.357   4.717 -32.061  1.00  0.00    -0.267 OA
ENDROOT
BRANCH   1   4
HETATM    4  C   UNL     1     -13.025   2.812 -32.905  1.00  0.00     0.122 C 
HETATM    5  C   UNL     1     -13.774   1.786 -33.747  1.00  0.00     0.026 C 
ENDBRANCH   1   4
BRANCH   1   6
HETATM    6  C   UNL     1     -11.084   1.709 -34.005  1.00  0.00     0.229 C 
BRANCH   6   7
HETATM    7  C   UNL     1     -10.071   0.678 -33.480  1.00  0.00     0.240 C 
HETATM    8  N   UNL     1      -8.810   0.821 -34.027  1.00  0.00    -0.326 N 
HETATM    9  H   UNL     1      -8.694   1.620 -34.640  1.00  0.00     0.169 HD
HETATM   10  O   UNL     1     -10.443  -0.220 -32.731  1.00  0.00    -0.271 OA
BRANCH   8  11
HETATM   11  C   UNL     1      -7.710  -0.048 -33.912  1.00  0.00     0.034 A 
HETATM   12  C   UNL     1      -6.907  -0.148 -32.779  1.00  0.00     0.032 A 
HETATM   13  C   UNL     1      -5.847  -1.065 -32.732  1.00  0.00     0.032 A 
HETATM   14  C   UNL     1      -5.575  -1.898 -33.817  1.00  0.00     0.034 A 
HETATM   15  C   UNL     1      -6.378  -1.791 -34.958  1.00  0.00     0.032 A 
HETATM   16  C   UNL     1      -7.433  -0.872 -35.007  1.00  0.00     0.032 A 
BRANCH  14  17
HETATM   17  N   UNL     1      -4.541  -2.856 -33.843  1.00  0.00    -0.328 N 
HETATM   18  C   UNL     1      -4.650  -4.203 -34.134  1.00  0.00     0.218 C 
HETATM   19  C   UNL     1      -3.326  -4.928 -34.079  1.00  0.00     0.117 C 
HETATM   20  O   UNL     1      -5.673  -4.814 -34.423  1.00  0.00    -0.274 OA
HETATM   21  H   UNL     1      -3.615  -2.507 -33.630  1.00  0.00     0.169 HD
ENDBRANCH  14  17
ENDBRANCH   8  11
ENDBRANCH   6   7
ENDBRANCH   1   6
BRANCH   2  22
HETATM   22  C   UNL     1      -9.348   3.482 -32.151  1.00  0.00     0.074 A 
HETATM   23  S   UNL     1      -8.254   4.041 -33.377  1.00  0.00    -0.084 SA
HETATM   24  C   UNL     1      -6.880   3.735 -32.436  1.00  0.00     0.023 A 
HETATM   25  C   UNL     1      -7.204   3.135 -31.239  1.00  0.00    -0.038 A 
HETATM   26  C   UNL     1      -5.504   4.054 -32.832  1.00  0.00    -0.012 A 
HETATM   27  C   UNL     1      -6.139   2.782 -30.245  1.00  0.00     0.044 C 
HETATM   28  C   UNL     1      -8.619   2.985 -31.081  1.00  0.00     0.033 A 
HETATM   29  C   UNL     1      -4.779   2.535 -30.926  1.00  0.00     0.044 C 
HETATM   30  C   UNL     1      -4.461   3.506 -32.051  1.00  0.00    -0.044 A 
HETATM   31  C   UNL     1      -3.127   3.789 -32.378  1.00  0.00     0.044 A 
HETATM   32  C   UNL     1      -2.815   4.622 -33.457  1.00  0.00     0.068 A 
HETATM   33  C   UNL     1      -3.845   5.178 -34.212  1.00  0.00     0.037 A 
HETATM   34  C   UNL     1      -5.180   4.895 -33.904  1.00  0.00     0.016 A 
BRANCH  32  35
HETATM   35  O   UNL     1      -1.476   4.813 -33.665  1.00  0.00    -0.356 OA
HETATM   36  C   UNL     1      -1.114   5.682 -34.731  1.00  0.00     0.210 C 
ENDBRANCH  32  35
ENDBRANCH   2  22
TORSDOF 7
ENDMDL
MODEL 3
REMARK VINA RESULT:      -8.7      3.074      8.902
REMARK  7 active torsions:
REMARK  status: ('A' for Active; 'I' for Inactive)
REMARK    1  A    between atoms: C_2  and  N_3 
REMARK       I    between atoms: N_3  and  C_4 
REMARK    2  A    between atoms: N_3  and  C_21 
REMARK    3  A    between atoms: C_4  and  C_5 
REMARK    4  A    between atoms: C_14  and  O_15 
REMARK    5  A    between atoms: C_21  and  C_22 
REMARK       I    between atoms: C_22  and  N_23 
REMARK    6  A    between atoms: N_23  and  C_24 
REMARK    7  A    between atoms: C_27  and  N_28 
REMARK       I    between atoms: N_28  and  C_29 
ROOT
HETATM    1  N   UNL     1      -5.967   5.419 -32.672  1.00  0.00    -0.339 N 
HETATM    2  C   UNL     1      -4.771   5.640 -33.387  1.00  0.00     0.261 C 
HETATM    3  O   UNL     1      -4.854   5.775 -34.612  1.00  0.00    -0.267 OA
ENDROOT
BRANCH   1   4
HETATM    4  C   UNL     1      -7.229   5.599 -33.405  1.00  0.00     0.122 C 
HETATM    5  C   UNL     1      -8.357   6.107 -32.516  1.00  0.00     0.026 C 
ENDBRANCH   1   4
BRANCH   1   6
HETATM    6  C   UNL     1      -6.061   4.659 -31.419  1.00  0.00     0.229 C 
BRANCH   6   7
HETATM    7  C   UNL     1      -6.456   3.183 -31.587  1.00  0.00     0.240 C 
HETATM    8  N   UNL     1      -5.865   2.579 -32.680  1.00  0.00    -0.326 N 
HETATM    9  H   UNL     1      -5.198   3.154 -33.184  1.00  0.00     0.169 HD
HETATM   10  O   UNL     1      -7.301   2.686 -30.849  1.00  0.00    -0.271 OA
BRANCH   8  11
HETATM   11  C   UNL     1      -6.141   1.313 -33.228  1.00  0.00     0.034 A 
HETATM   12  C   UNL     1      -6.774   1.111 -34.452  1.00  0.00     0.032 A 
HETATM   13  C   UNL     1      -6.984  -0.186 -34.943  1.00  0.00     0.032 A 
HETATM   14  C   UNL     1      -6.561  -1.301 -34.220  1.00  0.00     0.034 A 
HETATM   15  C   UNL     1      -5.932  -1.097 -32.987  1.00  0.00     0.032 A 
HETATM   16  C   UNL     1      -5.728   0.197 -32.494  1.00  0.00     0.032 A 
BRANCH  14  17
HETATM   17  N   UNL     1      -6.719  -2.633 -34.651  1.00  0.00    -0.328 N 
HETATM   18  C   UNL     1      -5.722  -3.539 -34.967  1.00  0.00     0.218 C 
HETATM   19  C   UNL     1      -6.260  -4.888 -35.382  1.00  0.00     0.117 C 
HETATM   20  O   UNL     1      -4.512  -3.345 -34.930  1.00  0.00    -0.274 OA
HETATM   21  H   UNL     1      -7.674  -2.959 -34.729  1.00  0.00     0.169 HD
ENDBRANCH  14  17
ENDBRANCH   8  11
ENDBRANCH   6   7
ENDBRANCH   1   6
BRANCH   2  22
HETATM   22  C   UNL     1      -3.491   5.836 -32.687  1.00  0.00     0.074 A 
HETATM   23  S   UNL     1      -3.424   7.189 -31.601  1.00  0.00    -0.084 SA
HETATM   24  C   UNL     1      -1.897   6.767 -31.005  1.00  0.00     0.023 A 
HETATM   25  C   UNL     1      -1.378   5.671 -31.660  1.00  0.00    -0.038 A 
HETATM   26  C   UNL     1      -1.192   7.471 -29.928  1.00  0.00    -0.012 A 
HETATM   27  C   UNL     1      -0.035   5.119 -31.286  1.00  0.00     0.044 C 
HETATM   28  C   UNL     1      -2.291   5.145 -32.629  1.00  0.00     0.033 A 
HETATM   29  C   UNL     1       0.880   6.199 -30.677  1.00  0.00     0.044 C 
HETATM   30  C   UNL     1       0.170   7.151 -29.727  1.00  0.00    -0.044 A 
HETATM   31  C   UNL     1       0.889   7.786 -28.704  1.00  0.00     0.044 A 
HETATM   32  C   UNL     1       0.270   8.720 -27.868  1.00  0.00     0.068 A 
HETATM   33  C   UNL     1      -1.078   9.019 -28.055  1.00  0.00     0.037 A 
HETATM   34  C   UNL     1      -1.804   8.401 -29.079  1.00  0.00     0.016 A 
BRANCH  32  35
HETATM   35  O   UNL     1       1.086   9.264 -26.913  1.00  0.00    -0.356 OA
HETATM   36  C   UNL     1       1.937   8.365 -26.213  1.00  0.00     0.210 C 
ENDBRANCH  32  35
ENDBRANCH   2  22
TORSDOF 7
ENDMDL
MODEL 4
REMARK VINA RESULT:      -8.6      2.645      4.231
REMARK  7 active torsions:
REMARK  status: ('A' for Active; 'I' for Inactive)
REMARK    1  A    between atoms: C_2  and  N_3 
REMARK       I    between atoms: N_3  and  C_4 
REMARK    2  A    between atoms: N_3  and  C_21 
REMARK    3  A    between atoms: C_4  and  C_5 
REMARK    4  A    between atoms: C_14  and  O_15 
REMARK    5  A    between atoms: C_21  and  C_22 
REMARK       I    between atoms: C_22  and  N_23 
REMARK    6  A    between atoms: N_23  and  C_24 
REMARK    7  A    between atoms: C_27  and  N_28 
REMARK       I    between atoms: N_28  and  C_29 
ROOT
HETATM    1  N   UNL     1      -5.380   5.501 -32.285  1.00  0.00    -0.339 N 
HETATM    2  C   UNL     1      -5.519   4.536 -31.265  1.00  0.00     0.261 C 
HETATM    3  O   UNL     1      -6.112   4.875 -30.235  1.00  0.00    -0.267 OA
ENDROOT
BRANCH   1   4
HETATM    4  C   UNL     1      -6.147   6.746 -32.139  1.00  0.00     0.122 C 
HETATM    5  C   UNL     1      -7.589   6.607 -32.612  1.00  0.00     0.026 C 
ENDBRANCH   1   4
BRANCH   1   6
HETATM    6  C   UNL     1      -4.268   5.545 -33.243  1.00  0.00     0.229 C 
BRANCH   6   7
HETATM    7  C   UNL     1      -3.001   6.250 -32.730  1.00  0.00     0.240 C 
HETATM    8  N   UNL     1      -2.613   5.830 -31.472  1.00  0.00    -0.326 N 
HETATM    9  H   UNL     1      -3.159   5.071 -31.082  1.00  0.00     0.169 HD
HETATM   10  O   UNL     1      -2.500   7.162 -33.381  1.00  0.00    -0.271 OA
BRANCH   8  11
HETATM   11  C   UNL     1      -1.624   6.385 -30.639  1.00  0.00     0.034 A 
HETATM   12  C   UNL     1      -0.255   6.215 -30.830  1.00  0.00     0.032 A 
HETATM   13  C   UNL     1       0.669   6.830 -29.971  1.00  0.00     0.032 A 
HETATM   14  C   UNL     1       0.237   7.625 -28.910  1.00  0.00     0.034 A 
HETATM   15  C   UNL     1      -1.139   7.787 -28.714  1.00  0.00     0.032 A 
HETATM   16  C   UNL     1      -2.060   7.170 -29.567  1.00  0.00     0.032 A 
BRANCH  14  17
HETATM   17  N   UNL     1       1.099   8.288 -28.013  1.00  0.00    -0.328 N 
HETATM   18  C   UNL     1       1.328   7.982 -26.684  1.00  0.00     0.218 C 
HETATM   19  C   UNL     1       2.329   8.904 -26.030  1.00  0.00     0.117 C 
HETATM   20  O   UNL     1       0.819   7.072 -26.040  1.00  0.00    -0.274 OA
HETATM   21  H   UNL     1       1.610   9.074 -28.396  1.00  0.00     0.169 HD
ENDBRANCH  14  17
ENDBRANCH   8  11
ENDBRANCH   6   7
ENDBRANCH   1   6
BRANCH   2  22
HETATM   22  C   UNL     1      -5.095   3.142 -31.472  1.00  0.00     0.074 A 
HETATM   23  S   UNL     1      -6.168   2.158 -32.418  1.00  0.00    -0.084 SA
HETATM   24  C   UNL     1      -5.094   0.851 -32.465  1.00  0.00     0.023 A 
HETATM   25  C   UNL     1      -3.966   1.089 -31.711  1.00  0.00    -0.038 A 
HETATM   26  C   UNL     1      -5.321  -0.395 -33.206  1.00  0.00    -0.012 A 
HETATM   27  C   UNL     1      -2.875   0.064 -31.618  1.00  0.00     0.044 C 
HETATM   28  C   UNL     1      -3.973   2.400 -31.137  1.00  0.00     0.033 A 
HETATM   29  C   UNL     1      -3.410  -1.364 -31.835  1.00  0.00     0.044 C 
HETATM   30  C   UNL     1      -4.452  -1.477 -32.936  1.00  0.00    -0.044 A 
HETATM   31  C   UNL     1      -4.617  -2.688 -33.624  1.00  0.00     0.044 A 
HETATM   32  C   UNL     1      -5.619  -2.834 -34.588  1.00  0.00     0.068 A 
HETATM   33  C   UNL     1      -6.461  -1.759 -34.867  1.00  0.00     0.037 A 
HETATM   34  C   UNL     1      -6.315  -0.549 -34.180  1.00  0.00     0.016 A 
BRANCH  32  35
HETATM   35  O   UNL     1      -5.669  -4.065 -35.182  1.00  0.00    -0.356 OA
HETATM   36  C   UNL     1      -4.914  -5.102 -34.566  1.00  0.00     0.210 C 
ENDBRANCH  32  35
ENDBRANCH   2  22
TORSDOF 7
ENDMDL
MODEL 5
REMARK VINA RESULT:      -8.5      2.577      7.356
REMARK  7 active torsions:
REMARK  status: ('A' for Active; 'I' for Inactive)
REMARK    1  A    between atoms: C_2  and  N_3 
REMARK       I    between atoms: N_3  and  C_4 
REMARK    2  A    between atoms: N_3  and  C_21 
REMARK    3  A    between atoms: C_4  and  C_5 
REMARK    4  A    between atoms: C_14  and  O_15 
REMARK    5  A    between atoms: C_21  and  C_22 
REMARK       I    between atoms: C_22  and  N_23 
REMARK    6  A    between atoms: N_23  and  C_24 
REMARK    7  A    between atoms: C_27  and  N_28 
REMARK       I    between atoms: N_28  and  C_29 
ROOT
HETATM    1  N   UNL     1      -2.452   6.147 -31.549  1.00  0.00    -0.339 N 
HETATM    2  C   UNL     1      -3.632   6.703 -31.013  1.00  0.00     0.261 C 
HETATM    3  O   UNL     1      -3.620   7.906 -30.730  1.00  0.00    -0.267 OA
ENDROOT
BRANCH   1   4
HETATM    4  C   UNL     1      -1.389   7.082 -31.944  1.00  0.00     0.122 C 
HETATM    5  C   UNL     1      -1.116   7.062 -33.443  1.00  0.00     0.026 C 
ENDBRANCH   1   4
BRANCH   1   6
HETATM    6  C   UNL     1      -2.040   4.747 -31.382  1.00  0.00     0.229 C 
BRANCH   6   7
HETATM    7  C   UNL     1      -2.738   3.752 -32.324  1.00  0.00     0.240 C 
HETATM    8  N   UNL     1      -3.403   2.741 -31.657  1.00  0.00    -0.326 N 
HETATM    9  H   UNL     1      -3.410   2.822 -30.647  1.00  0.00     0.169 HD
HETATM   10  O   UNL     1      -2.586   3.847 -33.538  1.00  0.00    -0.271 OA
BRANCH   8  11
HETATM   11  C   UNL     1      -3.984   1.579 -32.198  1.00  0.00     0.034 A 
HETATM   12  C   UNL     1      -3.376   0.326 -32.194  1.00  0.00     0.032 A 
HETATM   13  C   UNL     1      -4.037  -0.791 -32.725  1.00  0.00     0.032 A 
HETATM   14  C   UNL     1      -5.317  -0.673 -33.266  1.00  0.00     0.034 A 
HETATM   15  C   UNL     1      -5.923   0.588 -33.277  1.00  0.00     0.032 A 
HETATM   16  C   UNL     1      -5.262   1.704 -32.752  1.00  0.00     0.032 A 
BRANCH  14  17
HETATM   17  N   UNL     1      -6.054  -1.748 -33.804  1.00  0.00    -0.328 N 
HETATM   18  C   UNL     1      -5.577  -2.794 -34.572  1.00  0.00     0.218 C 
HETATM   19  C   UNL     1      -6.654  -3.776 -34.966  1.00  0.00     0.117 C 
HETATM   20  O   UNL     1      -4.418  -2.978 -34.928  1.00  0.00    -0.274 OA
HETATM   21  H   UNL     1      -7.045  -1.749 -33.593  1.00  0.00     0.169 HD
ENDBRANCH  14  17
ENDBRANCH   8  11
ENDBRANCH   6   7
ENDBRANCH   1   6
BRANCH   2  22
HETATM   22  C   UNL     1      -4.871   5.914 -30.919  1.00  0.00     0.074 A 
HETATM   23  S   UNL     1      -5.892   5.941 -32.323  1.00  0.00    -0.084 SA
HETATM   24  C   UNL     1      -6.946   4.769 -31.706  1.00  0.00     0.023 A 
HETATM   25  C   UNL     1      -6.609   4.405 -30.421  1.00  0.00    -0.038 A 
HETATM   26  C   UNL     1      -8.089   4.203 -32.432  1.00  0.00    -0.012 A 
HETATM   27  C   UNL     1      -7.406   3.371 -29.682  1.00  0.00     0.044 C 
HETATM   28  C   UNL     1      -5.424   5.069 -29.970  1.00  0.00     0.033 A 
HETATM   29  C   UNL     1      -8.863   3.307 -30.181  1.00  0.00     0.044 C 
HETATM   30  C   UNL     1      -9.010   3.431 -31.688  1.00  0.00    -0.044 A 
HETATM   31  C   UNL     1     -10.114   2.856 -32.335  1.00  0.00     0.044 A 
HETATM   32  C   UNL     1     -10.306   3.022 -33.710  1.00  0.00     0.068 A 
HETATM   33  C   UNL     1      -9.384   3.766 -34.444  1.00  0.00     0.037 A 
HETATM   34  C   UNL     1      -8.284   4.354 -33.810  1.00  0.00     0.016 A 
BRANCH  32  35
HETATM   35  O   UNL     1     -11.422   2.409 -34.212  1.00  0.00    -0.356 OA
HETATM   36  C   UNL     1     -11.700   1.099 -33.733  1.00  0.00     0.210 C 
ENDBRANCH  32  35
ENDBRANCH   2  22
TORSDOF 7
ENDMDL
MODEL 6
REMARK VINA RESULT:      -8.4      1.893      2.562
REMARK  7 active torsions:
REMARK  status: ('A' for Active; 'I' for Inactive)
REMARK    1  A    between atoms: C_2  and  N_3 
REMARK       I    between atoms: N_3  and  C_4 
REMARK    2  A    between atoms: N_3  and  C_21 
REMARK    3  A    between atoms: C_4  and  C_5 
REMARK    4  A    between atoms: C_14  and  O_15 
REMARK    5  A    between atoms: C_21  and  C_22 
REMARK       I    between atoms: C_22  and  N_23 
REMARK    6  A    between atoms: N_23  and  C_24 
REMARK    7  A    between atoms: C_27  and  N_28 
REMARK       I    between atoms: N_28  and  C_29 
ROOT
HETATM    1  N   UNL     1     -11.927   4.447 -33.735  1.00  0.00    -0.339 N 
HETATM    2  C   UNL     1     -11.954   3.164 -33.149  1.00  0.00     0.261 C 
HETATM    3  O   UNL     1     -13.037   2.570 -33.124  1.00  0.00    -0.267 OA
ENDROOT
BRANCH   1   4
HETATM    4  C   UNL     1     -13.126   4.874 -34.470  1.00  0.00     0.122 C 
HETATM    5  C   UNL     1     -12.798   5.758 -35.667  1.00  0.00     0.026 C 
ENDBRANCH   1   4
BRANCH   1   6
HETATM    6  C   UNL     1     -11.000   5.519 -33.350  1.00  0.00     0.229 C 
BRANCH   6   7
HETATM    7  C   UNL     1      -9.606   5.429 -33.994  1.00  0.00     0.240 C 
HETATM    8  N   UNL     1      -8.593   5.220 -33.077  1.00  0.00    -0.326 N 
HETATM    9  H   UNL     1      -8.897   5.081 -32.120  1.00  0.00     0.169 HD
HETATM   10  O   UNL     1      -9.470   5.638 -35.195  1.00  0.00    -0.271 OA
BRANCH   8  11
HETATM   11  C   UNL     1      -7.203   5.269 -33.293  1.00  0.00     0.034 A 
HETATM   12  C   UNL     1      -6.368   6.261 -32.787  1.00  0.00     0.032 A 
HETATM   13  C   UNL     1      -4.985   6.220 -33.021  1.00  0.00     0.032 A 
HETATM   14  C   UNL     1      -4.417   5.184 -33.761  1.00  0.00     0.034 A 
HETATM   15  C   UNL     1      -5.259   4.192 -34.275  1.00  0.00     0.032 A 
HETATM   16  C   UNL     1      -6.639   4.236 -34.047  1.00  0.00     0.032 A 
BRANCH  14  17
HETATM   17  N   UNL     1      -3.038   5.061 -34.026  1.00  0.00    -0.328 N 
HETATM   18  C   UNL     1      -2.144   6.075 -34.320  1.00  0.00     0.218 C 
HETATM   19  C   UNL     1      -0.735   5.576 -34.537  1.00  0.00     0.117 C 
HETATM   20  O   UNL     1      -2.392   7.273 -34.404  1.00  0.00    -0.274 OA
HETATM   21  H   UNL     1      -2.666   4.121 -33.989  1.00  0.00     0.169 HD
ENDBRANCH  14  17
ENDBRANCH   8  11
ENDBRANCH   6   7
ENDBRANCH   1   6
BRANCH   2  22
HETATM   22  C   UNL     1     -10.715   2.503 -32.708  1.00  0.00     0.074 A 
HETATM   23  S   UNL     1     -10.124   1.239 -33.741  1.00  0.00    -0.084 SA
HETATM   24  C   UNL     1      -8.687   1.054 -32.866  1.00  0.00     0.023 A 
HETATM   25  C   UNL     1      -8.662   1.861 -31.750  1.00  0.00    -0.038 A 
HETATM   26  C   UNL     1      -7.594   0.146 -33.231  1.00  0.00    -0.012 A 
HETATM   27  C   UNL     1      -7.476   1.863 -30.832  1.00  0.00     0.044 C 
HETATM   28  C   UNL     1      -9.829   2.684 -31.658  1.00  0.00     0.033 A 
HETATM   29  C   UNL     1      -6.716   0.523 -30.873  1.00  0.00     0.044 C 
HETATM   30  C   UNL     1      -6.586  -0.075 -32.264  1.00  0.00    -0.044 A 
HETATM   31  C   UNL     1      -5.511  -0.925 -32.565  1.00  0.00     0.044 A 
HETATM   32  C   UNL     1      -5.414  -1.542 -33.815  1.00  0.00     0.068 A 
HETATM   33  C   UNL     1      -6.398  -1.306 -34.773  1.00  0.00     0.037 A 
HETATM   34  C   UNL     1      -7.482  -0.470 -34.483  1.00  0.00     0.016 A 
BRANCH  32  35
HETATM   35  O   UNL     1      -4.317  -2.345 -33.975  1.00  0.00    -0.356 OA
HETATM   36  C   UNL     1      -4.538  -3.615 -34.576  1.00  0.00     0.210 C 
ENDBRANCH  32  35
ENDBRANCH   2  22
TORSDOF 7
ENDMDL
MODEL 7
REMARK VINA RESULT:      -8.3      2.694      7.337
REMARK  7 active torsions:
REMARK  status: ('A' for Active; 'I' for Inactive)
REMARK    1  A    between atoms: C_2  and  N_3 
REMARK       I    between atoms: N_3  and  C_4 
REMARK    2  A    between atoms: N_3  and  C_21 
REMARK    3  A    between atoms: C_4  and  C_5 
REMARK    4  A    between atoms: C_14  and  O_15 
REMARK    5  A    between atoms: C_21  and  C_22 
REMARK       I    between atoms: C_22  and  N_23 
REMARK    6  A    between atoms: N_23  and  C_24 
REMARK    7  A    between atoms: C_27  and  N_28 
REMARK       I    between atoms: N_28  and  C_29 
ROOT
HETATM    1  N   UNL     1      -6.638   5.340 -30.823  1.00  0.00    -0.339 N 
HETATM    2  C   UNL     1      -6.551   5.217 -32.225  1.00  0.00     0.261 C 
HETATM    3  O   UNL     1      -6.173   6.206 -32.863  1.00  0.00    -0.267 OA
ENDROOT
BRANCH   1   4
HETATM    4  C   UNL     1      -6.054   6.546 -30.218  1.00  0.00     0.122 C 
HETATM    5  C   UNL     1      -4.657   6.306 -29.660  1.00  0.00     0.026 C 
ENDBRANCH   1   4
BRANCH   1   6
HETATM    6  C   UNL     1      -7.581   4.595 -29.978  1.00  0.00     0.229 C 
BRANCH   6   7
HETATM    7  C   UNL     1      -9.063   4.934 -30.211  1.00  0.00     0.240 C 
HETATM    8  N   UNL     1      -9.797   3.870 -30.700  1.00  0.00    -0.326 N 
HETATM    9  H   UNL     1      -9.292   2.994 -30.773  1.00  0.00     0.169 HD
HETATM   10  O   UNL     1      -9.460   6.085 -30.059  1.00  0.00    -0.271 OA
BRANCH   8  11
HETATM   11  C   UNL     1     -11.116   3.878 -31.190  1.00  0.00     0.034 A 
HETATM   12  C   UNL     1     -11.476   3.475 -32.474  1.00  0.00     0.032 A 
HETATM   13  C   UNL     1     -12.819   3.482 -32.876  1.00  0.00     0.032 A 
HETATM   14  C   UNL     1     -13.824   3.888 -31.999  1.00  0.00     0.034 A 
HETATM   15  C   UNL     1     -13.461   4.300 -30.712  1.00  0.00     0.032 A 
HETATM   16  C   UNL     1     -12.120   4.298 -30.313  1.00  0.00     0.032 A 
BRANCH  14  17
HETATM   17  N   UNL     1     -15.197   3.908 -32.319  1.00  0.00    -0.328 N 
HETATM   18  C   UNL     1     -16.116   2.889 -32.146  1.00  0.00     0.218 C 
HETATM   19  C   UNL     1     -17.508   3.267 -32.592  1.00  0.00     0.117 C 
HETATM   20  O   UNL     1     -15.901   1.775 -31.680  1.00  0.00    -0.274 OA
HETATM   21  H   UNL     1     -15.543   4.773 -32.714  1.00  0.00     0.169 HD
ENDBRANCH  14  17
ENDBRANCH   8  11
ENDBRANCH   6   7
ENDBRANCH   1   6
BRANCH   2  22
HETATM   22  C   UNL     1      -6.772   3.923 -32.891  1.00  0.00     0.074 A 
HETATM   23  S   UNL     1      -5.438   2.814 -32.848  1.00  0.00    -0.084 SA
HETATM   24  C   UNL     1      -6.332   1.551 -33.533  1.00  0.00     0.023 A 
HETATM   25  C   UNL     1      -7.601   1.955 -33.884  1.00  0.00    -0.038 A 
HETATM   26  C   UNL     1      -5.832   0.187 -33.744  1.00  0.00    -0.012 A 
HETATM   27  C   UNL     1      -8.570   0.992 -34.503  1.00  0.00     0.044 C 
HETATM   28  C   UNL     1      -7.848   3.318 -33.521  1.00  0.00     0.033 A 
HETATM   29  C   UNL     1      -7.848  -0.139 -35.261  1.00  0.00     0.044 C 
HETATM   30  C   UNL     1      -6.611  -0.670 -34.555  1.00  0.00    -0.044 A 
HETATM   31  C   UNL     1      -6.186  -1.988 -34.780  1.00  0.00     0.044 A 
HETATM   32  C   UNL     1      -5.011  -2.470 -34.197  1.00  0.00     0.068 A 
HETATM   33  C   UNL     1      -4.255  -1.629 -33.382  1.00  0.00     0.037 A 
HETATM   34  C   UNL     1      -4.662  -0.309 -33.158  1.00  0.00     0.016 A 
BRANCH  32  35
HETATM   35  O   UNL     1      -4.713  -3.771 -34.499  1.00  0.00    -0.356 OA
HETATM   36  C   UNL     1      -5.794  -4.590 -34.929  1.00  0.00     0.210 C 
ENDBRANCH  32  35
ENDBRANCH   2  22
TORSDOF 7
ENDMDL
MODEL 8
REMARK VINA RESULT:      -8.2      2.071      2.599
REMARK  7 active torsions:
REMARK  status: ('A' for Active; 'I' for Inactive)
REMARK    1  A    between atoms: C_2  and  N_3 
REMARK       I    between atoms: N_3  and  C_4 
REMARK    2  A    between atoms: N_3  and  C_21 
REMARK    3  A    between atoms: C_4  and  C_5 
REMARK    4  A    between atoms: C_14  and  O_15 
REMARK    5  A    between atoms: C_21  and  C_22 
REMARK       I    between atoms: C_22  and  N_23 
REMARK    6  A    between atoms: N_23  and  C_24 
REMARK    7  A    between atoms: C_27  and  N_28 
REMARK       I    between atoms: N_28  and  C_29 
ROOT
HETATM    1  N   UNL     1      -8.047   5.254 -32.271  1.00  0.00    -0.339 N 
HETATM    2  C   UNL     1      -7.876   4.200 -31.349  1.00  0.00     0.261 C 
HETATM    3  O   UNL     1      -8.596   4.198 -30.344  1.00  0.00    -0.267 OA
ENDROOT
BRANCH   1   4
HETATM    4  C   UNL     1      -9.214   6.127 -32.083  1.00  0.00     0.122 C 
HETATM    5  C   UNL     1     -10.266   5.943 -33.170  1.00  0.00     0.026 C 
ENDBRANCH   1   4
BRANCH   1   6
HETATM    6  C   UNL     1      -6.983   5.788 -33.133  1.00  0.00     0.229 C 
BRANCH   6   7
HETATM    7  C   UNL     1      -5.905   6.600 -32.398  1.00  0.00     0.240 C 
HETATM    8  N   UNL     1      -4.622   6.136 -32.620  1.00  0.00    -0.326 N 
HETATM    9  H   UNL     1      -4.548   5.376 -33.288  1.00  0.00     0.169 HD
HETATM   10  O   UNL     1      -6.231   7.493 -31.621  1.00  0.00    -0.271 OA
BRANCH   8  11
HETATM   11  C   UNL     1      -3.434   6.521 -31.973  1.00  0.00     0.034 A 
HETATM   12  C   UNL     1      -2.560   7.493 -32.454  1.00  0.00     0.032 A 
HETATM   13  C   UNL     1      -1.411   7.843 -31.730  1.00  0.00     0.032 A 
HETATM   14  C   UNL     1      -1.119   7.229 -30.513  1.00  0.00     0.034 A 
HETATM   15  C   UNL     1      -1.994   6.246 -30.034  1.00  0.00     0.032 A 
HETATM   16  C   UNL     1      -3.138   5.893 -30.759  1.00  0.00     0.032 A 
BRANCH  14  17
HETATM   17  N   UNL     1       0.004   7.534 -29.718  1.00  0.00    -0.328 N 
HETATM   18  C   UNL     1       0.032   8.279 -28.553  1.00  0.00     0.218 C 
HETATM   19  C   UNL     1       1.416   8.394 -27.958  1.00  0.00     0.117 C 
HETATM   20  O   UNL     1      -0.922   8.812 -27.996  1.00  0.00    -0.274 OA
HETATM   21  H   UNL     1       0.886   7.157 -30.041  1.00  0.00     0.169 HD
ENDBRANCH  14  17
ENDBRANCH   8  11
ENDBRANCH   6   7
ENDBRANCH   1   6
BRANCH   2  22
HETATM   22  C   UNL     1      -6.972   3.075 -31.638  1.00  0.00     0.074 A 
HETATM   23  S   UNL     1      -7.718   1.660 -32.311  1.00  0.00    -0.084 SA
HETATM   24  C   UNL     1      -6.239   0.886 -32.590  1.00  0.00     0.023 A 
HETATM   25  C   UNL     1      -5.178   1.624 -32.110  1.00  0.00    -0.038 A 
HETATM   26  C   UNL     1      -6.083  -0.414 -33.252  1.00  0.00    -0.012 A 
HETATM   27  C   UNL     1      -3.771   1.129 -32.258  1.00  0.00     0.044 C 
HETATM   28  C   UNL     1      -5.603   2.875 -31.558  1.00  0.00     0.033 A 
HETATM   29  C   UNL     1      -3.709  -0.409 -32.340  1.00  0.00     0.044 C 
HETATM   30  C   UNL     1      -4.814  -1.032 -33.177  1.00  0.00    -0.044 A 
HETATM   31  C   UNL     1      -4.607  -2.270 -33.802  1.00  0.00     0.044 A 
HETATM   32  C   UNL     1      -5.635  -2.893 -34.515  1.00  0.00     0.068 A 
HETATM   33  C   UNL     1      -6.880  -2.272 -34.605  1.00  0.00     0.037 A 
HETATM   34  C   UNL     1      -7.103  -1.042 -33.977  1.00  0.00     0.016 A 
BRANCH  32  35
HETATM   35  O   UNL     1      -5.298  -4.096 -35.075  1.00  0.00    -0.356 OA
HETATM   36  C   UNL     1      -4.573  -5.002 -34.252  1.00  0.00     0.210 C 
ENDBRANCH  32  35
ENDBRANCH   2  22
TORSDOF 7
ENDMDL
MODEL 9
REMARK VINA RESULT:      -8.1      2.234      6.553
REMARK  7 active torsions:
REMARK  status: ('A' for Active; 'I' for Inactive)
REMARK    1  A    between atoms: C_2  and  N_3 
REMARK       I    between atoms: N_3  and  C_4 
REMARK    2  A    between atoms: N_3  and  C_21 
REMARK    3  A    between atoms: C_4  and  C_5 
REMARK    4  A    between atoms: C_14  and  O_15 
REMARK    5  A    between atoms: C_21  and  C_22 
REMARK       I    between atoms: C_22  and  N_23 
REMARK    6  A    between atoms: N_23  and  C_24 
REMARK    7  A    between atoms: C_27  and  N_28 
REMARK       I    between atoms: N_28  and  C_29 
ROOT
HETATM    1  N   UNL     1      -4.996   5.870 -31.403  1.00  0.00    -0.339 N 
HETATM    2  C   UNL     1      -4.445   5.116 -32.460  1.00  0.00     0.261 C 
HETATM    3  O   UNL     1      -3.875   5.733 -33.366  1.00  0.00    -0.267 OA
ENDROOT
BRANCH   1   4
HETATM    4  C   UNL     1      -4.649   7.297 -31.345  1.00  0.00     0.122 C 
HETATM    5  C   UNL     1      -3.420   7.568 -30.485  1.00  0.00     0.026 C 
ENDBRANCH   1   4
BRANCH   1   6
HETATM    6  C   UNL     1      -6.167   5.466 -30.614  1.00  0.00     0.229 C 
BRANCH   6   7
HETATM    7  C   UNL     1      -7.473   5.337 -31.416  1.00  0.00     0.240 C 
HETATM    8  N   UNL     1      -8.174   4.179 -31.138  1.00  0.00    -0.326 N 
HETATM    9  H   UNL     1      -7.784   3.605 -30.399  1.00  0.00     0.169 HD
HETATM   10  O   UNL     1      -7.747   6.166 -32.278  1.00  0.00    -0.271 OA
BRANCH   8  11
HETATM   11  C   UNL     1      -9.296   3.661 -31.810  1.00  0.00     0.034 A 
HETATM   12  C   UNL     1      -9.240   2.630 -32.745  1.00  0.00     0.032 A 
HETATM   13  C   UNL     1     -10.411   2.147 -33.348  1.00  0.00     0.032 A 
HETATM   14  C   UNL     1     -11.655   2.685 -33.024  1.00  0.00     0.034 A 
HETATM   15  C   UNL     1     -11.709   3.727 -32.091  1.00  0.00     0.032 A 
HETATM   16  C   UNL     1     -10.540   4.212 -31.493  1.00  0.00     0.032 A 
BRANCH  14  17
HETATM   17  N   UNL     1     -12.878   2.246 -33.572  1.00  0.00    -0.328 N 
HETATM   18  C   UNL     1     -13.322   0.943 -33.698  1.00  0.00     0.218 C 
HETATM   19  C   UNL     1     -14.693   0.845 -34.324  1.00  0.00     0.117 C 
HETATM   20  O   UNL     1     -12.729  -0.074 -33.356  1.00  0.00    -0.274 OA
HETATM   21  H   UNL     1     -13.498   2.975 -33.902  1.00  0.00     0.169 HD
ENDBRANCH  14  17
ENDBRANCH   8  11
ENDBRANCH   6   7
ENDBRANCH   1   6
BRANCH   2  22
HETATM   22  C   UNL     1      -4.430   3.644 -32.418  1.00  0.00     0.074 A 
HETATM   23  S   UNL     1      -5.701   2.851 -33.294  1.00  0.00    -0.084 SA
HETATM   24  C   UNL     1      -5.046   1.309 -33.052  1.00  0.00     0.023 A 
HETATM   25  C   UNL     1      -3.928   1.350 -32.247  1.00  0.00    -0.038 A 
HETATM   26  C   UNL     1      -5.591   0.068 -33.613  1.00  0.00    -0.012 A 
HETATM   27  C   UNL     1      -3.181   0.095 -31.908  1.00  0.00     0.044 C 
HETATM   28  C   UNL     1      -3.581   2.689 -31.880  1.00  0.00     0.033 A 
HETATM   29  C   UNL     1      -4.094  -1.146 -31.953  1.00  0.00     0.044 C 
HETATM   30  C   UNL     1      -5.080  -1.150 -33.110  1.00  0.00    -0.044 A 
HETATM   31  C   UNL     1      -5.558  -2.367 -33.620  1.00  0.00     0.044 A 
HETATM   32  C   UNL     1      -6.520  -2.390 -34.634  1.00  0.00     0.068 A 
HETATM   33  C   UNL     1      -7.006  -1.187 -35.143  1.00  0.00     0.037 A 
HETATM   34  C   UNL     1      -6.547   0.033 -34.635  1.00  0.00     0.016 A 
BRANCH  32  35
HETATM   35  O   UNL     1      -6.897  -3.641 -35.038  1.00  0.00    -0.356 OA
HETATM   36  C   UNL     1      -5.896  -4.652 -35.005  1.00  0.00     0.210 C 
ENDBRANCH  32  35
ENDBRANCH   2  22
TORSDOF 7
ENDMDL
MODEL 10
REMARK VINA RESULT:      -8.0      4.188     10.347
REMARK  7 active torsions:
REMARK  status: ('A' for Active; 'I' for Inactive)
REMARK    1  A    between atoms: C_2  and  N_3 
REMARK       I    between atoms: N_3  and  C_4 
REMARK    2  A    between atoms: N_3  and  C_21 
REMARK    3  A    between atoms: C_4  and  C_5 
REMARK    4  A    between atoms: C_14  and  O_15 
REMARK    5  A    between atoms: C_21  and  C_22 
REMARK       I    between atoms: C_22  and  N_23 
REMARK    6  A    between atoms: N_23  and  C_24 
REMARK    7  A    between atoms: C_27  and  N_28 
REMARK       I    between atoms: N_28  and  C_29 
ROOT
HETATM    1  N   UNL     1      -2.051   5.351 -33.204  1.00  0.00    -0.339 N 
HETATM    2  C   UNL     1      -1.333   6.536 -32.943  1.00  0.00     0.261 C 
HETATM    3  O   UNL     1      -0.699   7.037 -33.878  1.00  0.00    -0.267 OA
ENDROOT
BRANCH   1   4
HETATM    4  C   UNL     1      -2.177   4.938 -34.609  1.00  0.00     0.122 C 
HETATM    5  C   UNL     1      -3.519   5.326 -35.217  1.00  0.00     0.026 C 
ENDBRANCH   1   4
BRANCH   1   6
HETATM    6  C   UNL     1      -2.331   4.310 -32.206  1.00  0.00     0.229 C 
BRANCH   6   7
HETATM    7  C   UNL     1      -3.822   3.989 -32.009  1.00  0.00     0.240 C 
HETATM    8  N   UNL     1      -4.224   2.836 -32.656  1.00  0.00    -0.326 N 
HETATM    9  H   UNL     1      -3.483   2.315 -33.111  1.00  0.00     0.169 HD
HETATM   10  O   UNL     1      -4.547   4.780 -31.414  1.00  0.00    -0.271 OA
BRANCH   8  11
HETATM   11  C   UNL     1      -5.533   2.353 -32.837  1.00  0.00     0.034 A 
HETATM   12  C   UNL     1      -6.389   2.774 -33.852  1.00  0.00     0.032 A 
HETATM   13  C   UNL     1      -7.670   2.218 -33.985  1.00  0.00     0.032 A 
HETATM   14  C   UNL     1      -8.114   1.231 -33.106  1.00  0.00     0.034 A 
HETATM   15  C   UNL     1      -7.257   0.815 -32.081  1.00  0.00     0.032 A 
HETATM   16  C   UNL     1      -5.980   1.373 -31.946  1.00  0.00     0.032 A 
BRANCH  14  17
HETATM   17  N   UNL     1      -9.378   0.612 -33.180  1.00  0.00    -0.328 N 
HETATM   18  C   UNL     1     -10.604   1.224 -33.368  1.00  0.00     0.218 C 
HETATM   19  C   UNL     1     -11.753   0.244 -33.409  1.00  0.00     0.117 C 
HETATM   20  O   UNL     1     -10.816   2.424 -33.504  1.00  0.00    -0.274 OA
HETATM   21  H   UNL     1      -9.379  -0.396 -33.092  1.00  0.00     0.169 HD
ENDBRANCH  14  17
ENDBRANCH   8  11
ENDBRANCH   6   7
ENDBRANCH   1   6
BRANCH   2  22
HETATM   22  C   UNL     1      -1.444   7.224 -31.646  1.00  0.00     0.074 A 
HETATM   23  S   UNL     1      -0.150   6.936 -30.526  1.00  0.00    -0.084 SA
HETATM   24  C   UNL     1      -0.715   8.084 -29.418  1.00  0.00     0.023 A 
HETATM   25  C   UNL     1      -1.914   8.633 -29.819  1.00  0.00    -0.038 A 
HETATM   26  C   UNL     1      -0.033   8.457 -28.174  1.00  0.00    -0.012 A 
HETATM   27  C   UNL     1      -2.593   9.681 -28.989  1.00  0.00     0.044 C 
HETATM   28  C   UNL     1      -2.332   8.133 -31.093  1.00  0.00     0.033 A 
HETATM   29  C   UNL     1      -2.223   9.560 -27.497  1.00  0.00     0.044 C 
HETATM   30  C   UNL     1      -0.759   9.236 -27.245  1.00  0.00    -0.044 A 
HETATM   31  C   UNL     1      -0.151   9.631 -26.044  1.00  0.00     0.044 A 
HETATM   32  C   UNL     1       1.172   9.278 -25.762  1.00  0.00     0.068 A 
HETATM   33  C   UNL     1       1.893   8.528 -26.689  1.00  0.00     0.037 A 
HETATM   34  C   UNL     1       1.295   8.118 -27.886  1.00  0.00     0.016 A 
BRANCH  32  35
HETATM   35  O   UNL     1       1.641   9.727 -24.558  1.00  0.00    -0.356 OA
HETATM   36  C   UNL     1       2.536   8.869 -23.861  1.00  0.00     0.210 C 
ENDBRANCH  32  35
ENDBRANCH   2  22
TORSDOF 7
ENDMDL
