MODEL 1
REMARK VINA RESULT:      -9.3      0.000      0.000
REMARK  2 active torsions:
REMARK  status: ('A' for Active; 'I' for Inactive)
REMARK    1  A    between atoms: C_5  and  C_6 
REMARK    2  A    between atoms: C_17  and  O_18 
ROOT
HETATM    1  C   UNL     1      -4.807   2.435 -31.601  1.00  0.00     0.200 C 
HETATM    2  N   UNL     1      -3.650   2.962 -30.934  1.00  0.00    -0.336 N 
HETATM    3  C   UNL     1      -2.672   3.676 -31.573  1.00  0.00     0.255 C 
HETATM    4  O   UNL     1      -1.567   3.850 -31.067  1.00  0.00    -0.268 OA
HETATM    5  C   UNL     1      -3.013   4.225 -32.895  1.00  0.00     0.053 A 
HETATM    6  C   UNL     1      -4.323   4.057 -33.347  1.00  0.00     0.026 A 
HETATM    7  N   UNL     1      -5.296   3.440 -32.546  1.00  0.00    -0.267 NA
HETATM    8  C   UNL     1      -2.059   4.904 -33.660  1.00  0.00     0.019 A 
HETATM    9  C   UNL     1      -2.425   5.453 -34.887  1.00  0.00     0.001 A 
HETATM   10  C   UNL     1      -3.741   5.337 -35.331  1.00  0.00     0.002 A 
HETATM   11  C   UNL     1      -4.688   4.657 -34.558  1.00  0.00     0.024 A 
HETATM   12  H   UNL     1      -3.295   2.433 -30.153  1.00  0.00     0.164 HD
HETATM   13  H   UNL     1      -6.056   3.097 -33.122  1.00  0.00     0.130 HD
ENDROOT
BRANCH   1  14
HETATM   14  C   UNL     1      -4.707   1.047 -32.246  1.00  0.00     0.023 A 
HETATM   15  C   UNL     1      -5.715   0.628 -33.189  1.00  0.00    -0.014 A 
HETATM   16  C   UNL     1      -5.540  -0.591 -33.899  1.00  0.00    -0.025 A 
HETATM   17  C   UNL     1      -6.908   1.347 -33.471  1.00  0.00     0.013 A 
HETATM   18  C   UNL     1      -6.472  -1.001 -34.867  1.00  0.00     0.012 A 
HETATM   19  C   UNL     1      -4.437  -1.406 -33.633  1.00  0.00     0.015 A 
HETATM   20  C   UNL     1      -7.607  -0.244 -35.140  1.00  0.00     0.001 A 
HETATM   21  C   UNL     1      -7.832   0.926 -34.432  1.00  0.00     0.001 A 
HETATM   22  C   UNL     1      -3.514  -1.053 -32.657  1.00  0.00     0.038 A 
HETATM   23  C   UNL     1      -3.654   0.151 -31.971  1.00  0.00     0.076 A 
BRANCH  23  24
HETATM   24  O   UNL     1      -2.755   0.417 -30.980  1.00  0.00    -0.360 OA
HETATM   25  H   UNL     1      -1.961   0.841 -31.345  1.00  0.00     0.217 HD
ENDBRANCH  23  24
ENDBRANCH   1  14
TORSDOF 2
ENDMDL
MODEL 2
REMARK VINA RESULT:      -8.4      2.626      3.341
REMARK  2 active torsions:
REMARK  status: ('A' for Active; 'I' for Inactive)
REMARK    1  A    between atoms: C_5  and  C_6 
REMARK    2  A    between atoms: C_17  and  O_18 
ROOT
HETATM    1  C   UNL     1      -7.420   0.775 -32.034  1.00  0.00     0.200 C 
HETATM    2  N   UNL     1      -7.797   1.465 -30.833  1.00  0.00    -0.336 N 
HETATM    3  C   UNL     1      -7.400   2.742 -30.541  1.00  0.00     0.255 C 
HETATM    4  O   UNL     1      -7.473   3.195 -29.403  1.00  0.00    -0.268 OA
HETATM    5  C   UNL     1      -6.885   3.545 -31.661  1.00  0.00     0.053 A 
HETATM    6  C   UNL     1      -6.928   2.979 -32.937  1.00  0.00     0.026 A 
HETATM    7  N   UNL     1      -7.497   1.715 -33.153  1.00  0.00    -0.267 NA
HETATM    8  C   UNL     1      -6.383   4.834 -31.452  1.00  0.00     0.019 A 
HETATM    9  C   UNL     1      -5.946   5.586 -32.540  1.00  0.00     0.001 A 
HETATM   10  C   UNL     1      -6.027   5.055 -33.826  1.00  0.00     0.002 A 
HETATM   11  C   UNL     1      -6.531   3.765 -34.024  1.00  0.00     0.024 A 
HETATM   12  H   UNL     1      -7.928   0.902 -30.007  1.00  0.00     0.164 HD
HETATM   13  H   UNL     1      -7.152   1.319 -34.019  1.00  0.00     0.130 HD
ENDROOT
BRANCH   1  14
HETATM   14  C   UNL     1      -6.102  -0.010 -32.039  1.00  0.00     0.023 A 
HETATM   15  C   UNL     1      -5.912  -1.072 -32.998  1.00  0.00    -0.014 A 
HETATM   16  C   UNL     1      -4.639  -1.694 -33.103  1.00  0.00    -0.025 A 
HETATM   17  C   UNL     1      -6.923  -1.569 -33.865  1.00  0.00     0.013 A 
HETATM   18  C   UNL     1      -4.402  -2.692 -34.064  1.00  0.00     0.012 A 
HETATM   19  C   UNL     1      -3.605  -1.327 -32.238  1.00  0.00     0.015 A 
HETATM   20  C   UNL     1      -5.411  -3.119 -34.921  1.00  0.00     0.001 A 
HETATM   21  C   UNL     1      -6.676  -2.566 -34.814  1.00  0.00     0.001 A 
HETATM   22  C   UNL     1      -3.811  -0.373 -31.251  1.00  0.00     0.038 A 
HETATM   23  C   UNL     1      -5.044   0.268 -31.151  1.00  0.00     0.076 A 
BRANCH  23  24
HETATM   24  O   UNL     1      -5.211   1.150 -30.123  1.00  0.00    -0.360 OA
HETATM   25  H   UNL     1      -5.548   1.998 -30.454  1.00  0.00     0.217 HD
ENDBRANCH  23  24
ENDBRANCH   1  14
TORSDOF 2
ENDMDL
MODEL 3
REMARK VINA RESULT:      -8.3      1.663      2.848
REMARK  2 active torsions:
REMARK  status: ('A' for Active; 'I' for Inactive)
REMARK    1  A    between atoms: C_5  and  C_6 
REMARK    2  A    between atoms: C_17  and  O_18 
ROOT
HETATM    1  C   UNL     1      -5.988   2.089 -32.274  1.00  0.00     0.200 C 
HETATM    2  N   UNL     1      -4.852   2.085 -31.397  1.00  0.00    -0.336 N 
HETATM    3  C   UNL     1      -3.641   2.632 -31.730  1.00  0.00     0.255 C 
HETATM    4  O   UNL     1      -2.618   2.357 -31.111  1.00  0.00    -0.268 OA
HETATM    5  C   UNL     1      -3.631   3.568 -32.865  1.00  0.00     0.053 A 
HETATM    6  C   UNL     1      -4.857   3.893 -33.448  1.00  0.00     0.026 A 
HETATM    7  N   UNL     1      -6.062   3.394 -32.933  1.00  0.00    -0.267 NA
HETATM    8  C   UNL     1      -2.433   4.121 -33.331  1.00  0.00     0.019 A 
HETATM    9  C   UNL     1      -2.461   5.040 -34.378  1.00  0.00     0.001 A 
HETATM   10  C   UNL     1      -3.681   5.413 -34.939  1.00  0.00     0.002 A 
HETATM   11  C   UNL     1      -4.873   4.855 -34.465  1.00  0.00     0.024 A 
HETATM   12  H   UNL     1      -4.762   1.300 -30.771  1.00  0.00     0.164 HD
HETATM   13  H   UNL     1      -6.788   3.433 -33.639  1.00  0.00     0.130 HD
ENDROOT
BRANCH   1  14
HETATM   14  C   UNL     1      -6.140   0.936 -33.275  1.00  0.00     0.023 A 
HETATM   15  C   UNL     1      -5.291  -0.224 -33.154  1.00  0.00    -0.014 A 
HETATM   16  C   UNL     1      -5.533  -1.353 -33.983  1.00  0.00    -0.025 A 
HETATM   17  C   UNL     1      -4.194  -0.335 -32.256  1.00  0.00     0.013 A 
HETATM   18  C   UNL     1      -4.763  -2.521 -33.853  1.00  0.00     0.012 A 
HETATM   19  C   UNL     1      -6.539  -1.309 -34.951  1.00  0.00     0.015 A 
HETATM   20  C   UNL     1      -3.724  -2.599 -32.931  1.00  0.00     0.001 A 
HETATM   21  C   UNL     1      -3.431  -1.501 -32.140  1.00  0.00     0.001 A 
HETATM   22  C   UNL     1      -7.296  -0.160 -35.135  1.00  0.00     0.038 A 
HETATM   23  C   UNL     1      -7.091   0.946 -34.314  1.00  0.00     0.076 A 
BRANCH  23  24
HETATM   24  O   UNL     1      -7.819   2.070 -34.581  1.00  0.00    -0.360 OA
HETATM   25  H   UNL     1      -8.521   2.186 -33.920  1.00  0.00     0.217 HD
ENDBRANCH  23  24
ENDBRANCH   1  14
TORSDOF 2
ENDMDL
MODEL 4
REMARK VINA RESULT:      -8.3      2.200      3.591
REMARK  2 active torsions:
REMARK  status: ('A' for Active; 'I' for Inactive)
REMARK    1  A    between atoms: C_5  and  C_6 
REMARK    2  A    between atoms: C_17  and  O_18 
ROOT
HETATM    1  C   UNL     1      -5.980   0.541 -30.289  1.00  0.00     0.200 C 
HETATM    2  N   UNL     1      -4.616   0.127 -30.453  1.00  0.00    -0.336 N 
HETATM    3  C   UNL     1      -3.639   0.938 -30.966  1.00  0.00     0.255 C 
HETATM    4  O   UNL     1      -2.575   0.484 -31.377  1.00  0.00    -0.268 OA
HETATM    5  C   UNL     1      -3.928   2.380 -30.997  1.00  0.00     0.053 A 
HETATM    6  C   UNL     1      -5.124   2.813 -30.422  1.00  0.00     0.026 A 
HETATM    7  N   UNL     1      -5.992   1.914 -29.783  1.00  0.00    -0.267 NA
HETATM    8  C   UNL     1      -3.026   3.283 -31.571  1.00  0.00     0.019 A 
HETATM    9  C   UNL     1      -3.307   4.647 -31.544  1.00  0.00     0.001 A 
HETATM   10  C   UNL     1      -4.474   5.100 -30.930  1.00  0.00     0.002 A 
HETATM   11  C   UNL     1      -5.368   4.189 -30.358  1.00  0.00     0.024 A 
HETATM   12  H   UNL     1      -4.457  -0.848 -30.659  1.00  0.00     0.164 HD
HETATM   13  H   UNL     1      -6.925   2.304 -29.734  1.00  0.00     0.130 HD
ENDROOT
BRANCH   1  14
HETATM   14  C   UNL     1      -6.943   0.360 -31.470  1.00  0.00     0.023 A 
HETATM   15  C   UNL     1      -6.561  -0.487 -32.573  1.00  0.00    -0.014 A 
HETATM   16  C   UNL     1      -7.511  -0.774 -33.591  1.00  0.00    -0.025 A 
HETATM   17  C   UNL     1      -5.275  -1.069 -32.740  1.00  0.00     0.013 A 
HETATM   18  C   UNL     1      -7.193  -1.641 -34.650  1.00  0.00     0.012 A 
HETATM   19  C   UNL     1      -8.777  -0.185 -33.555  1.00  0.00     0.015 A 
HETATM   20  C   UNL     1      -5.932  -2.222 -34.750  1.00  0.00     0.001 A 
HETATM   21  C   UNL     1      -4.968  -1.926 -33.801  1.00  0.00     0.001 A 
HETATM   22  C   UNL     1      -9.116   0.707 -32.546  1.00  0.00     0.038 A 
HETATM   23  C   UNL     1      -8.208   0.979 -31.526  1.00  0.00     0.076 A 
BRANCH  23  24
HETATM   24  O   UNL     1      -8.569   1.910 -30.596  1.00  0.00    -0.360 OA
HETATM   25  H   UNL     1      -7.799   2.187 -30.073  1.00  0.00     0.217 HD
ENDBRANCH  23  24
ENDBRANCH   1  14
TORSDOF 2
ENDMDL
MODEL 5
REMARK VINA RESULT:      -8.3      1.462      1.923
REMARK  2 active torsions:
REMARK  status: ('A' for Active; 'I' for Inactive)
REMARK    1  A    between atoms: C_5  and  C_6 
REMARK    2  A    between atoms: C_17  and  O_18 
ROOT
HETATM    1  C   UNL     1      -5.546   3.814 -32.976  1.00  0.00     0.200 C 
HETATM    2  N   UNL     1      -5.484   4.759 -31.897  1.00  0.00    -0.336 N 
HETATM    3  C   UNL     1      -4.356   5.470 -31.582  1.00  0.00     0.255 C 
HETATM    4  O   UNL     1      -4.229   6.029 -30.497  1.00  0.00    -0.268 OA
HETATM    5  C   UNL     1      -3.307   5.532 -32.611  1.00  0.00     0.053 A 
HETATM    6  C   UNL     1      -3.579   4.946 -33.849  1.00  0.00     0.026 A 
HETATM    7  N   UNL     1      -4.829   4.372 -34.123  1.00  0.00    -0.267 NA
HETATM    8  C   UNL     1      -2.087   6.168 -32.359  1.00  0.00     0.019 A 
HETATM    9  C   UNL     1      -1.131   6.250 -33.369  1.00  0.00     0.001 A 
HETATM   10  C   UNL     1      -1.406   5.713 -34.626  1.00  0.00     0.002 A 
HETATM   11  C   UNL     1      -2.629   5.080 -34.869  1.00  0.00     0.024 A 
HETATM   12  H   UNL     1      -6.058   4.569 -31.090  1.00  0.00     0.164 HD
HETATM   13  H   UNL     1      -4.752   3.715 -34.891  1.00  0.00     0.130 HD
ENDROOT
BRANCH   1  14
HETATM   14  C   UNL     1      -5.135   2.363 -32.697  1.00  0.00     0.023 A 
HETATM   15  C   UNL     1      -5.732   1.297 -33.464  1.00  0.00    -0.014 A 
HETATM   16  C   UNL     1      -5.241  -0.028 -33.312  1.00  0.00    -0.025 A 
HETATM   17  C   UNL     1      -6.807   1.462 -34.381  1.00  0.00     0.013 A 
HETATM   18  C   UNL     1      -5.759  -1.081 -34.086  1.00  0.00     0.012 A 
HETATM   19  C   UNL     1      -4.240  -0.303 -32.378  1.00  0.00     0.015 A 
HETATM   20  C   UNL     1      -6.784  -0.866 -35.001  1.00  0.00     0.001 A 
HETATM   21  C   UNL     1      -7.317   0.405 -35.140  1.00  0.00     0.001 A 
HETATM   22  C   UNL     1      -3.730   0.704 -31.570  1.00  0.00     0.038 A 
HETATM   23  C   UNL     1      -4.179   2.014 -31.723  1.00  0.00     0.076 A 
BRANCH  23  24
HETATM   24  O   UNL     1      -3.690   2.950 -30.860  1.00  0.00    -0.360 OA
HETATM   25  H   UNL     1      -3.766   2.640 -29.942  1.00  0.00     0.217 HD
ENDBRANCH  23  24
ENDBRANCH   1  14
TORSDOF 2
ENDMDL
MODEL 6
REMARK VINA RESULT:      -8.0      2.122      5.957
REMARK  2 active torsions:
REMARK  status: ('A' for Active; 'I' for Inactive)
REMARK    1  A    between atoms: C_5  and  C_6 
REMARK    2  A    between atoms: C_17  and  O_18 
ROOT
HETATM    1  C   UNL     1      -4.697   2.286 -31.407  1.00  0.00     0.200 C 
HETATM    2  N   UNL     1      -6.011   1.877 -31.002  1.00  0.00    -0.336 N 
HETATM    3  C   UNL     1      -6.712   0.875 -31.619  1.00  0.00     0.255 C 
HETATM    4  O   UNL     1      -7.923   0.746 -31.465  1.00  0.00    -0.268 OA
HETATM    5  C   UNL     1      -5.940  -0.041 -32.473  1.00  0.00     0.053 A 
HETATM    6  C   UNL     1      -4.554   0.125 -32.512  1.00  0.00     0.026 A 
HETATM    7  N   UNL     1      -3.914   1.090 -31.720  1.00  0.00    -0.267 NA
HETATM    8  C   UNL     1      -6.574  -1.049 -33.206  1.00  0.00     0.019 A 
HETATM    9  C   UNL     1      -5.810  -1.929 -33.969  1.00  0.00     0.001 A 
HETATM   10  C   UNL     1      -4.422  -1.809 -33.981  1.00  0.00     0.002 A 
HETATM   11  C   UNL     1      -3.797  -0.798 -33.243  1.00  0.00     0.024 A 
HETATM   12  H   UNL     1      -6.613   2.589 -30.618  1.00  0.00     0.164 HD
HETATM   13  H   UNL     1      -3.003   1.310 -32.105  1.00  0.00     0.130 HD
ENDROOT
BRANCH   1  14
HETATM   14  C   UNL     1      -4.571   3.353 -32.502  1.00  0.00     0.023 A 
HETATM   15  C   UNL     1      -3.372   4.151 -32.580  1.00  0.00    -0.014 A 
HETATM   16  C   UNL     1      -3.193   5.030 -33.683  1.00  0.00    -0.025 A 
HETATM   17  C   UNL     1      -2.327   4.140 -31.616  1.00  0.00     0.013 A 
HETATM   18  C   UNL     1      -2.012   5.780 -33.822  1.00  0.00     0.012 A 
HETATM   19  C   UNL     1      -4.200   5.169 -34.641  1.00  0.00     0.015 A 
HETATM   20  C   UNL     1      -0.997   5.706 -32.874  1.00  0.00     0.001 A 
HETATM   21  C   UNL     1      -1.160   4.895 -31.763  1.00  0.00     0.001 A 
HETATM   22  C   UNL     1      -5.396   4.473 -34.518  1.00  0.00     0.038 A 
HETATM   23  C   UNL     1      -5.578   3.587 -33.459  1.00  0.00     0.076 A 
BRANCH  23  24
HETATM   24  O   UNL     1      -6.796   2.980 -33.352  1.00  0.00    -0.360 OA
HETATM   25  H   UNL     1      -6.697   2.077 -33.007  1.00  0.00     0.217 HD
ENDBRANCH  23  24
ENDBRANCH   1  14
TORSDOF 2
ENDMDL
MODEL 7
REMARK VINA RESULT:      -8.0     15.784     17.224
REMARK  2 active torsions:
REMARK  status: ('A' for Active; 'I' for Inactive)
REMARK    1  A    between atoms: C_5  and  C_6 
REMARK    2  A    between atoms: C_17  and  O_18 
ROOT
HETATM    1  C   UNL     1      -4.604 -12.164 -39.213  1.00  0.00     0.200 C 
HETATM    2  N   UNL     1      -3.221 -12.484 -39.000  1.00  0.00    -0.336 N 
HETATM    3  C   UNL     1      -2.590 -13.539 -39.604  1.00  0.00     0.255 C 
HETATM    4  O   UNL     1      -1.521 -13.974 -39.187  1.00  0.00    -0.268 OA
HETATM    5  C   UNL     1      -3.258 -14.123 -40.778  1.00  0.00     0.053 A 
HETATM    6  C   UNL     1      -4.421 -13.502 -41.235  1.00  0.00     0.026 A 
HETATM    7  N   UNL     1      -4.905 -12.330 -40.636  1.00  0.00    -0.267 NA
HETATM    8  C   UNL     1      -2.733 -15.250 -41.418  1.00  0.00     0.019 A 
HETATM    9  C   UNL     1      -3.363 -15.751 -42.555  1.00  0.00     0.001 A 
HETATM   10  C   UNL     1      -4.498 -15.114 -43.054  1.00  0.00     0.002 A 
HETATM   11  C   UNL     1      -5.014 -13.987 -42.407  1.00  0.00     0.024 A 
HETATM   12  H   UNL     1      -2.840 -12.275 -38.090  1.00  0.00     0.164 HD
HETATM   13  H   UNL     1      -5.890 -12.212 -40.842  1.00  0.00     0.130 HD
ENDROOT
BRANCH   1  14
HETATM   14  C   UNL     1      -5.654 -12.844 -38.325  1.00  0.00     0.023 A 
HETATM   15  C   UNL     1      -7.033 -12.869 -38.749  1.00  0.00    -0.014 A 
HETATM   16  C   UNL     1      -7.975 -13.629 -38.004  1.00  0.00    -0.025 A 
HETATM   17  C   UNL     1      -7.546 -12.171 -39.876  1.00  0.00     0.013 A 
HETATM   18  C   UNL     1      -9.314 -13.723 -38.420  1.00  0.00     0.012 A 
HETATM   19  C   UNL     1      -7.581 -14.286 -36.836  1.00  0.00     0.015 A 
HETATM   20  C   UNL     1      -9.764 -13.055 -39.555  1.00  0.00     0.001 A 
HETATM   21  C   UNL     1      -8.882 -12.268 -40.277  1.00  0.00     0.001 A 
HETATM   22  C   UNL     1      -6.276 -14.186 -36.373  1.00  0.00     0.038 A 
HETATM   23  C   UNL     1      -5.332 -13.468 -37.104  1.00  0.00     0.076 A 
BRANCH  23  24
HETATM   24  O   UNL     1      -4.082 -13.350 -36.569  1.00  0.00    -0.360 OA
HETATM   25  H   UNL     1      -3.579 -14.172 -36.693  1.00  0.00     0.217 HD
ENDBRANCH  23  24
ENDBRANCH   1  14
TORSDOF 2
ENDMDL
MODEL 8
REMARK VINA RESULT:      -7.8      3.663      5.179
REMARK  2 active torsions:
REMARK  status: ('A' for Active; 'I' for Inactive)
REMARK    1  A    between atoms: C_5  and  C_6 
REMARK    2  A    between atoms: C_17  and  O_18 
ROOT
HETATM    1  C   UNL     1      -9.118   1.118 -31.235  1.00  0.00     0.200 C 
HETATM    2  N   UNL     1      -9.602   2.183 -30.404  1.00  0.00    -0.336 N 
HETATM    3  C   UNL     1      -9.855   3.446 -30.869  1.00  0.00     0.255 C 
HETATM    4  O   UNL     1      -9.970   4.402 -30.108  1.00  0.00    -0.268 OA
HETATM    5  C   UNL     1      -9.984   3.599 -32.327  1.00  0.00     0.053 A 
HETATM    6  C   UNL     1      -9.932   2.442 -33.106  1.00  0.00     0.026 A 
HETATM    7  N   UNL     1      -9.821   1.173 -32.518  1.00  0.00    -0.267 NA
HETATM    8  C   UNL     1     -10.166   4.860 -32.905  1.00  0.00     0.019 A 
HETATM    9  C   UNL     1     -10.331   4.966 -34.285  1.00  0.00     0.001 A 
HETATM   10  C   UNL     1     -10.331   3.816 -35.072  1.00  0.00     0.002 A 
HETATM   11  C   UNL     1     -10.149   2.560 -34.483  1.00  0.00     0.024 A 
HETATM   12  H   UNL     1      -9.308   2.178 -29.440  1.00  0.00     0.164 HD
HETATM   13  H   UNL     1      -9.460   0.506 -33.189  1.00  0.00     0.130 HD
ENDROOT
BRANCH   1  14
HETATM   14  C   UNL     1      -7.602   0.972 -31.422  1.00  0.00     0.023 A 
HETATM   15  C   UNL     1      -7.095   0.134 -32.481  1.00  0.00    -0.014 A 
HETATM   16  C   UNL     1      -5.700   0.119 -32.750  1.00  0.00    -0.025 A 
HETATM   17  C   UNL     1      -7.896  -0.711 -33.298  1.00  0.00     0.013 A 
HETATM   18  C   UNL     1      -5.178  -0.640 -33.810  1.00  0.00     0.012 A 
HETATM   19  C   UNL     1      -4.824   0.857 -31.949  1.00  0.00     0.015 A 
HETATM   20  C   UNL     1      -6.005  -1.422 -34.611  1.00  0.00     0.001 A 
HETATM   21  C   UNL     1      -7.364  -1.467 -34.347  1.00  0.00     0.001 A 
HETATM   22  C   UNL     1      -5.297   1.590 -30.869  1.00  0.00     0.038 A 
HETATM   23  C   UNL     1      -6.665   1.637 -30.608  1.00  0.00     0.076 A 
BRANCH  23  24
HETATM   24  O   UNL     1      -7.067   2.320 -29.497  1.00  0.00    -0.360 OA
HETATM   25  H   UNL     1      -8.019   2.507 -29.539  1.00  0.00     0.217 HD
ENDBRANCH  23  24
ENDBRANCH   1  14
TORSDOF 2
ENDMDL
MODEL 9
REMARK VINA RESULT:      -7.6     15.602     17.414
REMARK  2 active torsions:
REMARK  status: ('A' for Active; 'I' for Inactive)
REMARK    1  A    between atoms: C_5  and  C_6 
REMARK    2  A    between atoms: C_17  and  O_18 
ROOT
HETATM    1  C   UNL     1      -5.046 -12.081 -38.488  1.00  0.00     0.200 C 
HETATM    2  N   UNL     1      -6.472 -12.166 -38.352  1.00  0.00    -0.336 N 
HETATM    3  C   UNL     1      -7.105 -13.156 -37.649  1.00  0.00     0.255 C 
HETATM    4  O   UNL     1      -8.302 -13.386 -37.794  1.00  0.00    -0.268 OA
HETATM    5  C   UNL     1      -6.277 -13.929 -36.709  1.00  0.00     0.053 A 
HETATM    6  C   UNL     1      -4.949 -13.534 -36.541  1.00  0.00     0.026 A 
HETATM    7  N   UNL     1      -4.436 -12.406 -37.198  1.00  0.00    -0.267 NA
HETATM    8  C   UNL     1      -6.812 -15.010 -36.000  1.00  0.00     0.019 A 
HETATM    9  C   UNL     1      -6.016 -15.692 -35.083  1.00  0.00     0.001 A 
HETATM   10  C   UNL     1      -4.702 -15.281 -34.867  1.00  0.00     0.002 A 
HETATM   11  C   UNL     1      -4.177 -14.198 -35.580  1.00  0.00     0.024 A 
HETATM   12  H   UNL     1      -7.024 -11.828 -39.125  1.00  0.00     0.164 HD
HETATM   13  H   UNL     1      -3.426 -12.459 -37.247  1.00  0.00     0.130 HD
ENDROOT
BRANCH   1  14
HETATM   14  C   UNL     1      -4.378 -12.841 -39.642  1.00  0.00     0.023 A 
HETATM   15  C   UNL     1      -2.994 -13.231 -39.527  1.00  0.00    -0.014 A 
HETATM   16  C   UNL     1      -2.421 -14.065 -40.526  1.00  0.00    -0.025 A 
HETATM   17  C   UNL     1      -2.125 -12.834 -38.474  1.00  0.00     0.013 A 
HETATM   18  C   UNL     1      -1.093 -14.511 -40.416  1.00  0.00     0.012 A 
HETATM   19  C   UNL     1      -3.173 -14.443 -41.640  1.00  0.00     0.015 A 
HETATM   20  C   UNL     1      -0.291 -14.130 -39.346  1.00  0.00     0.001 A 
HETATM   21  C   UNL     1      -0.804 -13.280 -38.379  1.00  0.00     0.001 A 
HETATM   22  C   UNL     1      -4.476 -13.992 -41.802  1.00  0.00     0.038 A 
HETATM   23  C   UNL     1      -5.063 -13.196 -40.820  1.00  0.00     0.076 A 
BRANCH  23  24
HETATM   24  O   UNL     1      -6.322 -12.729 -41.062  1.00  0.00    -0.360 OA
HETATM   25  H   UNL     1      -6.958 -13.128 -40.444  1.00  0.00     0.217 HD
ENDBRANCH  23  24
ENDBRANCH   1  14
TORSDOF 2
ENDMDL
MODEL 10
REMARK VINA RESULT:      -7.6      4.124      6.174
REMARK  2 active torsions:
REMARK  status: ('A' for Active; 'I' for Inactive)
REMARK    1  A    between atoms: C_5  and  C_6 
REMARK    2  A    between atoms: C_17  and  O_18 
ROOT
HETATM    1  C   UNL     1      -8.389   1.605 -32.378  1.00  0.00     0.200 C 
HETATM    2  N   UNL     1      -8.425   2.980 -32.791  1.00  0.00    -0.336 N 
HETATM    3  C   UNL     1      -9.297   3.461 -33.731  1.00  0.00     0.255 C 
HETATM    4  O   UNL     1      -9.116   4.542 -34.284  1.00  0.00    -0.268 OA
HETATM    5  C   UNL     1     -10.462   2.618 -34.044  1.00  0.00     0.053 A 
HETATM    6  C   UNL     1     -10.635   1.452 -33.297  1.00  0.00     0.026 A 
HETATM    7  N   UNL     1      -9.765   1.123 -32.247  1.00  0.00    -0.267 NA
HETATM    8  C   UNL     1     -11.368   2.986 -35.044  1.00  0.00     0.019 A 
HETATM    9  C   UNL     1     -12.487   2.191 -35.284  1.00  0.00     0.001 A 
HETATM   10  C   UNL     1     -12.701   1.048 -34.515  1.00  0.00     0.002 A 
HETATM   11  C   UNL     1     -11.789   0.690 -33.517  1.00  0.00     0.024 A 
HETATM   12  H   UNL     1      -7.551   3.481 -32.781  1.00  0.00     0.164 HD
HETATM   13  H   UNL     1      -9.813   0.130 -32.051  1.00  0.00     0.130 HD
ENDROOT
BRANCH   1  14
HETATM   14  C   UNL     1      -7.516   0.628 -33.176  1.00  0.00     0.023 A 
HETATM   15  C   UNL     1      -6.287   0.141 -32.599  1.00  0.00    -0.014 A 
HETATM   16  C   UNL     1      -5.558  -0.877 -33.271  1.00  0.00    -0.025 A 
HETATM   17  C   UNL     1      -5.721   0.613 -31.383  1.00  0.00     0.013 A 
HETATM   18  C   UNL     1      -4.388  -1.416 -32.710  1.00  0.00     0.012 A 
HETATM   19  C   UNL     1      -5.994  -1.349 -34.512  1.00  0.00     0.015 A 
HETATM   20  C   UNL     1      -3.892  -0.952 -31.496  1.00  0.00     0.001 A 
HETATM   21  C   UNL     1      -4.553   0.073 -30.837  1.00  0.00     0.001 A 
HETATM   22  C   UNL     1      -7.125  -0.815 -35.116  1.00  0.00     0.038 A 
HETATM   23  C   UNL     1      -7.867   0.164 -34.459  1.00  0.00     0.076 A 
BRANCH  23  24
HETATM   24  O   UNL     1      -8.930   0.697 -35.127  1.00  0.00    -0.360 OA
HETATM   25  H   UNL     1      -9.116   1.596 -34.809  1.00  0.00     0.217 HD
ENDBRANCH  23  24
ENDBRANCH   1  14
TORSDOF 2
ENDMDL
