MODEL 1
REMARK VINA RESULT:      -8.3      0.000      0.000
REMARK  6 active torsions:
REMARK  status: ('A' for Active; 'I' for Inactive)
REMARK    1  A    between atoms: C_2  and  O_3 
REMARK    2  A    between atoms: O_3  and  C_4 
REMARK    3  A    between atoms: C_7  and  N_8 
REMARK    4  A    between atoms: N_8  and  C_9 
REMARK    5  A    between atoms: C_9  and  C_10 
REMARK    6  A    between atoms: C_18  and  O_19 
ROOT
HETATM    1  C   UNL     1      -4.180   0.177 -32.656  1.00  0.00     0.024 A 
HETATM    2  C   UNL     1      -3.155  -0.294 -31.671  1.00  0.00     0.253 A 
HETATM    3  O   UNL     1      -2.601   0.483 -30.898  1.00  0.00    -0.268 OA
HETATM    4  N   UNL     1      -2.857  -1.631 -31.662  1.00  0.00    -0.322 N 
HETATM    5  C   UNL     1      -3.456  -2.566 -32.510  1.00  0.00     0.045 A 
HETATM    6  C   UNL     1      -4.403  -2.131 -33.440  1.00  0.00    -0.006 A 
HETATM    7  C   UNL     1      -3.116  -3.914 -32.420  1.00  0.00     0.033 A 
HETATM    8  C   UNL     1      -3.739  -4.844 -33.259  1.00  0.00     0.039 A 
HETATM    9  C   UNL     1      -4.697  -4.424 -34.186  1.00  0.00     0.069 A 
HETATM   10  C   UNL     1      -5.017  -3.065 -34.279  1.00  0.00     0.050 A 
HETATM   11  C   UNL     1      -4.740  -0.710 -33.500  1.00  0.00     0.027 A 
HETATM   12  H   UNL     1      -2.164  -1.923 -30.985  1.00  0.00     0.169 HD
ENDROOT
BRANCH   1  13
HETATM   13  C   UNL     1      -4.465   1.656 -32.576  1.00  0.00     0.136 C 
BRANCH  13  14
HETATM   14  N   UNL     1      -5.617   1.925 -31.714  1.00  0.00    -0.289 NA
HETATM   15  H   UNL     1      -5.573   2.849 -31.291  1.00  0.00     0.128 HD
BRANCH  14  16
HETATM   16  C   UNL     1      -6.914   1.683 -32.179  1.00  0.00     0.008 A 
HETATM   17  C   UNL     1      -7.709   0.778 -31.459  1.00  0.00     0.026 A 
HETATM   18  C   UNL     1      -9.000   0.434 -31.879  1.00  0.00     0.038 A 
HETATM   19  C   UNL     1      -9.521   0.984 -33.045  1.00  0.00     0.068 A 
HETATM   20  C   UNL     1      -8.732   1.861 -33.788  1.00  0.00     0.038 A 
HETATM   21  C   UNL     1      -7.435   2.192 -33.371  1.00  0.00     0.026 A 
BRANCH  19  22
HETATM   22  O   UNL     1     -10.765   0.748 -33.562  1.00  0.00    -0.352 OA
BRANCH  22  23
HETATM   23  C   UNL     1     -11.539   1.888 -33.931  1.00  0.00     0.171 C 
HETATM   24  C   UNL     1     -12.465   1.481 -35.063  1.00  0.00     0.034 C 
ENDBRANCH  22  23
ENDBRANCH  19  22
ENDBRANCH  14  16
ENDBRANCH  13  14
ENDBRANCH   1  13
BRANCH   9  25
HETATM   25  O   UNL     1      -5.382  -5.231 -35.052  1.00  0.00    -0.356 OA
HETATM   26  C   UNL     1      -6.559  -4.690 -35.641  1.00  0.00     0.210 C 
ENDBRANCH   9  25
TORSDOF 6
ENDMDL
MODEL 2
REMARK VINA RESULT:      -7.6      3.473      5.808
REMARK  6 active torsions:
REMARK  status: ('A' for Active; 'I' for Inactive)
REMARK    1  A    between atoms: C_2  and  O_3 
REMARK    2  A    between atoms: O_3  and  C_4 
REMARK    3  A    between atoms: C_7  and  N_8 
REMARK    4  A    between atoms: N_8  and  C_9 
REMARK    5  A    between atoms: C_9  and  C_10 
REMARK    6  A    between atoms: C_18  and  O_19 
ROOT
HETATM    1  C   UNL     1      -4.157   0.206 -32.522  1.00  0.00     0.024 A 
HETATM    2  C   UNL     1      -3.115  -0.293 -31.568  1.00  0.00     0.253 A 
HETATM    3  O   UNL     1      -2.553   0.462 -30.779  1.00  0.00    -0.268 OA
HETATM    4  N   UNL     1      -2.811  -1.628 -31.607  1.00  0.00    -0.322 N 
HETATM    5  C   UNL     1      -3.419  -2.537 -32.477  1.00  0.00     0.045 A 
HETATM    6  C   UNL     1      -4.382  -2.077 -33.378  1.00  0.00    -0.006 A 
HETATM    7  C   UNL     1      -3.072  -3.886 -32.436  1.00  0.00     0.033 A 
HETATM    8  C   UNL     1      -3.703  -4.791 -33.296  1.00  0.00     0.039 A 
HETATM    9  C   UNL     1      -4.677  -4.345 -34.194  1.00  0.00     0.069 A 
HETATM   10  C   UNL     1      -5.004  -2.986 -34.238  1.00  0.00     0.050 A 
HETATM   11  C   UNL     1      -4.726  -0.656 -33.386  1.00  0.00     0.027 A 
HETATM   12  H   UNL     1      -2.107  -1.938 -30.951  1.00  0.00     0.169 HD
ENDROOT
BRANCH   1  13
HETATM   13  C   UNL     1      -4.447   1.680 -32.390  1.00  0.00     0.136 C 
BRANCH  13  14
HETATM   14  N   UNL     1      -3.311   2.484 -32.841  1.00  0.00    -0.289 NA
HETATM   15  H   UNL     1      -3.243   2.520 -33.855  1.00  0.00     0.128 HD
BRANCH  14  16
HETATM   16  C   UNL     1      -3.101   3.762 -32.311  1.00  0.00     0.008 A 
HETATM   17  C   UNL     1      -1.948   4.455 -32.711  1.00  0.00     0.026 A 
HETATM   18  C   UNL     1      -1.628   5.716 -32.192  1.00  0.00     0.038 A 
HETATM   19  C   UNL     1      -2.457   6.309 -31.245  1.00  0.00     0.068 A 
HETATM   20  C   UNL     1      -3.589   5.619 -30.815  1.00  0.00     0.038 A 
HETATM   21  C   UNL     1      -3.898   4.351 -31.327  1.00  0.00     0.026 A 
BRANCH  19  22
HETATM   22  O   UNL     1      -2.274   7.535 -30.668  1.00  0.00    -0.352 OA
BRANCH  22  23
HETATM   23  C   UNL     1      -1.137   7.687 -29.821  1.00  0.00     0.171 C 
HETATM   24  C   UNL     1      -1.379   8.884 -28.919  1.00  0.00     0.034 C 
ENDBRANCH  22  23
ENDBRANCH  19  22
ENDBRANCH  14  16
ENDBRANCH  13  14
ENDBRANCH   1  13
BRANCH   9  25
HETATM   25  O   UNL     1      -5.372  -5.127 -35.075  1.00  0.00    -0.356 OA
HETATM   26  C   UNL     1      -6.628  -4.632 -35.521  1.00  0.00     0.210 C 
ENDBRANCH   9  25
TORSDOF 6
ENDMDL
MODEL 3
REMARK VINA RESULT:      -7.6      2.828      5.567
REMARK  6 active torsions:
REMARK  status: ('A' for Active; 'I' for Inactive)
REMARK    1  A    between atoms: C_2  and  O_3 
REMARK    2  A    between atoms: O_3  and  C_4 
REMARK    3  A    between atoms: C_7  and  N_8 
REMARK    4  A    between atoms: N_8  and  C_9 
REMARK    5  A    between atoms: C_9  and  C_10 
REMARK    6  A    between atoms: C_18  and  O_19 
ROOT
HETATM    1  C   UNL     1      -6.388   0.829 -31.330  1.00  0.00     0.024 A 
HETATM    2  C   UNL     1      -7.686   0.814 -32.077  1.00  0.00     0.253 A 
HETATM    3  O   UNL     1      -8.595   1.592 -31.802  1.00  0.00    -0.268 OA
HETATM    4  N   UNL     1      -7.823  -0.104 -33.085  1.00  0.00    -0.322 N 
HETATM    5  C   UNL     1      -6.825  -1.010 -33.451  1.00  0.00     0.045 A 
HETATM    6  C   UNL     1      -5.617  -1.011 -32.749  1.00  0.00    -0.006 A 
HETATM    7  C   UNL     1      -7.033  -1.895 -34.506  1.00  0.00     0.033 A 
HETATM    8  C   UNL     1      -6.018  -2.784 -34.877  1.00  0.00     0.039 A 
HETATM    9  C   UNL     1      -4.801  -2.786 -34.192  1.00  0.00     0.069 A 
HETATM   10  C   UNL     1      -4.609  -1.905 -33.122  1.00  0.00     0.050 A 
HETATM   11  C   UNL     1      -5.431  -0.062 -31.653  1.00  0.00     0.027 A 
HETATM   12  H   UNL     1      -8.708  -0.090 -33.575  1.00  0.00     0.169 HD
ENDROOT
BRANCH   1  13
HETATM   13  C   UNL     1      -6.315   1.888 -30.259  1.00  0.00     0.136 C 
BRANCH  13  14
HETATM   14  N   UNL     1      -6.251   3.228 -30.844  1.00  0.00    -0.289 NA
HETATM   15  H   UNL     1      -6.486   3.953 -30.171  1.00  0.00     0.128 HD
BRANCH  14  16
HETATM   16  C   UNL     1      -5.128   3.618 -31.582  1.00  0.00     0.008 A 
HETATM   17  C   UNL     1      -5.340   4.164 -32.857  1.00  0.00     0.026 A 
HETATM   18  C   UNL     1      -4.275   4.534 -33.688  1.00  0.00     0.038 A 
HETATM   19  C   UNL     1      -2.964   4.350 -33.261  1.00  0.00     0.068 A 
HETATM   20  C   UNL     1      -2.737   3.780 -32.010  1.00  0.00     0.038 A 
HETATM   21  C   UNL     1      -3.806   3.398 -31.187  1.00  0.00     0.026 A 
BRANCH  19  22
HETATM   22  O   UNL     1      -1.835   4.677 -33.961  1.00  0.00    -0.352 OA
BRANCH  22  23
HETATM   23  C   UNL     1      -1.755   6.005 -34.474  1.00  0.00     0.171 C 
HETATM   24  C   UNL     1      -1.113   6.881 -33.413  1.00  0.00     0.034 C 
ENDBRANCH  22  23
ENDBRANCH  19  22
ENDBRANCH  14  16
ENDBRANCH  13  14
ENDBRANCH   1  13
BRANCH   9  25
HETATM   25  O   UNL     1      -3.730  -3.593 -34.462  1.00  0.00    -0.356 OA
HETATM   26  C   UNL     1      -3.623  -4.794 -33.708  1.00  0.00     0.210 C 
ENDBRANCH   9  25
TORSDOF 6
ENDMDL
MODEL 4
REMARK VINA RESULT:      -7.6      3.452      7.226
REMARK  6 active torsions:
REMARK  status: ('A' for Active; 'I' for Inactive)
REMARK    1  A    between atoms: C_2  and  O_3 
REMARK    2  A    between atoms: O_3  and  C_4 
REMARK    3  A    between atoms: C_7  and  N_8 
REMARK    4  A    between atoms: N_8  and  C_9 
REMARK    5  A    between atoms: C_9  and  C_10 
REMARK    6  A    between atoms: C_18  and  O_19 
ROOT
HETATM    1  C   UNL     1      -5.930   3.909 -32.530  1.00  0.00     0.024 A 
HETATM    2  C   UNL     1      -6.042   4.830 -33.706  1.00  0.00     0.253 A 
HETATM    3  O   UNL     1      -7.113   5.011 -34.280  1.00  0.00    -0.268 OA
HETATM    4  N   UNL     1      -4.902   5.467 -34.121  1.00  0.00    -0.322 N 
HETATM    5  C   UNL     1      -3.657   5.307 -33.506  1.00  0.00     0.045 A 
HETATM    6  C   UNL     1      -3.543   4.440 -32.417  1.00  0.00    -0.006 A 
HETATM    7  C   UNL     1      -2.550   6.012 -33.972  1.00  0.00     0.033 A 
HETATM    8  C   UNL     1      -1.314   5.861 -33.335  1.00  0.00     0.039 A 
HETATM    9  C   UNL     1      -1.188   5.007 -32.237  1.00  0.00     0.069 A 
HETATM   10  C   UNL     1      -2.303   4.290 -31.789  1.00  0.00     0.050 A 
HETATM   11  C   UNL     1      -4.729   3.723 -31.951  1.00  0.00     0.027 A 
HETATM   12  H   UNL     1      -5.007   6.085 -34.914  1.00  0.00     0.169 HD
ENDROOT
BRANCH   1  13
HETATM   13  C   UNL     1      -7.237   3.274 -32.127  1.00  0.00     0.136 C 
BRANCH  13  14
HETATM   14  N   UNL     1      -7.789   2.467 -33.216  1.00  0.00    -0.289 NA
HETATM   15  H   UNL     1      -7.855   2.989 -34.087  1.00  0.00     0.128 HD
BRANCH  14  16
HETATM   16  C   UNL     1      -7.279   1.189 -33.472  1.00  0.00     0.008 A 
HETATM   17  C   UNL     1      -7.497   0.640 -34.744  1.00  0.00     0.026 A 
HETATM   18  C   UNL     1      -7.069  -0.653 -35.073  1.00  0.00     0.038 A 
HETATM   19  C   UNL     1      -6.420  -1.433 -34.122  1.00  0.00     0.068 A 
HETATM   20  C   UNL     1      -6.224  -0.913 -32.844  1.00  0.00     0.038 A 
HETATM   21  C   UNL     1      -6.666   0.377 -32.515  1.00  0.00     0.026 A 
BRANCH  19  22
HETATM   22  O   UNL     1      -5.940  -2.700 -34.309  1.00  0.00    -0.352 OA
BRANCH  22  23
HETATM   23  C   UNL     1      -6.902  -3.730 -34.525  1.00  0.00     0.171 C 
HETATM   24  C   UNL     1      -6.355  -4.669 -35.586  1.00  0.00     0.034 C 
ENDBRANCH  22  23
ENDBRANCH  19  22
ENDBRANCH  14  16
ENDBRANCH  13  14
ENDBRANCH   1  13
BRANCH   9  25
HETATM   25  O   UNL     1      -0.043   4.781 -31.524  1.00  0.00    -0.356 OA
HETATM   26  C   UNL     1       0.002   5.294 -30.198  1.00  0.00     0.210 C 
ENDBRANCH   9  25
TORSDOF 6
ENDMDL
MODEL 5
REMARK VINA RESULT:      -7.4      2.646      4.285
REMARK  6 active torsions:
REMARK  status: ('A' for Active; 'I' for Inactive)
REMARK    1  A    between atoms: C_2  and  O_3 
REMARK    2  A    between atoms: O_3  and  C_4 
REMARK    3  A    between atoms: C_7  and  N_8 
REMARK    4  A    between atoms: N_8  and  C_9 
REMARK    5  A    between atoms: C_9  and  C_10 
REMARK    6  A    between atoms: C_18  and  O_19 
ROOT
HETATM    1  C   UNL     1      -7.925   1.809 -33.886  1.00  0.00     0.024 A 
HETATM    2  C   UNL     1      -6.633   2.277 -33.292  1.00  0.00     0.253 A 
HETATM    3  O   UNL     1      -6.495   3.424 -32.875  1.00  0.00    -0.268 OA
HETATM    4  N   UNL     1      -5.604   1.374 -33.230  1.00  0.00    -0.322 N 
HETATM    5  C   UNL     1      -5.701   0.055 -33.681  1.00  0.00     0.045 A 
HETATM    6  C   UNL     1      -6.899  -0.383 -34.248  1.00  0.00    -0.006 A 
HETATM    7  C   UNL     1      -4.615  -0.809 -33.558  1.00  0.00     0.033 A 
HETATM    8  C   UNL     1      -4.731  -2.134 -33.993  1.00  0.00     0.039 A 
HETATM    9  C   UNL     1      -5.928  -2.589 -34.551  1.00  0.00     0.069 A 
HETATM   10  C   UNL     1      -7.005  -1.707 -34.686  1.00  0.00     0.050 A 
HETATM   11  C   UNL     1      -8.019   0.550 -34.354  1.00  0.00     0.027 A 
HETATM   12  H   UNL     1      -4.744   1.715 -32.821  1.00  0.00     0.169 HD
ENDROOT
BRANCH   1  13
HETATM   13  C   UNL     1      -9.009   2.859 -33.889  1.00  0.00     0.136 C 
BRANCH  13  14
HETATM   14  N   UNL     1     -10.077   2.512 -34.827  1.00  0.00    -0.289 NA
HETATM   15  H   UNL     1      -9.799   1.776 -35.472  1.00  0.00     0.128 HD
BRANCH  14  16
HETATM   16  C   UNL     1     -11.370   2.259 -34.355  1.00  0.00     0.008 A 
HETATM   17  C   UNL     1     -12.155   1.334 -35.061  1.00  0.00     0.026 A 
HETATM   18  C   UNL     1     -13.478   1.057 -34.694  1.00  0.00     0.038 A 
HETATM   19  C   UNL     1     -14.051   1.716 -33.611  1.00  0.00     0.068 A 
HETATM   20  C   UNL     1     -13.295   2.660 -32.920  1.00  0.00     0.038 A 
HETATM   21  C   UNL     1     -11.975   2.944 -33.299  1.00  0.00     0.026 A 
BRANCH  19  22
HETATM   22  O   UNL     1     -15.321   1.534 -33.137  1.00  0.00    -0.352 OA
BRANCH  22  23
HETATM   23  C   UNL     1     -15.678   2.246 -31.954  1.00  0.00     0.171 C 
HETATM   24  C   UNL     1     -17.128   2.676 -32.083  1.00  0.00     0.034 C 
ENDBRANCH  22  23
ENDBRANCH  19  22
ENDBRANCH  14  16
ENDBRANCH  13  14
ENDBRANCH   1  13
BRANCH   9  25
HETATM   25  O   UNL     1      -6.171  -3.857 -35.003  1.00  0.00    -0.356 OA
HETATM   26  C   UNL     1      -5.262  -4.871 -34.592  1.00  0.00     0.210 C 
ENDBRANCH   9  25
TORSDOF 6
ENDMDL
MODEL 6
REMARK VINA RESULT:      -7.4      3.652      5.943
REMARK  6 active torsions:
REMARK  status: ('A' for Active; 'I' for Inactive)
REMARK    1  A    between atoms: C_2  and  O_3 
REMARK    2  A    between atoms: O_3  and  C_4 
REMARK    3  A    between atoms: C_7  and  N_8 
REMARK    4  A    between atoms: N_8  and  C_9 
REMARK    5  A    between atoms: C_9  and  C_10 
REMARK    6  A    between atoms: C_18  and  O_19 
ROOT
HETATM    1  C   UNL     1      -6.107   2.174 -33.144  1.00  0.00     0.024 A 
HETATM    2  C   UNL     1      -4.912   1.997 -32.259  1.00  0.00     0.253 A 
HETATM    3  O   UNL     1      -4.505   2.906 -31.539  1.00  0.00    -0.268 OA
HETATM    4  N   UNL     1      -4.285   0.779 -32.279  1.00  0.00    -0.322 N 
HETATM    5  C   UNL     1      -4.704  -0.295 -33.069  1.00  0.00     0.045 A 
HETATM    6  C   UNL     1      -5.809  -0.133 -33.907  1.00  0.00    -0.006 A 
HETATM    7  C   UNL     1      -4.027  -1.511 -33.013  1.00  0.00     0.033 A 
HETATM    8  C   UNL     1      -4.468  -2.587 -33.792  1.00  0.00     0.039 A 
HETATM    9  C   UNL     1      -5.580  -2.442 -34.625  1.00  0.00     0.069 A 
HETATM   10  C   UNL     1      -6.240  -1.210 -34.687  1.00  0.00     0.050 A 
HETATM   11  C   UNL     1      -6.498   1.156 -33.933  1.00  0.00     0.027 A 
HETATM   12  H   UNL     1      -3.484   0.686 -31.670  1.00  0.00     0.169 HD
ENDROOT
BRANCH   1  13
HETATM   13  C   UNL     1      -6.748   3.535 -33.036  1.00  0.00     0.136 C 
BRANCH  13  14
HETATM   14  N   UNL     1      -6.332   4.403 -34.139  1.00  0.00    -0.289 NA
HETATM   15  H   UNL     1      -7.085   5.007 -34.458  1.00  0.00     0.128 HD
BRANCH  14  16
HETATM   16  C   UNL     1      -5.146   5.140 -34.043  1.00  0.00     0.008 A 
HETATM   17  C   UNL     1      -4.159   4.919 -35.016  1.00  0.00     0.026 A 
HETATM   18  C   UNL     1      -2.921   5.572 -34.971  1.00  0.00     0.038 A 
HETATM   19  C   UNL     1      -2.638   6.457 -33.935  1.00  0.00     0.068 A 
HETATM   20  C   UNL     1      -3.597   6.662 -32.945  1.00  0.00     0.038 A 
HETATM   21  C   UNL     1      -4.830   5.996 -32.986  1.00  0.00     0.026 A 
BRANCH  19  22
HETATM   22  O   UNL     1      -1.481   7.168 -33.776  1.00  0.00    -0.352 OA
BRANCH  22  23
HETATM   23  C   UNL     1      -1.215   7.685 -32.474  1.00  0.00     0.171 C 
HETATM   24  C   UNL     1      -0.150   6.814 -31.831  1.00  0.00     0.034 C 
ENDBRANCH  22  23
ENDBRANCH  19  22
ENDBRANCH  14  16
ENDBRANCH  13  14
ENDBRANCH   1  13
BRANCH   9  25
HETATM   25  O   UNL     1      -6.115  -3.414 -35.425  1.00  0.00    -0.356 OA
HETATM   26  C   UNL     1      -5.998  -4.757 -34.971  1.00  0.00     0.210 C 
ENDBRANCH   9  25
TORSDOF 6
ENDMDL
MODEL 7
REMARK VINA RESULT:      -7.2      2.229      7.359
REMARK  6 active torsions:
REMARK  status: ('A' for Active; 'I' for Inactive)
REMARK    1  A    between atoms: C_2  and  O_3 
REMARK    2  A    between atoms: O_3  and  C_4 
REMARK    3  A    between atoms: C_7  and  N_8 
REMARK    4  A    between atoms: N_8  and  C_9 
REMARK    5  A    between atoms: C_9  and  C_10 
REMARK    6  A    between atoms: C_18  and  O_19 
ROOT
HETATM    1  C   UNL     1      -8.431   2.781 -32.530  1.00  0.00     0.024 A 
HETATM    2  C   UNL     1      -8.206   3.982 -33.395  1.00  0.00     0.253 A 
HETATM    3  O   UNL     1      -7.199   4.678 -33.281  1.00  0.00    -0.268 OA
HETATM    4  N   UNL     1      -9.166   4.279 -34.326  1.00  0.00    -0.322 N 
HETATM    5  C   UNL     1     -10.328   3.524 -34.509  1.00  0.00     0.045 A 
HETATM    6  C   UNL     1     -10.551   2.411 -33.696  1.00  0.00    -0.006 A 
HETATM    7  C   UNL     1     -11.245   3.878 -35.496  1.00  0.00     0.033 A 
HETATM    8  C   UNL     1     -12.394   3.102 -35.685  1.00  0.00     0.039 A 
HETATM    9  C   UNL     1     -12.623   1.978 -34.887  1.00  0.00     0.069 A 
HETATM   10  C   UNL     1     -11.704   1.644 -33.887  1.00  0.00     0.050 A 
HETATM   11  C   UNL     1      -9.562   2.066 -32.676  1.00  0.00     0.027 A 
HETATM   12  H   UNL     1      -8.988   5.093 -34.899  1.00  0.00     0.169 HD
ENDROOT
BRANCH   1  13
HETATM   13  C   UNL     1      -7.311   2.515 -31.555  1.00  0.00     0.136 C 
BRANCH  13  14
HETATM   14  N   UNL     1      -6.063   2.208 -32.256  1.00  0.00    -0.289 NA
HETATM   15  H   UNL     1      -5.247   2.563 -31.763  1.00  0.00     0.128 HD
BRANCH  14  16
HETATM   16  C   UNL     1      -5.812   0.907 -32.704  1.00  0.00     0.008 A 
HETATM   17  C   UNL     1      -4.941   0.110 -31.945  1.00  0.00     0.026 A 
HETATM   18  C   UNL     1      -4.590  -1.186 -32.344  1.00  0.00     0.038 A 
HETATM   19  C   UNL     1      -5.097  -1.710 -33.528  1.00  0.00     0.068 A 
HETATM   20  C   UNL     1      -5.938  -0.920 -34.309  1.00  0.00     0.038 A 
HETATM   21  C   UNL     1      -6.276   0.382 -33.912  1.00  0.00     0.026 A 
BRANCH  19  22
HETATM   22  O   UNL     1      -4.849  -2.959 -34.028  1.00  0.00    -0.352 OA
BRANCH  22  23
HETATM   23  C   UNL     1      -5.491  -3.302 -35.254  1.00  0.00     0.171 C 
HETATM   24  C   UNL     1      -6.357  -4.525 -35.006  1.00  0.00     0.034 C 
ENDBRANCH  22  23
ENDBRANCH  19  22
ENDBRANCH  14  16
ENDBRANCH  13  14
ENDBRANCH   1  13
BRANCH   9  25
HETATM   25  O   UNL     1     -13.696   1.135 -34.978  1.00  0.00    -0.356 OA
HETATM   26  C   UNL     1     -13.980   0.330 -33.841  1.00  0.00     0.210 C 
ENDBRANCH   9  25
TORSDOF 6
ENDMDL
MODEL 8
REMARK VINA RESULT:      -7.1      4.222      6.980
REMARK  6 active torsions:
REMARK  status: ('A' for Active; 'I' for Inactive)
REMARK    1  A    between atoms: C_2  and  O_3 
REMARK    2  A    between atoms: O_3  and  C_4 
REMARK    3  A    between atoms: C_7  and  N_8 
REMARK    4  A    between atoms: N_8  and  C_9 
REMARK    5  A    between atoms: C_9  and  C_10 
REMARK    6  A    between atoms: C_18  and  O_19 
ROOT
HETATM    1  C   UNL     1      -4.755   1.498 -32.243  1.00  0.00     0.024 A 
HETATM    2  C   UNL     1      -6.028   1.810 -32.966  1.00  0.00     0.253 A 
HETATM    3  O   UNL     1      -6.576   2.904 -32.860  1.00  0.00    -0.268 OA
HETATM    4  N   UNL     1      -6.564   0.826 -33.755  1.00  0.00    -0.322 N 
HETATM    5  C   UNL     1      -5.985  -0.435 -33.922  1.00  0.00     0.045 A 
HETATM    6  C   UNL     1      -4.804  -0.737 -33.240  1.00  0.00    -0.006 A 
HETATM    7  C   UNL     1      -6.579  -1.373 -34.764  1.00  0.00     0.033 A 
HETATM    8  C   UNL     1      -5.979  -2.624 -34.940  1.00  0.00     0.039 A 
HETATM    9  C   UNL     1      -4.791  -2.935 -34.274  1.00  0.00     0.069 A 
HETATM   10  C   UNL     1      -4.214  -1.992 -33.417  1.00  0.00     0.050 A 
HETATM   11  C   UNL     1      -4.206   0.275 -32.371  1.00  0.00     0.027 A 
HETATM   12  H   UNL     1      -7.422   1.064 -34.234  1.00  0.00     0.169 HD
ENDROOT
BRANCH   1  13
HETATM   13  C   UNL     1      -4.224   2.646 -31.422  1.00  0.00     0.136 C 
BRANCH  13  14
HETATM   14  N   UNL     1      -3.675   3.699 -32.278  1.00  0.00    -0.289 NA
HETATM   15  H   UNL     1      -4.395   4.160 -32.829  1.00  0.00     0.128 HD
BRANCH  14  16
HETATM   16  C   UNL     1      -2.806   4.656 -31.744  1.00  0.00     0.008 A 
HETATM   17  C   UNL     1      -3.343   5.613 -30.870  1.00  0.00     0.026 A 
HETATM   18  C   UNL     1      -2.560   6.640 -30.329  1.00  0.00     0.038 A 
HETATM   19  C   UNL     1      -1.214   6.738 -30.664  1.00  0.00     0.068 A 
HETATM   20  C   UNL     1      -0.673   5.813 -31.556  1.00  0.00     0.038 A 
HETATM   21  C   UNL     1      -1.464   4.795 -32.106  1.00  0.00     0.026 A 
BRANCH  19  22
HETATM   22  O   UNL     1      -0.334   7.678 -30.202  1.00  0.00    -0.352 OA
BRANCH  22  23
HETATM   23  C   UNL     1      -0.377   7.972 -28.808  1.00  0.00     0.171 C 
HETATM   24  C   UNL     1       1.049   8.006 -28.289  1.00  0.00     0.034 C 
ENDBRANCH  22  23
ENDBRANCH  19  22
ENDBRANCH  14  16
ENDBRANCH  13  14
ENDBRANCH   1  13
BRANCH   9  25
HETATM   25  O   UNL     1      -4.103  -4.113 -34.369  1.00  0.00    -0.356 OA
HETATM   26  C   UNL     1      -3.486  -4.596 -33.182  1.00  0.00     0.210 C 
ENDBRANCH   9  25
TORSDOF 6
ENDMDL
MODEL 9
REMARK VINA RESULT:      -6.9      3.481      6.305
REMARK  6 active torsions:
REMARK  status: ('A' for Active; 'I' for Inactive)
REMARK    1  A    between atoms: C_2  and  O_3 
REMARK    2  A    between atoms: O_3  and  C_4 
REMARK    3  A    between atoms: C_7  and  N_8 
REMARK    4  A    between atoms: N_8  and  C_9 
REMARK    5  A    between atoms: C_9  and  C_10 
REMARK    6  A    between atoms: C_18  and  O_19 
ROOT
HETATM    1  C   UNL     1      -6.211   0.902 -31.538  1.00  0.00     0.024 A 
HETATM    2  C   UNL     1      -7.538   0.858 -32.230  1.00  0.00     0.253 A 
HETATM    3  O   UNL     1      -8.427   1.664 -31.967  1.00  0.00    -0.268 OA
HETATM    4  N   UNL     1      -7.727  -0.117 -33.173  1.00  0.00    -0.322 N 
HETATM    5  C   UNL     1      -6.753  -1.058 -33.521  1.00  0.00     0.045 A 
HETATM    6  C   UNL     1      -5.518  -1.032 -32.870  1.00  0.00    -0.006 A 
HETATM    7  C   UNL     1      -7.015  -2.004 -34.510  1.00  0.00     0.033 A 
HETATM    8  C   UNL     1      -6.025  -2.926 -34.866  1.00  0.00     0.039 A 
HETATM    9  C   UNL     1      -4.781  -2.903 -34.231  1.00  0.00     0.069 A 
HETATM   10  C   UNL     1      -4.537  -1.961 -33.226  1.00  0.00     0.050 A 
HETATM   11  C   UNL     1      -5.278  -0.020 -31.842  1.00  0.00     0.027 A 
HETATM   12  H   UNL     1      -8.630  -0.122 -33.627  1.00  0.00     0.169 HD
ENDROOT
BRANCH   1  13
HETATM   13  C   UNL     1      -6.083   2.023 -30.537  1.00  0.00     0.136 C 
BRANCH  13  14
HETATM   14  N   UNL     1      -5.959   3.318 -31.209  1.00  0.00    -0.289 NA
HETATM   15  H   UNL     1      -6.761   3.919 -31.038  1.00  0.00     0.128 HD
BRANCH  14  16
HETATM   16  C   UNL     1      -4.780   4.062 -31.086  1.00  0.00     0.008 A 
HETATM   17  C   UNL     1      -4.874   5.351 -30.541  1.00  0.00     0.026 A 
HETATM   18  C   UNL     1      -3.756   6.188 -30.427  1.00  0.00     0.038 A 
HETATM   19  C   UNL     1      -2.513   5.751 -30.874  1.00  0.00     0.068 A 
HETATM   20  C   UNL     1      -2.410   4.485 -31.446  1.00  0.00     0.038 A 
HETATM   21  C   UNL     1      -3.534   3.656 -31.570  1.00  0.00     0.026 A 
BRANCH  19  22
HETATM   22  O   UNL     1      -1.342   6.455 -30.813  1.00  0.00    -0.352 OA
BRANCH  22  23
HETATM   23  C   UNL     1      -0.619   6.401 -29.585  1.00  0.00     0.171 C 
HETATM   24  C   UNL     1       0.579   7.326 -29.703  1.00  0.00     0.034 C 
ENDBRANCH  22  23
ENDBRANCH  19  22
ENDBRANCH  14  16
ENDBRANCH  13  14
ENDBRANCH   1  13
BRANCH   9  25
HETATM   25  O   UNL     1      -3.731  -3.740 -34.493  1.00  0.00    -0.356 OA
HETATM   26  C   UNL     1      -3.453  -4.745 -33.526  1.00  0.00     0.210 C 
ENDBRANCH   9  25
TORSDOF 6
ENDMDL
MODEL 10
REMARK VINA RESULT:      -6.9      2.946      5.694
REMARK  6 active torsions:
REMARK  status: ('A' for Active; 'I' for Inactive)
REMARK    1  A    between atoms: C_2  and  O_3 
REMARK    2  A    between atoms: O_3  and  C_4 
REMARK    3  A    between atoms: C_7  and  N_8 
REMARK    4  A    between atoms: N_8  and  C_9 
REMARK    5  A    between atoms: C_9  and  C_10 
REMARK    6  A    between atoms: C_18  and  O_19 
ROOT
HETATM    1  C   UNL     1      -8.157   1.587 -32.489  1.00  0.00     0.024 A 
HETATM    2  C   UNL     1      -8.811   1.220 -33.785  1.00  0.00     0.253 A 
HETATM    3  O   UNL     1      -9.811   1.808 -34.190  1.00  0.00    -0.268 OA
HETATM    4  N   UNL     1      -8.251   0.200 -34.508  1.00  0.00    -0.322 N 
HETATM    5  C   UNL     1      -7.112  -0.502 -34.106  1.00  0.00     0.045 A 
HETATM    6  C   UNL     1      -6.505  -0.174 -32.892  1.00  0.00    -0.006 A 
HETATM    7  C   UNL     1      -6.589  -1.510 -34.912  1.00  0.00     0.033 A 
HETATM    8  C   UNL     1      -5.435  -2.191 -34.509  1.00  0.00     0.039 A 
HETATM    9  C   UNL     1      -4.810  -1.864 -33.303  1.00  0.00     0.069 A 
HETATM   10  C   UNL     1      -5.356  -0.862 -32.493  1.00  0.00     0.050 A 
HETATM   11  C   UNL     1      -7.078   0.895 -32.076  1.00  0.00     0.027 A 
HETATM   12  H   UNL     1      -8.711  -0.025 -35.381  1.00  0.00     0.169 HD
ENDROOT
BRANCH   1  13
HETATM   13  C   UNL     1      -8.824   2.736 -31.775  1.00  0.00     0.136 C 
BRANCH  13  14
HETATM   14  N   UNL     1      -8.513   4.011 -32.424  1.00  0.00    -0.289 NA
HETATM   15  H   UNL     1      -9.017   4.789 -32.004  1.00  0.00     0.128 HD
BRANCH  14  16
HETATM   16  C   UNL     1      -7.182   4.380 -32.647  1.00  0.00     0.008 A 
HETATM   17  C   UNL     1      -6.422   4.787 -31.541  1.00  0.00     0.026 A 
HETATM   18  C   UNL     1      -5.097   5.223 -31.676  1.00  0.00     0.038 A 
HETATM   19  C   UNL     1      -4.507   5.272 -32.935  1.00  0.00     0.068 A 
HETATM   20  C   UNL     1      -5.260   4.901 -34.047  1.00  0.00     0.038 A 
HETATM   21  C   UNL     1      -6.590   4.478 -33.908  1.00  0.00     0.026 A 
BRANCH  19  22
HETATM   22  O   UNL     1      -3.225   5.663 -33.209  1.00  0.00    -0.352 OA
BRANCH  22  23
HETATM   23  C   UNL     1      -2.322   4.651 -33.650  1.00  0.00     0.171 C 
HETATM   24  C   UNL     1      -1.596   5.172 -34.878  1.00  0.00     0.034 C 
ENDBRANCH  22  23
ENDBRANCH  19  22
ENDBRANCH  14  16
ENDBRANCH  13  14
ENDBRANCH   1  13
BRANCH   9  25
HETATM   25  O   UNL     1      -3.677  -2.445 -32.804  1.00  0.00    -0.356 OA
HETATM   26  C   UNL     1      -2.893  -1.663 -31.911  1.00  0.00     0.210 C 
ENDBRANCH   9  25
TORSDOF 6
ENDMDL
