MODEL 1
REMARK VINA RESULT:      -9.2      0.000      0.000
REMARK  10 active torsions:
REMARK  status: ('A' for Active; 'I' for Inactive)
REMARK    1  A    between atoms: C_6  and  N_7 
REMARK    2  A    between atoms: C_8  and  S_9 
REMARK    3  A    between atoms: S_9  and  C_10 
REMARK    4  A    between atoms: C_10  and  C_11 
REMARK       I    between atoms: C_11  and  N_12 
REMARK    5  A    between atoms: N_12  and  C_13 
REMARK    6  A    between atoms: C_13  and  C_14 
REMARK    7  A    between atoms: C_14  and  C_15 
REMARK    8  A    between atoms: C_18  and  S_19 
REMARK    9  A    between atoms: S_19  and  N_20 
REMARK   10  A    between atoms: C_29  and  N_30 
ROOT
HETATM    1  N   UNL     1      -7.772   0.741 -32.767  1.00  0.00    -0.276 N 
HETATM    2  C   UNL     1      -7.343   1.353 -31.626  1.00  0.00     0.177 A 
HETATM    3  N   UNL     1      -6.225   1.033 -30.951  1.00  0.00    -0.204 NA
HETATM    4  C   UNL     1      -5.519   0.085 -31.568  1.00  0.00     0.162 A 
HETATM    5  C   UNL     1      -5.846  -0.552 -32.748  1.00  0.00     0.081 A 
HETATM    6  C   UNL     1      -7.056  -0.238 -33.389  1.00  0.00     0.124 A 
HETATM    7  N   UNL     1      -4.321  -0.424 -31.157  1.00  0.00    -0.260 N 
HETATM    8  H   UNL     1      -3.788  -0.177 -30.328  1.00  0.00     0.191 HD
HETATM    9  N   UNL     1      -3.828  -1.345 -31.999  1.00  0.00    -0.177 NA
HETATM   10  C   UNL     1      -4.736  -1.419 -32.980  1.00  0.00     0.068 A 
HETATM   11  C   UNL     1      -4.487  -2.327 -34.130  1.00  0.00     0.073 C 
ENDROOT
BRANCH   2  12
HETATM   12  S   UNL     1      -8.155   2.830 -31.015  1.00  0.00    -0.082 SA
BRANCH  12  13
HETATM   13  C   UNL     1      -6.834   4.063 -31.239  1.00  0.00     0.185 C 
BRANCH  13  14
HETATM   14  C   UNL     1      -7.256   5.064 -32.296  1.00  0.00     0.227 C 
HETATM   15  N   UNL     1      -6.769   4.951 -33.567  1.00  0.00    -0.360 N 
HETATM   16  H   UNL     1      -7.046   5.734 -34.152  1.00  0.00     0.162 HD
HETATM   17  O   UNL     1      -8.034   5.978 -32.023  1.00  0.00    -0.273 OA
BRANCH  15  18
HETATM   18  C   UNL     1      -5.664   4.121 -34.027  1.00  0.00     0.127 C 
BRANCH  18  19
HETATM   19  C   UNL     1      -4.524   4.925 -34.666  1.00  0.00     0.058 C 
BRANCH  19  20
HETATM   20  C   UNL     1      -3.306   5.022 -33.775  1.00  0.00    -0.057 A 
HETATM   21  C   UNL     1      -3.217   4.268 -32.595  1.00  0.00     0.009 A 
HETATM   22  C   UNL     1      -2.119   4.410 -31.744  1.00  0.00     0.025 A 
HETATM   23  C   UNL     1      -1.095   5.297 -32.084  1.00  0.00     0.074 A 
HETATM   24  C   UNL     1      -1.162   6.044 -33.261  1.00  0.00     0.025 A 
HETATM   25  C   UNL     1      -2.263   5.901 -34.107  1.00  0.00     0.009 A 
BRANCH  23  26
HETATM   26  S   UNL     1       0.257   5.541 -30.968  1.00  0.00     0.239 S 
HETATM   27  O   UNL     1       1.174   4.431 -31.087  1.00  0.00    -0.206 OA
HETATM   28  O   UNL     1       0.690   6.917 -31.053  1.00  0.00    -0.206 OA
BRANCH  26  29
HETATM   29  N   UNL     1      -0.488   5.376 -29.475  1.00  0.00    -0.225 NA
HETATM   30  H   UNL     1      -0.971   4.478 -29.426  1.00  0.00     0.136 HD
HETATM   31  H   UNL     1       0.197   5.509 -28.729  1.00  0.00     0.136 HD
ENDBRANCH  26  29
ENDBRANCH  23  26
ENDBRANCH  19  20
ENDBRANCH  18  19
ENDBRANCH  15  18
ENDBRANCH  13  14
ENDBRANCH  12  13
ENDBRANCH   2  12
BRANCH   1  32
HETATM   32  C   UNL     1      -9.033   1.135 -33.335  1.00  0.00     0.045 A 
HETATM   33  C   UNL     1     -10.158   0.352 -33.095  1.00  0.00     0.054 A 
HETATM   34  C   UNL     1     -11.366   0.733 -33.679  1.00  0.00     0.042 A 
HETATM   35  C   UNL     1     -11.447   1.883 -34.488  1.00  0.00    -0.040 A 
HETATM   36 CL   UNL     1     -12.745  -0.256 -33.376  1.00  0.00    -0.084 Cl
HETATM   37  C   UNL     1     -12.740   2.305 -35.135  1.00  0.00     0.050 C 
HETATM   38  C   UNL     1     -10.292   2.659 -34.693  1.00  0.00     0.011 A 
HETATM   39  C   UNL     1      -9.079   2.293 -34.115  1.00  0.00     0.031 A 
ENDBRANCH   1  32
BRANCH   6  40
HETATM   40  N   UNL     1      -7.483  -0.870 -34.548  1.00  0.00    -0.384 N 
HETATM   41  H   UNL     1      -7.108  -1.785 -34.777  1.00  0.00     0.157 HD
HETATM   42  H   UNL     1      -8.350  -0.640 -35.018  1.00  0.00     0.157 HD
ENDBRANCH   6  40
TORSDOF 10
ENDMDL
MODEL 2
REMARK VINA RESULT:      -9.1     16.607     18.331
REMARK  10 active torsions:
REMARK  status: ('A' for Active; 'I' for Inactive)
REMARK    1  A    between atoms: C_6  and  N_7 
REMARK    2  A    between atoms: C_8  and  S_9 
REMARK    3  A    between atoms: S_9  and  C_10 
REMARK    4  A    between atoms: C_10  and  C_11 
REMARK       I    between atoms: C_11  and  N_12 
REMARK    5  A    between atoms: N_12  and  C_13 
REMARK    6  A    between atoms: C_13  and  C_14 
REMARK    7  A    between atoms: C_14  and  C_15 
REMARK    8  A    between atoms: C_18  and  S_19 
REMARK    9  A    between atoms: S_19  and  N_20 
REMARK   10  A    between atoms: C_29  and  N_30 
ROOT
HETATM    1  N   UNL     1      -6.221 -14.939 -39.234  1.00  0.00    -0.276 N 
HETATM    2  C   UNL     1      -6.186 -15.763 -38.148  1.00  0.00     0.177 A 
HETATM    3  N   UNL     1      -5.184 -16.610 -37.853  1.00  0.00    -0.204 NA
HETATM    4  C   UNL     1      -4.167 -16.504 -38.708  1.00  0.00     0.162 A 
HETATM    5  C   UNL     1      -4.091 -15.663 -39.800  1.00  0.00     0.081 A 
HETATM    6  C   UNL     1      -5.186 -14.841 -40.116  1.00  0.00     0.124 A 
HETATM    7  N   UNL     1      -2.992 -17.195 -38.653  1.00  0.00    -0.260 N 
HETATM    8  H   UNL     1      -2.710 -17.896 -37.973  1.00  0.00     0.191 HD
HETATM    9  N   UNL     1      -2.138 -16.854 -39.631  1.00  0.00    -0.177 NA
HETATM   10  C   UNL     1      -2.786 -15.910 -40.324  1.00  0.00     0.068 A 
HETATM   11  C   UNL     1      -2.106 -15.261 -41.475  1.00  0.00     0.073 C 
ENDROOT
BRANCH   2  12
HETATM   12  S   UNL     1      -7.426 -15.638 -36.859  1.00  0.00    -0.082 SA
BRANCH  12  13
HETATM   13  C   UNL     1      -6.387 -15.209 -35.426  1.00  0.00     0.185 C 
BRANCH  13  14
HETATM   14  C   UNL     1      -6.563 -13.739 -35.101  1.00  0.00     0.227 C 
HETATM   15  N   UNL     1      -5.541 -12.867 -35.341  1.00  0.00    -0.360 N 
HETATM   16  H   UNL     1      -5.745 -11.934 -34.991  1.00  0.00     0.162 HD
HETATM   17  O   UNL     1      -7.618 -13.322 -34.623  1.00  0.00    -0.273 OA
BRANCH  15  18
HETATM   18  C   UNL     1      -4.153 -13.183 -35.652  1.00  0.00     0.127 C 
BRANCH  18  19
HETATM   19  C   UNL     1      -3.765 -12.859 -37.100  1.00  0.00     0.058 C 
BRANCH  19  20
HETATM   20  C   UNL     1      -2.389 -13.370 -37.465  1.00  0.00    -0.057 A 
HETATM   21  C   UNL     1      -1.693 -12.839 -38.562  1.00  0.00     0.009 A 
HETATM   22  C   UNL     1      -0.452 -13.359 -38.933  1.00  0.00     0.025 A 
HETATM   23  C   UNL     1       0.106 -14.405 -38.193  1.00  0.00     0.074 A 
HETATM   24  C   UNL     1      -0.568 -14.935 -37.092  1.00  0.00     0.025 A 
HETATM   25  C   UNL     1      -1.810 -14.414 -36.727  1.00  0.00     0.009 A 
BRANCH  23  26
HETATM   26  S   UNL     1       1.638 -15.122 -38.711  1.00  0.00     0.239 S 
HETATM   27  O   UNL     1       1.398 -15.985 -39.843  1.00  0.00    -0.206 OA
HETATM   28  O   UNL     1       2.654 -14.094 -38.722  1.00  0.00    -0.206 OA
BRANCH  26  29
HETATM   29  N   UNL     1       2.007 -16.129 -37.423  1.00  0.00    -0.225 NA
HETATM   30  H   UNL     1       1.737 -17.089 -37.646  1.00  0.00     0.136 HD
HETATM   31  H   UNL     1       2.993 -16.032 -37.176  1.00  0.00     0.136 HD
ENDBRANCH  26  29
ENDBRANCH  23  26
ENDBRANCH  19  20
ENDBRANCH  18  19
ENDBRANCH  15  18
ENDBRANCH  13  14
ENDBRANCH  12  13
ENDBRANCH   2  12
BRANCH   1  32
HETATM   32  C   UNL     1      -7.398 -14.146 -39.466  1.00  0.00     0.045 A 
HETATM   33  C   UNL     1      -8.468 -14.707 -40.155  1.00  0.00     0.054 A 
HETATM   34  C   UNL     1      -9.589 -13.914 -40.398  1.00  0.00     0.042 A 
HETATM   35  C   UNL     1      -9.639 -12.578 -39.953  1.00  0.00    -0.040 A 
HETATM   36 CL   UNL     1     -10.900 -14.627 -41.261  1.00  0.00    -0.084 Cl
HETATM   37  C   UNL     1     -10.837 -11.703 -40.214  1.00  0.00     0.050 C 
HETATM   38  C   UNL     1      -8.545 -12.051 -39.243  1.00  0.00     0.011 A 
HETATM   39  C   UNL     1      -7.419 -12.832 -38.992  1.00  0.00     0.031 A 
ENDBRANCH   1  32
BRANCH   6  40
HETATM   40  N   UNL     1      -5.211 -14.008 -41.225  1.00  0.00    -0.384 N 
HETATM   41  H   UNL     1      -4.340 -13.795 -41.700  1.00  0.00     0.157 HD
HETATM   42  H   UNL     1      -6.043 -13.846 -41.778  1.00  0.00     0.157 HD
ENDBRANCH   6  40
TORSDOF 10
ENDMDL
MODEL 3
REMARK VINA RESULT:      -8.8      3.920      8.590
REMARK  10 active torsions:
REMARK  status: ('A' for Active; 'I' for Inactive)
REMARK    1  A    between atoms: C_6  and  N_7 
REMARK    2  A    between atoms: C_8  and  S_9 
REMARK    3  A    between atoms: S_9  and  C_10 
REMARK    4  A    between atoms: C_10  and  C_11 
REMARK       I    between atoms: C_11  and  N_12 
REMARK    5  A    between atoms: N_12  and  C_13 
REMARK    6  A    between atoms: C_13  and  C_14 
REMARK    7  A    between atoms: C_14  and  C_15 
REMARK    8  A    between atoms: C_18  and  S_19 
REMARK    9  A    between atoms: S_19  and  N_20 
REMARK   10  A    between atoms: C_29  and  N_30 
ROOT
HETATM    1  N   UNL     1      -5.939   3.693 -32.186  1.00  0.00    -0.276 N 
HETATM    2  C   UNL     1      -5.979   2.372 -31.849  1.00  0.00     0.177 A 
HETATM    3  N   UNL     1      -7.001   1.765 -31.220  1.00  0.00    -0.204 NA
HETATM    4  C   UNL     1      -8.031   2.589 -31.024  1.00  0.00     0.162 A 
HETATM    5  C   UNL     1      -8.101   3.920 -31.378  1.00  0.00     0.081 A 
HETATM    6  C   UNL     1      -6.987   4.537 -31.972  1.00  0.00     0.124 A 
HETATM    7  N   UNL     1      -9.226   2.263 -30.452  1.00  0.00    -0.260 N 
HETATM    8  H   UNL     1      -9.516   1.362 -30.080  1.00  0.00     0.191 HD
HETATM    9  N   UNL     1     -10.087   3.291 -30.419  1.00  0.00    -0.177 NA
HETATM   10  C   UNL     1      -9.424   4.300 -30.996  1.00  0.00     0.068 A 
HETATM   11  C   UNL     1     -10.106   5.609 -31.173  1.00  0.00     0.073 C 
ENDROOT
BRANCH   2  12
HETATM   12  S   UNL     1      -4.710   1.240 -32.417  1.00  0.00    -0.082 SA
BRANCH  12  13
HETATM   13  C   UNL     1      -5.622  -0.336 -32.394  1.00  0.00     0.185 C 
BRANCH  13  14
HETATM   14  C   UNL     1      -5.483  -1.017 -33.741  1.00  0.00     0.227 C 
HETATM   15  N   UNL     1      -6.483  -0.897 -34.664  1.00  0.00    -0.360 N 
HETATM   16  H   UNL     1      -6.316  -1.476 -35.483  1.00  0.00     0.162 HD
HETATM   17  O   UNL     1      -4.480  -1.675 -34.014  1.00  0.00    -0.273 OA
BRANCH  15  18
HETATM   18  C   UNL     1      -7.834  -0.393 -34.456  1.00  0.00     0.127 C 
BRANCH  18  19
HETATM   19  C   UNL     1      -7.954   1.123 -34.650  1.00  0.00     0.058 C 
BRANCH  19  20
HETATM   20  C   UNL     1      -9.324   1.653 -34.290  1.00  0.00    -0.057 A 
HETATM   21  C   UNL     1      -9.668   2.988 -34.546  1.00  0.00     0.009 A 
HETATM   22  C   UNL     1     -10.911   3.489 -34.152  1.00  0.00     0.025 A 
HETATM   23  C   UNL     1     -11.822   2.643 -33.515  1.00  0.00     0.074 A 
HETATM   24  C   UNL     1     -11.500   1.308 -33.265  1.00  0.00     0.025 A 
HETATM   25  C   UNL     1     -10.255   0.814 -33.657  1.00  0.00     0.009 A 
BRANCH  23  26
HETATM   26  S   UNL     1     -13.364   3.294 -32.940  1.00  0.00     0.239 S 
HETATM   27  O   UNL     1     -13.500   4.658 -33.395  1.00  0.00    -0.206 OA
HETATM   28  O   UNL     1     -14.395   2.303 -33.146  1.00  0.00    -0.206 OA
BRANCH  26  29
HETATM   29  N   UNL     1     -13.115   3.375 -31.285  1.00  0.00    -0.225 NA
HETATM   30  H   UNL     1     -12.137   3.177 -31.072  1.00  0.00     0.136 HD
HETATM   31  H   UNL     1     -13.433   4.278 -30.929  1.00  0.00     0.136 HD
ENDBRANCH  26  29
ENDBRANCH  23  26
ENDBRANCH  19  20
ENDBRANCH  18  19
ENDBRANCH  15  18
ENDBRANCH  13  14
ENDBRANCH  12  13
ENDBRANCH   2  12
BRANCH   1  32
HETATM   32  C   UNL     1      -4.743   4.221 -32.784  1.00  0.00     0.045 A 
HETATM   33  C   UNL     1      -3.600   4.363 -32.001  1.00  0.00     0.054 A 
HETATM   34  C   UNL     1      -2.458   4.906 -32.589  1.00  0.00     0.042 A 
HETATM   35  C   UNL     1      -2.458   5.297 -33.941  1.00  0.00    -0.040 A 
HETATM   36 CL   UNL     1      -1.057   5.079 -31.599  1.00  0.00    -0.084 Cl
HETATM   37  C   UNL     1      -1.237   5.894 -34.591  1.00  0.00     0.050 C 
HETATM   38  C   UNL     1      -3.626   5.122 -34.705  1.00  0.00     0.011 A 
HETATM   39  C   UNL     1      -4.775   4.580 -34.133  1.00  0.00     0.031 A 
ENDBRANCH   1  32
BRANCH   6  40
HETATM   40  N   UNL     1      -6.958   5.882 -32.309  1.00  0.00    -0.384 N 
HETATM   41  H   UNL     1      -7.738   6.278 -32.824  1.00  0.00     0.157 HD
HETATM   42  H   UNL     1      -6.383   6.562 -31.827  1.00  0.00     0.157 HD
ENDBRANCH   6  40
TORSDOF 10
ENDMDL
MODEL 4
REMARK VINA RESULT:      -8.7      3.307      5.500
REMARK  10 active torsions:
REMARK  status: ('A' for Active; 'I' for Inactive)
REMARK    1  A    between atoms: C_6  and  N_7 
REMARK    2  A    between atoms: C_8  and  S_9 
REMARK    3  A    between atoms: S_9  and  C_10 
REMARK    4  A    between atoms: C_10  and  C_11 
REMARK       I    between atoms: C_11  and  N_12 
REMARK    5  A    between atoms: N_12  and  C_13 
REMARK    6  A    between atoms: C_13  and  C_14 
REMARK    7  A    between atoms: C_14  and  C_15 
REMARK    8  A    between atoms: C_18  and  S_19 
REMARK    9  A    between atoms: S_19  and  N_20 
REMARK   10  A    between atoms: C_29  and  N_30 
ROOT
HETATM    1  N   UNL     1      -9.706   2.348 -33.665  1.00  0.00    -0.276 N 
HETATM    2  C   UNL     1     -10.101   3.483 -34.311  1.00  0.00     0.177 A 
HETATM    3  N   UNL     1     -11.296   3.660 -34.901  1.00  0.00    -0.204 NA
HETATM    4  C   UNL     1     -12.106   2.617 -34.720  1.00  0.00     0.162 A 
HETATM    5  C   UNL     1     -11.813   1.454 -34.038  1.00  0.00     0.081 A 
HETATM    6  C   UNL     1     -10.531   1.277 -33.493  1.00  0.00     0.124 A 
HETATM    7  N   UNL     1     -13.393   2.511 -35.159  1.00  0.00    -0.260 N 
HETATM    8  H   UNL     1     -13.930   3.189 -35.693  1.00  0.00     0.191 HD
HETATM    9  N   UNL     1     -13.976   1.358 -34.798  1.00  0.00    -0.177 NA
HETATM   10  C   UNL     1     -13.033   0.713 -34.100  1.00  0.00     0.068 A 
HETATM   11  C   UNL     1     -13.353  -0.607 -33.496  1.00  0.00     0.073 C 
ENDROOT
BRANCH   2  12
HETATM   12  S   UNL     1      -9.100   4.969 -34.250  1.00  0.00    -0.082 SA
BRANCH  12  13
HETATM   13  C   UNL     1     -10.175   6.065 -33.270  1.00  0.00     0.185 C 
BRANCH  13  14
HETATM   14  C   UNL     1     -10.257   5.547 -31.848  1.00  0.00     0.227 C 
HETATM   15  N   UNL     1      -9.362   5.988 -30.916  1.00  0.00    -0.360 N 
HETATM   16  H   UNL     1      -9.458   5.495 -30.032  1.00  0.00     0.162 HD
HETATM   17  O   UNL     1     -11.121   4.733 -31.523  1.00  0.00    -0.273 OA
BRANCH  15  18
HETATM   18  C   UNL     1      -8.131   6.733 -31.144  1.00  0.00     0.127 C 
BRANCH  18  19
HETATM   19  C   UNL     1      -6.923   6.157 -30.394  1.00  0.00     0.058 C 
BRANCH  19  20
HETATM   20  C   UNL     1      -5.708   5.993 -31.278  1.00  0.00    -0.057 A 
HETATM   21  C   UNL     1      -4.415   6.018 -30.735  1.00  0.00     0.009 A 
HETATM   22  C   UNL     1      -3.295   5.931 -31.564  1.00  0.00     0.025 A 
HETATM   23  C   UNL     1      -3.469   5.799 -32.944  1.00  0.00     0.074 A 
HETATM   24  C   UNL     1      -4.749   5.758 -33.499  1.00  0.00     0.025 A 
HETATM   25  C   UNL     1      -5.865   5.849 -32.666  1.00  0.00     0.009 A 
BRANCH  23  26
HETATM   26  S   UNL     1      -2.053   5.772 -34.005  1.00  0.00     0.239 S 
HETATM   27  O   UNL     1      -0.916   5.282 -33.262  1.00  0.00    -0.206 OA
HETATM   28  O   UNL     1      -2.439   5.221 -35.284  1.00  0.00    -0.206 OA
BRANCH  26  29
HETATM   29  N   UNL     1      -1.777   7.405 -34.262  1.00  0.00    -0.225 NA
HETATM   30  H   UNL     1      -0.779   7.605 -34.179  1.00  0.00     0.136 HD
HETATM   31  H   UNL     1      -2.173   7.688 -35.160  1.00  0.00     0.136 HD
ENDBRANCH  26  29
ENDBRANCH  23  26
ENDBRANCH  19  20
ENDBRANCH  18  19
ENDBRANCH  15  18
ENDBRANCH  13  14
ENDBRANCH  12  13
ENDBRANCH   2  12
BRANCH   1  32
HETATM   32  C   UNL     1      -8.365   2.272 -33.151  1.00  0.00     0.045 A 
HETATM   33  C   UNL     1      -8.143   2.518 -31.799  1.00  0.00     0.054 A 
HETATM   34  C   UNL     1      -6.833   2.471 -31.324  1.00  0.00     0.042 A 
HETATM   35  C   UNL     1      -5.761   2.176 -32.189  1.00  0.00    -0.040 A 
HETATM   36 CL   UNL     1      -6.580   2.787 -29.648  1.00  0.00    -0.084 Cl
HETATM   37  C   UNL     1      -4.338   2.129 -31.696  1.00  0.00     0.050 C 
HETATM   38  C   UNL     1      -6.027   1.914 -33.545  1.00  0.00     0.011 A 
HETATM   39  C   UNL     1      -7.330   1.958 -34.034  1.00  0.00     0.031 A 
ENDBRANCH   1  32
BRANCH   6  40
HETATM   40  N   UNL     1     -10.141   0.116 -32.840  1.00  0.00    -0.384 N 
HETATM   41  H   UNL     1     -10.235  -0.774 -33.318  1.00  0.00     0.157 HD
HETATM   42  H   UNL     1      -9.495   0.109 -32.060  1.00  0.00     0.157 HD
ENDBRANCH   6  40
TORSDOF 10
ENDMDL
MODEL 5
REMARK VINA RESULT:      -8.7      3.605      8.681
REMARK  10 active torsions:
REMARK  status: ('A' for Active; 'I' for Inactive)
REMARK    1  A    between atoms: C_6  and  N_7 
REMARK    2  A    between atoms: C_8  and  S_9 
REMARK    3  A    between atoms: S_9  and  C_10 
REMARK    4  A    between atoms: C_10  and  C_11 
REMARK       I    between atoms: C_11  and  N_12 
REMARK    5  A    between atoms: N_12  and  C_13 
REMARK    6  A    between atoms: C_13  and  C_14 
REMARK    7  A    between atoms: C_14  and  C_15 
REMARK    8  A    between atoms: C_18  and  S_19 
REMARK    9  A    between atoms: S_19  and  N_20 
REMARK   10  A    between atoms: C_29  and  N_30 
ROOT
HETATM    1  N   UNL     1      -5.799   4.201 -31.524  1.00  0.00    -0.276 N 
HETATM    2  C   UNL     1      -5.724   2.983 -30.916  1.00  0.00     0.177 A 
HETATM    3  N   UNL     1      -6.777   2.276 -30.468  1.00  0.00    -0.204 NA
HETATM    4  C   UNL     1      -7.937   2.866 -30.757  1.00  0.00     0.162 A 
HETATM    5  C   UNL     1      -8.112   4.066 -31.413  1.00  0.00     0.081 A 
HETATM    6  C   UNL     1      -6.986   4.809 -31.806  1.00  0.00     0.124 A 
HETATM    7  N   UNL     1      -9.180   2.379 -30.474  1.00  0.00    -0.260 N 
HETATM    8  H   UNL     1      -9.419   1.513 -29.999  1.00  0.00     0.191 HD
HETATM    9  N   UNL     1     -10.166   3.175 -30.916  1.00  0.00    -0.177 NA
HETATM   10  C   UNL     1      -9.531   4.195 -31.506  1.00  0.00     0.068 A 
HETATM   11  C   UNL     1     -10.329   5.265 -32.159  1.00  0.00     0.073 C 
ENDROOT
BRANCH   2  12
HETATM   12  S   UNL     1      -4.171   2.089 -30.839  1.00  0.00    -0.082 SA
BRANCH  12  13
HETATM   13  C   UNL     1      -4.151   1.300 -32.481  1.00  0.00     0.185 C 
BRANCH  13  14
HETATM   14  C   UNL     1      -4.375  -0.191 -32.323  1.00  0.00     0.227 C 
HETATM   15  N   UNL     1      -5.469  -0.774 -32.897  1.00  0.00    -0.360 N 
HETATM   16  H   UNL     1      -5.559  -1.753 -32.638  1.00  0.00     0.162 HD
HETATM   17  O   UNL     1      -3.583  -0.884 -31.685  1.00  0.00    -0.273 OA
BRANCH  15  18
HETATM   18  C   UNL     1      -6.638  -0.113 -33.461  1.00  0.00     0.127 C 
BRANCH  18  19
HETATM   19  C   UNL     1      -7.930  -0.398 -32.685  1.00  0.00     0.058 C 
BRANCH  19  20
HETATM   20  C   UNL     1      -9.117   0.370 -33.223  1.00  0.00    -0.057 A 
HETATM   21  C   UNL     1     -10.428  -0.037 -32.932  1.00  0.00     0.009 A 
HETATM   22  C   UNL     1     -11.519   0.637 -33.483  1.00  0.00     0.025 A 
HETATM   23  C   UNL     1     -11.299   1.736 -34.317  1.00  0.00     0.074 A 
HETATM   24  C   UNL     1     -10.001   2.162 -34.606  1.00  0.00     0.025 A 
HETATM   25  C   UNL     1      -8.914   1.482 -34.054  1.00  0.00     0.009 A 
BRANCH  23  26
HETATM   26  S   UNL     1     -12.676   2.541 -35.084  1.00  0.00     0.239 S 
HETATM   27  O   UNL     1     -13.842   1.697 -34.966  1.00  0.00    -0.206 OA
HETATM   28  O   UNL     1     -12.683   3.931 -34.690  1.00  0.00    -0.206 OA
BRANCH  26  29
HETATM   29  N   UNL     1     -12.240   2.515 -36.702  1.00  0.00    -0.225 NA
HETATM   30  H   UNL     1     -12.998   2.118 -37.259  1.00  0.00     0.136 HD
HETATM   31  H   UNL     1     -11.963   3.451 -37.003  1.00  0.00     0.136 HD
ENDBRANCH  26  29
ENDBRANCH  23  26
ENDBRANCH  19  20
ENDBRANCH  18  19
ENDBRANCH  15  18
ENDBRANCH  13  14
ENDBRANCH  12  13
ENDBRANCH   2  12
BRANCH   1  32
HETATM   32  C   UNL     1      -4.580   4.878 -31.877  1.00  0.00     0.045 A 
HETATM   33  C   UNL     1      -4.066   4.722 -33.161  1.00  0.00     0.054 A 
HETATM   34  C   UNL     1      -2.867   5.361 -33.476  1.00  0.00     0.042 A 
HETATM   35  C   UNL     1      -2.194   6.147 -32.521  1.00  0.00    -0.040 A 
HETATM   36 CL   UNL     1      -2.245   5.147 -35.070  1.00  0.00    -0.084 Cl
HETATM   37  C   UNL     1      -0.894   6.837 -32.840  1.00  0.00     0.050 C 
HETATM   38  C   UNL     1      -2.754   6.296 -31.239  1.00  0.00     0.011 A 
HETATM   39  C   UNL     1      -3.951   5.665 -30.910  1.00  0.00     0.031 A 
ENDBRANCH   1  32
BRANCH   6  40
HETATM   40  N   UNL     1      -7.075   6.049 -32.422  1.00  0.00    -0.384 N 
HETATM   41  H   UNL     1      -7.060   6.886 -31.849  1.00  0.00     0.157 HD
HETATM   42  H   UNL     1      -6.848   6.201 -33.397  1.00  0.00     0.157 HD
ENDBRANCH   6  40
TORSDOF 10
ENDMDL
MODEL 6
REMARK VINA RESULT:      -8.7      2.496      3.177
REMARK  10 active torsions:
REMARK  status: ('A' for Active; 'I' for Inactive)
REMARK    1  A    between atoms: C_6  and  N_7 
REMARK    2  A    between atoms: C_8  and  S_9 
REMARK    3  A    between atoms: S_9  and  C_10 
REMARK    4  A    between atoms: C_10  and  C_11 
REMARK       I    between atoms: C_11  and  N_12 
REMARK    5  A    between atoms: N_12  and  C_13 
REMARK    6  A    between atoms: C_13  and  C_14 
REMARK    7  A    between atoms: C_14  and  C_15 
REMARK    8  A    between atoms: C_18  and  S_19 
REMARK    9  A    between atoms: S_19  and  N_20 
REMARK   10  A    between atoms: C_29  and  N_30 
ROOT
HETATM    1  N   UNL     1      -7.012   1.460 -32.584  1.00  0.00    -0.276 N 
HETATM    2  C   UNL     1      -5.744   1.911 -32.360  1.00  0.00     0.177 A 
HETATM    3  N   UNL     1      -4.622   1.199 -32.569  1.00  0.00    -0.204 NA
HETATM    4  C   UNL     1      -4.877   0.006 -33.104  1.00  0.00     0.162 A 
HETATM    5  C   UNL     1      -6.117  -0.512 -33.415  1.00  0.00     0.081 A 
HETATM    6  C   UNL     1      -7.271   0.234 -33.119  1.00  0.00     0.124 A 
HETATM    7  N   UNL     1      -3.950  -0.928 -33.470  1.00  0.00    -0.260 N 
HETATM    8  H   UNL     1      -2.939  -0.871 -33.385  1.00  0.00     0.191 HD
HETATM    9  N   UNL     1      -4.499  -2.023 -34.016  1.00  0.00    -0.177 NA
HETATM   10  C   UNL     1      -5.815  -1.777 -34.006  1.00  0.00     0.068 A 
HETATM   11  C   UNL     1      -6.745  -2.779 -34.589  1.00  0.00     0.073 C 
ENDROOT
BRANCH   2  12
HETATM   12  S   UNL     1      -5.440   3.629 -31.945  1.00  0.00    -0.082 SA
BRANCH  12  13
HETATM   13  C   UNL     1      -3.990   3.981 -32.988  1.00  0.00     0.185 C 
BRANCH  13  14
HETATM   14  C   UNL     1      -4.425   4.782 -34.199  1.00  0.00     0.227 C 
HETATM   15  N   UNL     1      -3.495   5.474 -34.921  1.00  0.00    -0.360 N 
HETATM   16  H   UNL     1      -3.923   6.047 -35.644  1.00  0.00     0.162 HD
HETATM   17  O   UNL     1      -5.607   4.818 -34.540  1.00  0.00    -0.273 OA
BRANCH  15  18
HETATM   18  C   UNL     1      -2.118   5.771 -34.550  1.00  0.00     0.127 C 
BRANCH  18  19
HETATM   19  C   UNL     1      -1.918   7.208 -34.053  1.00  0.00     0.058 C 
BRANCH  19  20
HETATM   20  C   UNL     1      -1.430   7.271 -32.624  1.00  0.00    -0.057 A 
HETATM   21  C   UNL     1      -0.440   6.390 -32.163  1.00  0.00     0.009 A 
HETATM   22  C   UNL     1      -0.040   6.409 -30.826  1.00  0.00     0.025 A 
HETATM   23  C   UNL     1      -0.619   7.328 -29.947  1.00  0.00     0.074 A 
HETATM   24  C   UNL     1      -1.596   8.221 -30.393  1.00  0.00     0.025 A 
HETATM   25  C   UNL     1      -1.995   8.194 -31.730  1.00  0.00     0.009 A 
BRANCH  23  26
HETATM   26  S   UNL     1      -0.175   7.300 -28.235  1.00  0.00     0.239 S 
HETATM   27  O   UNL     1       1.127   7.905 -28.074  1.00  0.00    -0.206 OA
HETATM   28  O   UNL     1      -1.319   7.703 -27.449  1.00  0.00    -0.206 OA
BRANCH  26  29
HETATM   29  N   UNL     1       0.032   5.661 -27.953  1.00  0.00    -0.225 NA
HETATM   30  H   UNL     1      -0.868   5.230 -27.738  1.00  0.00     0.136 HD
HETATM   31  H   UNL     1       0.509   5.229 -28.746  1.00  0.00     0.136 HD
ENDBRANCH  26  29
ENDBRANCH  23  26
ENDBRANCH  19  20
ENDBRANCH  18  19
ENDBRANCH  15  18
ENDBRANCH  13  14
ENDBRANCH  12  13
ENDBRANCH   2  12
BRANCH   1  32
HETATM   32  C   UNL     1      -8.121   2.306 -32.237  1.00  0.00     0.045 A 
HETATM   33  C   UNL     1      -8.722   3.076 -33.229  1.00  0.00     0.054 A 
HETATM   34  C   UNL     1      -9.777   3.914 -32.868  1.00  0.00     0.042 A 
HETATM   35  C   UNL     1     -10.227   3.977 -31.535  1.00  0.00    -0.040 A 
HETATM   36 CL   UNL     1     -10.501   4.865 -34.111  1.00  0.00    -0.084 Cl
HETATM   37  C   UNL     1     -11.359   4.882 -31.125  1.00  0.00     0.050 C 
HETATM   38  C   UNL     1      -9.607   3.169 -30.564  1.00  0.00     0.011 A 
HETATM   39  C   UNL     1      -8.552   2.327 -30.909  1.00  0.00     0.031 A 
ENDBRANCH   1  32
BRANCH   6  40
HETATM   40  N   UNL     1      -8.555  -0.237 -33.350  1.00  0.00    -0.384 N 
HETATM   41  H   UNL     1      -9.202   0.336 -33.882  1.00  0.00     0.157 HD
HETATM   42  H   UNL     1      -8.803  -1.218 -33.302  1.00  0.00     0.157 HD
ENDBRANCH   6  40
TORSDOF 10
ENDMDL
MODEL 7
REMARK VINA RESULT:      -8.6      2.497      4.912
REMARK  10 active torsions:
REMARK  status: ('A' for Active; 'I' for Inactive)
REMARK    1  A    between atoms: C_6  and  N_7 
REMARK    2  A    between atoms: C_8  and  S_9 
REMARK    3  A    between atoms: S_9  and  C_10 
REMARK    4  A    between atoms: C_10  and  C_11 
REMARK       I    between atoms: C_11  and  N_12 
REMARK    5  A    between atoms: N_12  and  C_13 
REMARK    6  A    between atoms: C_13  and  C_14 
REMARK    7  A    between atoms: C_14  and  C_15 
REMARK    8  A    between atoms: C_18  and  S_19 
REMARK    9  A    between atoms: S_19  and  N_20 
REMARK   10  A    between atoms: C_29  and  N_30 
ROOT
HETATM    1  N   UNL     1      -9.362   1.206 -33.440  1.00  0.00    -0.276 N 
HETATM    2  C   UNL     1      -9.312   2.444 -34.010  1.00  0.00     0.177 A 
HETATM    3  N   UNL     1     -10.352   3.073 -34.587  1.00  0.00    -0.204 NA
HETATM    4  C   UNL     1     -11.485   2.378 -34.473  1.00  0.00     0.162 A 
HETATM    5  C   UNL     1     -11.641   1.148 -33.869  1.00  0.00     0.081 A 
HETATM    6  C   UNL     1     -10.518   0.491 -33.337  1.00  0.00     0.124 A 
HETATM    7  N   UNL     1     -12.716   2.766 -34.917  1.00  0.00    -0.260 N 
HETATM    8  H   UNL     1     -12.963   3.622 -35.405  1.00  0.00     0.191 HD
HETATM    9  N   UNL     1     -13.678   1.876 -34.631  1.00  0.00    -0.177 NA
HETATM   10  C   UNL     1     -13.043   0.896 -33.978  1.00  0.00     0.068 A 
HETATM   11  C   UNL     1     -13.825  -0.257 -33.461  1.00  0.00     0.073 C 
ENDROOT
BRANCH   2  12
HETATM   12  S   UNL     1      -7.849   3.469 -33.854  1.00  0.00    -0.082 SA
BRANCH  12  13
HETATM   13  C   UNL     1      -8.338   4.553 -32.474  1.00  0.00     0.185 C 
BRANCH  13  14
HETATM   14  C   UNL     1      -8.497   5.972 -32.983  1.00  0.00     0.227 C 
HETATM   15  N   UNL     1      -7.425   6.820 -32.966  1.00  0.00    -0.360 N 
HETATM   16  H   UNL     1      -7.683   7.765 -33.239  1.00  0.00     0.162 HD
HETATM   17  O   UNL     1      -9.579   6.370 -33.413  1.00  0.00    -0.273 OA
BRANCH  15  18
HETATM   18  C   UNL     1      -6.155   6.638 -32.277  1.00  0.00     0.127 C 
BRANCH  18  19
HETATM   19  C   UNL     1      -5.127   5.846 -33.095  1.00  0.00     0.058 C 
BRANCH  19  20
HETATM   20  C   UNL     1      -3.782   5.751 -32.411  1.00  0.00    -0.057 A 
HETATM   21  C   UNL     1      -3.582   6.308 -31.139  1.00  0.00     0.009 A 
HETATM   22  C   UNL     1      -2.322   6.273 -30.539  1.00  0.00     0.025 A 
HETATM   23  C   UNL     1      -1.259   5.661 -31.207  1.00  0.00     0.074 A 
HETATM   24  C   UNL     1      -1.444   5.090 -32.468  1.00  0.00     0.025 A 
HETATM   25  C   UNL     1      -2.706   5.131 -33.064  1.00  0.00     0.009 A 
BRANCH  23  26
HETATM   26  S   UNL     1       0.358   5.689 -30.488  1.00  0.00     0.239 S 
HETATM   27  O   UNL     1       1.123   4.577 -31.003  1.00  0.00    -0.206 OA
HETATM   28  O   UNL     1       0.854   7.046 -30.507  1.00  0.00    -0.206 OA
BRANCH  26  29
HETATM   29  N   UNL     1       0.033   5.331 -28.883  1.00  0.00    -0.225 NA
HETATM   30  H   UNL     1       0.785   4.758 -28.497  1.00  0.00     0.136 HD
HETATM   31  H   UNL     1      -0.128   6.193 -28.360  1.00  0.00     0.136 HD
ENDBRANCH  26  29
ENDBRANCH  23  26
ENDBRANCH  19  20
ENDBRANCH  18  19
ENDBRANCH  15  18
ENDBRANCH  13  14
ENDBRANCH  12  13
ENDBRANCH   2  12
BRANCH   1  32
HETATM   32  C   UNL     1      -8.149   0.625 -32.934  1.00  0.00     0.045 A 
HETATM   33  C   UNL     1      -7.766   0.892 -31.622  1.00  0.00     0.054 A 
HETATM   34  C   UNL     1      -6.570   0.346 -31.157  1.00  0.00     0.042 A 
HETATM   35  C   UNL     1      -5.771  -0.460 -31.992  1.00  0.00    -0.040 A 
HETATM   36 CL   UNL     1      -6.111   0.696 -29.533  1.00  0.00    -0.084 Cl
HETATM   37  C   UNL     1      -4.472  -1.051 -31.511  1.00  0.00     0.050 C 
HETATM   38  C   UNL     1      -6.200  -0.723 -33.306  1.00  0.00     0.011 A 
HETATM   39  C   UNL     1      -7.392  -0.184 -33.784  1.00  0.00     0.031 A 
ENDBRANCH   1  32
BRANCH   6  40
HETATM   40  N   UNL     1     -10.582  -0.769 -32.762  1.00  0.00    -0.384 N 
HETATM   41  H   UNL     1      -9.796  -1.099 -32.210  1.00  0.00     0.157 HD
HETATM   42  H   UNL     1     -11.452  -1.257 -32.590  1.00  0.00     0.157 HD
ENDBRANCH   6  40
TORSDOF 10
ENDMDL
MODEL 8
REMARK VINA RESULT:      -8.6      3.233      5.584
REMARK  10 active torsions:
REMARK  status: ('A' for Active; 'I' for Inactive)
REMARK    1  A    between atoms: C_6  and  N_7 
REMARK    2  A    between atoms: C_8  and  S_9 
REMARK    3  A    between atoms: S_9  and  C_10 
REMARK    4  A    between atoms: C_10  and  C_11 
REMARK       I    between atoms: C_11  and  N_12 
REMARK    5  A    between atoms: N_12  and  C_13 
REMARK    6  A    between atoms: C_13  and  C_14 
REMARK    7  A    between atoms: C_14  and  C_15 
REMARK    8  A    between atoms: C_18  and  S_19 
REMARK    9  A    between atoms: S_19  and  N_20 
REMARK   10  A    between atoms: C_29  and  N_30 
ROOT
HETATM    1  N   UNL     1      -7.679   2.821 -33.940  1.00  0.00    -0.276 N 
HETATM    2  C   UNL     1      -6.822   3.880 -33.859  1.00  0.00     0.177 A 
HETATM    3  N   UNL     1      -7.187   5.174 -33.892  1.00  0.00    -0.204 NA
HETATM    4  C   UNL     1      -8.511   5.322 -33.934  1.00  0.00     0.162 A 
HETATM    5  C   UNL     1      -9.453   4.315 -33.964  1.00  0.00     0.081 A 
HETATM    6  C   UNL     1      -9.032   2.975 -33.997  1.00  0.00     0.124 A 
HETATM    7  N   UNL     1      -9.189   6.506 -33.934  1.00  0.00    -0.260 N 
HETATM    8  H   UNL     1      -8.805   7.447 -33.913  1.00  0.00     0.191 HD
HETATM    9  N   UNL     1     -10.521   6.345 -33.946  1.00  0.00    -0.177 NA
HETATM   10  C   UNL     1     -10.696   5.018 -33.946  1.00  0.00     0.068 A 
HETATM   11  C   UNL     1     -12.077   4.469 -33.912  1.00  0.00     0.073 C 
ENDROOT
BRANCH   2  12
HETATM   12  S   UNL     1      -5.087   3.630 -33.482  1.00  0.00    -0.082 SA
BRANCH  12  13
HETATM   13  C   UNL     1      -4.500   5.353 -33.418  1.00  0.00     0.185 C 
BRANCH  13  14
HETATM   14  C   UNL     1      -3.675   5.648 -34.654  1.00  0.00     0.227 C 
HETATM   15  N   UNL     1      -2.544   6.406 -34.546  1.00  0.00    -0.360 N 
HETATM   16  H   UNL     1      -2.137   6.614 -35.454  1.00  0.00     0.162 HD
HETATM   17  O   UNL     1      -4.011   5.213 -35.755  1.00  0.00    -0.273 OA
BRANCH  15  18
HETATM   18  C   UNL     1      -2.118   7.215 -33.413  1.00  0.00     0.127 C 
BRANCH  18  19
HETATM   19  C   UNL     1      -0.793   6.749 -32.796  1.00  0.00     0.058 C 
BRANCH  19  20
HETATM   20  C   UNL     1      -0.746   6.939 -31.297  1.00  0.00    -0.057 A 
HETATM   21  C   UNL     1       0.480   7.020 -30.621  1.00  0.00     0.009 A 
HETATM   22  C   UNL     1       0.518   7.131 -29.230  1.00  0.00     0.025 A 
HETATM   23  C   UNL     1      -0.679   7.179 -28.511  1.00  0.00     0.074 A 
HETATM   24  C   UNL     1      -1.908   7.113 -29.169  1.00  0.00     0.025 A 
HETATM   25  C   UNL     1      -1.940   6.999 -30.560  1.00  0.00     0.009 A 
BRANCH  23  26
HETATM   26  S   UNL     1      -0.636   7.235 -26.743  1.00  0.00     0.239 S 
HETATM   27  O   UNL     1       0.693   7.607 -26.314  1.00  0.00    -0.206 OA
HETATM   28  O   UNL     1      -1.821   7.912 -26.268  1.00  0.00    -0.206 OA
BRANCH  26  29
HETATM   29  N   UNL     1      -0.825   5.620 -26.336  1.00  0.00    -0.225 NA
HETATM   30  H   UNL     1       0.061   5.242 -25.997  1.00  0.00     0.136 HD
HETATM   31  H   UNL     1      -1.591   5.517 -25.669  1.00  0.00     0.136 HD
ENDBRANCH  26  29
ENDBRANCH  23  26
ENDBRANCH  19  20
ENDBRANCH  18  19
ENDBRANCH  15  18
ENDBRANCH  13  14
ENDBRANCH  12  13
ENDBRANCH   2  12
BRANCH   1  32
HETATM   32  C   UNL     1      -7.137   1.490 -33.975  1.00  0.00     0.045 A 
HETATM   33  C   UNL     1      -6.538   0.973 -32.830  1.00  0.00     0.054 A 
HETATM   34  C   UNL     1      -5.990  -0.308 -32.890  1.00  0.00     0.042 A 
HETATM   35  C   UNL     1      -6.045  -1.062 -34.078  1.00  0.00    -0.040 A 
HETATM   36 CL   UNL     1      -5.246  -0.926 -31.463  1.00  0.00    -0.084 Cl
HETATM   37  C   UNL     1      -5.451  -2.444 -34.165  1.00  0.00     0.050 C 
HETATM   38  C   UNL     1      -6.675  -0.513 -35.210  1.00  0.00     0.011 A 
HETATM   39  C   UNL     1      -7.228   0.765 -35.165  1.00  0.00     0.031 A 
ENDBRANCH   1  32
BRANCH   6  40
HETATM   40  N   UNL     1      -9.914   1.907 -34.082  1.00  0.00    -0.384 N 
HETATM   41  H   UNL     1     -10.308   1.664 -34.985  1.00  0.00     0.157 HD
HETATM   42  H   UNL     1      -9.959   1.170 -33.389  1.00  0.00     0.157 HD
ENDBRANCH   6  40
TORSDOF 10
ENDMDL
MODEL 9
REMARK VINA RESULT:      -8.4      3.496      8.313
REMARK  10 active torsions:
REMARK  status: ('A' for Active; 'I' for Inactive)
REMARK    1  A    between atoms: C_6  and  N_7 
REMARK    2  A    between atoms: C_8  and  S_9 
REMARK    3  A    between atoms: S_9  and  C_10 
REMARK    4  A    between atoms: C_10  and  C_11 
REMARK       I    between atoms: C_11  and  N_12 
REMARK    5  A    between atoms: N_12  and  C_13 
REMARK    6  A    between atoms: C_13  and  C_14 
REMARK    7  A    between atoms: C_14  and  C_15 
REMARK    8  A    between atoms: C_18  and  S_19 
REMARK    9  A    between atoms: S_19  and  N_20 
REMARK   10  A    between atoms: C_29  and  N_30 
ROOT
HETATM    1  N   UNL     1      -6.615   5.506 -31.494  1.00  0.00    -0.276 N 
HETATM    2  C   UNL     1      -6.632   4.510 -30.563  1.00  0.00     0.177 A 
HETATM    3  N   UNL     1      -7.738   4.023 -29.971  1.00  0.00    -0.204 NA
HETATM    4  C   UNL     1      -8.851   4.573 -30.457  1.00  0.00     0.162 A 
HETATM    5  C   UNL     1      -8.933   5.545 -31.432  1.00  0.00     0.081 A 
HETATM    6  C   UNL     1      -7.753   6.078 -31.979  1.00  0.00     0.124 A 
HETATM    7  N   UNL     1     -10.128   4.262 -30.093  1.00  0.00    -0.260 N 
HETATM    8  H   UNL     1     -10.434   3.583 -29.400  1.00  0.00     0.191 HD
HETATM    9  N   UNL     1     -11.051   4.956 -30.777  1.00  0.00    -0.177 NA
HETATM   10  C   UNL     1     -10.339   5.726 -31.608  1.00  0.00     0.068 A 
HETATM   11  C   UNL     1     -11.052   6.611 -32.566  1.00  0.00     0.073 C 
ENDROOT
BRANCH   2  12
HETATM   12  S   UNL     1      -5.145   3.584 -30.180  1.00  0.00    -0.082 SA
BRANCH  12  13
HETATM   13  C   UNL     1      -5.202   2.298 -31.469  1.00  0.00     0.185 C 
BRANCH  13  14
HETATM   14  C   UNL     1      -3.793   1.991 -31.935  1.00  0.00     0.227 C 
HETATM   15  N   UNL     1      -3.509   0.766 -32.467  1.00  0.00    -0.360 N 
HETATM   16  H   UNL     1      -2.516   0.650 -32.648  1.00  0.00     0.162 HD
HETATM   17  O   UNL     1      -2.901   2.833 -31.840  1.00  0.00    -0.273 OA
BRANCH  15  18
HETATM   18  C   UNL     1      -4.334  -0.434 -32.432  1.00  0.00     0.127 C 
BRANCH  18  19
HETATM   19  C   UNL     1      -5.031  -0.733 -33.765  1.00  0.00     0.058 C 
BRANCH  19  20
HETATM   20  C   UNL     1      -6.486  -0.322 -33.770  1.00  0.00    -0.057 A 
HETATM   21  C   UNL     1      -7.099   0.138 -34.946  1.00  0.00     0.009 A 
HETATM   22  C   UNL     1      -8.424   0.576 -34.930  1.00  0.00     0.025 A 
HETATM   23  C   UNL     1      -9.148   0.537 -33.736  1.00  0.00     0.074 A 
HETATM   24  C   UNL     1      -8.557   0.069 -32.560  1.00  0.00     0.025 A 
HETATM   25  C   UNL     1      -7.230  -0.364 -32.581  1.00  0.00     0.009 A 
BRANCH  23  26
HETATM   26  S   UNL     1     -10.800   1.169 -33.693  1.00  0.00     0.239 S 
HETATM   27  O   UNL     1     -11.015   2.007 -34.849  1.00  0.00    -0.206 OA
HETATM   28  O   UNL     1     -11.701   0.096 -33.336  1.00  0.00    -0.206 OA
BRANCH  26  29
HETATM   29  N   UNL     1     -10.748   2.197 -32.371  1.00  0.00    -0.225 NA
HETATM   30  H   UNL     1     -11.451   1.915 -31.685  1.00  0.00     0.136 HD
HETATM   31  H   UNL     1      -9.801   2.228 -31.991  1.00  0.00     0.136 HD
ENDBRANCH  26  29
ENDBRANCH  23  26
ENDBRANCH  19  20
ENDBRANCH  18  19
ENDBRANCH  15  18
ENDBRANCH  13  14
ENDBRANCH  12  13
ENDBRANCH   2  12
BRANCH   1  32
HETATM   32  C   UNL     1      -5.348   5.981 -31.980  1.00  0.00     0.045 A 
HETATM   33  C   UNL     1      -4.844   5.469 -33.172  1.00  0.00     0.054 A 
HETATM   34  C   UNL     1      -3.600   5.917 -33.613  1.00  0.00     0.042 A 
HETATM   35  C   UNL     1      -2.871   6.868 -32.872  1.00  0.00    -0.040 A 
HETATM   36 CL   UNL     1      -2.992   5.263 -35.087  1.00  0.00    -0.084 Cl
HETATM   37  C   UNL     1      -1.521   7.358 -33.327  1.00  0.00     0.050 C 
HETATM   38  C   UNL     1      -3.421   7.377 -31.682  1.00  0.00     0.011 A 
HETATM   39  C   UNL     1      -4.663   6.939 -31.229  1.00  0.00     0.031 A 
ENDBRANCH   1  32
BRANCH   6  40
HETATM   40  N   UNL     1      -7.749   7.093 -32.924  1.00  0.00    -0.384 N 
HETATM   41  H   UNL     1      -8.246   7.956 -32.723  1.00  0.00     0.157 HD
HETATM   42  H   UNL     1      -7.050   7.170 -33.652  1.00  0.00     0.157 HD
ENDBRANCH   6  40
TORSDOF 10
ENDMDL
MODEL 10
REMARK VINA RESULT:      -8.4      4.285      7.031
REMARK  10 active torsions:
REMARK  status: ('A' for Active; 'I' for Inactive)
REMARK    1  A    between atoms: C_6  and  N_7 
REMARK    2  A    between atoms: C_8  and  S_9 
REMARK    3  A    between atoms: S_9  and  C_10 
REMARK    4  A    between atoms: C_10  and  C_11 
REMARK       I    between atoms: C_11  and  N_12 
REMARK    5  A    between atoms: N_12  and  C_13 
REMARK    6  A    between atoms: C_13  and  C_14 
REMARK    7  A    between atoms: C_14  and  C_15 
REMARK    8  A    between atoms: C_18  and  S_19 
REMARK    9  A    between atoms: S_19  and  N_20 
REMARK   10  A    between atoms: C_29  and  N_30 
ROOT
HETATM    1  N   UNL     1      -4.587   4.563 -31.564  1.00  0.00    -0.276 N 
HETATM    2  C   UNL     1      -4.267   5.578 -32.417  1.00  0.00     0.177 A 
HETATM    3  N   UNL     1      -4.260   6.884 -32.097  1.00  0.00    -0.204 NA
HETATM    4  C   UNL     1      -4.529   7.086 -30.807  1.00  0.00     0.162 A 
HETATM    5  C   UNL     1      -4.810   6.122 -29.861  1.00  0.00     0.081 A 
HETATM    6  C   UNL     1      -4.875   4.773 -30.248  1.00  0.00     0.124 A 
HETATM    7  N   UNL     1      -4.555   8.293 -30.169  1.00  0.00    -0.260 N 
HETATM    8  H   UNL     1      -4.389   9.214 -30.566  1.00  0.00     0.191 HD
HETATM    9  N   UNL     1      -4.821   8.185 -28.858  1.00  0.00    -0.177 NA
HETATM   10  C   UNL     1      -4.960   6.870 -28.653  1.00  0.00     0.068 A 
HETATM   11  C   UNL     1      -5.221   6.374 -27.277  1.00  0.00     0.073 C 
ENDROOT
BRANCH   2  12
HETATM   12  S   UNL     1      -3.604   5.233 -34.047  1.00  0.00    -0.082 SA
BRANCH  12  13
HETATM   13  C   UNL     1      -1.816   5.319 -33.713  1.00  0.00     0.185 C 
BRANCH  13  14
HETATM   14  C   UNL     1      -1.431   6.753 -33.410  1.00  0.00     0.227 C 
HETATM   15  N   UNL     1      -0.912   7.069 -32.187  1.00  0.00    -0.360 N 
HETATM   16  H   UNL     1      -0.787   8.071 -32.073  1.00  0.00     0.162 HD
HETATM   17  O   UNL     1      -1.578   7.637 -34.253  1.00  0.00    -0.273 OA
BRANCH  15  18
HETATM   18  C   UNL     1      -0.896   6.245 -30.985  1.00  0.00     0.127 C 
BRANCH  18  19
HETATM   19  C   UNL     1       0.352   6.457 -30.119  1.00  0.00     0.058 C 
BRANCH  19  20
HETATM   20  C   UNL     1       0.102   7.384 -28.951  1.00  0.00    -0.057 A 
HETATM   21  C   UNL     1      -1.195   7.583 -28.455  1.00  0.00     0.009 A 
HETATM   22  C   UNL     1      -1.428   8.489 -27.419  1.00  0.00     0.025 A 
HETATM   23  C   UNL     1      -0.354   9.187 -26.861  1.00  0.00     0.074 A 
HETATM   24  C   UNL     1       0.945   8.991 -27.334  1.00  0.00     0.025 A 
HETATM   25  C   UNL     1       1.171   8.087 -28.373  1.00  0.00     0.009 A 
BRANCH  23  26
HETATM   26  S   UNL     1      -0.655  10.397 -25.605  1.00  0.00     0.239 S 
HETATM   27  O   UNL     1      -1.713  11.277 -26.041  1.00  0.00    -0.206 OA
HETATM   28  O   UNL     1      -0.676   9.738 -24.319  1.00  0.00    -0.206 OA
BRANCH  26  29
HETATM   29  N   UNL     1       0.755  11.302 -25.645  1.00  0.00    -0.225 NA
HETATM   30  H   UNL     1       0.638  12.149 -25.086  1.00  0.00     0.136 HD
HETATM   31  H   UNL     1       1.546  10.727 -25.349  1.00  0.00     0.136 HD
ENDBRANCH  26  29
ENDBRANCH  23  26
ENDBRANCH  19  20
ENDBRANCH  18  19
ENDBRANCH  15  18
ENDBRANCH  13  14
ENDBRANCH  12  13
ENDBRANCH   2  12
BRANCH   1  32
HETATM   32  C   UNL     1      -4.630   3.218 -32.070  1.00  0.00     0.045 A 
HETATM   33  C   UNL     1      -5.764   2.788 -32.753  1.00  0.00     0.054 A 
HETATM   34  C   UNL     1      -5.803   1.471 -33.210  1.00  0.00     0.042 A 
HETATM   35  C   UNL     1      -4.719   0.598 -32.990  1.00  0.00    -0.040 A 
HETATM   36 CL   UNL     1      -7.220   0.957 -34.046  1.00  0.00    -0.084 Cl
HETATM   37  C   UNL     1      -4.745  -0.830 -33.468  1.00  0.00     0.050 C 
HETATM   38  C   UNL     1      -3.583   1.074 -32.311  1.00  0.00     0.011 A 
HETATM   39  C   UNL     1      -3.530   2.387 -31.850  1.00  0.00     0.031 A 
ENDBRANCH   1  32
BRANCH   6  40
HETATM   40  N   UNL     1      -5.203   3.750 -29.371  1.00  0.00    -0.384 N 
HETATM   41  H   UNL     1      -4.458   3.205 -28.948  1.00  0.00     0.157 HD
HETATM   42  H   UNL     1      -6.090   3.699 -28.885  1.00  0.00     0.157 HD
ENDBRANCH   6  40
TORSDOF 10
ENDMDL
