MODEL 1
REMARK VINA RESULT:      -9.1      0.000      0.000
REMARK  6 active torsions:
REMARK  status: ('A' for Active; 'I' for Inactive)
REMARK    1  A    between atoms: C_4  and  C_5 
REMARK    2  A    between atoms: C_7  and  C_8 
REMARK    3  A    between atoms: C_11  and  C_12 
REMARK       I    between atoms: C_12  and  N_13 
REMARK    4  A    between atoms: N_13  and  C_14 
REMARK    5  A    between atoms: C_14  and  C_15 
REMARK    6  A    between atoms: C_18  and  N_19 
REMARK       I    between atoms: N_19  and  C_20 
REMARK       I    between atoms: C_20  and  N_21 
ROOT
HETATM    1  C   UNL     1      -6.497   2.694 -33.443  1.00  0.00     0.273 C 
HETATM    2  N   UNL     1      -5.609   3.277 -34.318  1.00  0.00    -0.351 N 
HETATM    3  O   UNL     1      -6.971   3.290 -32.481  1.00  0.00    -0.266 OA
HETATM    4  H   UNL     1      -5.348   2.746 -35.142  1.00  0.00     0.163 HD
ENDROOT
BRANCH   1   5
HETATM    5  C   UNL     1      -6.812   1.310 -33.779  1.00  0.00     0.157 A 
HETATM    6  C   UNL     1      -8.048   0.765 -34.075  1.00  0.00     0.094 A 
HETATM    7  O   UNL     1      -7.865  -0.571 -34.306  1.00  0.00    -0.293 OA
HETATM    8  C   UNL     1      -6.523  -0.779 -34.141  1.00  0.00     0.180 A 
HETATM    9  N   UNL     1      -5.842   0.311 -33.839  1.00  0.00    -0.216 NA
BRANCH   6  10
HETATM   10  C   UNL     1      -9.397   1.457 -34.152  1.00  0.00     0.046 A 
HETATM   11  C   UNL     1     -10.609   0.693 -33.658  1.00  0.00     0.012 A 
HETATM   12  C   UNL     1     -10.078   1.827 -32.850  1.00  0.00     0.012 A 
ENDBRANCH   6  10
BRANCH   8  13
HETATM   13  C   UNL     1      -6.053  -2.152 -34.307  1.00  0.00     0.017 A 
HETATM   14  C   UNL     1      -4.722  -2.516 -34.047  1.00  0.00     0.016 A 
HETATM   15  C   UNL     1      -4.292  -3.834 -34.223  1.00  0.00     0.001 A 
HETATM   16  C   UNL     1      -5.187  -4.806 -34.663  1.00  0.00     0.000 A 
HETATM   17  C   UNL     1      -6.512  -4.463 -34.926  1.00  0.00     0.001 A 
HETATM   18  C   UNL     1      -6.941  -3.145 -34.748  1.00  0.00     0.016 A 
ENDBRANCH   8  13
ENDBRANCH   1   5
BRANCH   2  19
HETATM   19  C   UNL     1      -5.229   4.658 -34.167  1.00  0.00     0.161 C 
BRANCH  19  20
HETATM   20  C   UNL     1      -4.137   4.873 -33.153  1.00  0.00    -0.040 A 
HETATM   21  C   UNL     1      -3.899   6.157 -32.648  1.00  0.00     0.011 A 
HETATM   22  C   UNL     1      -2.942   6.374 -31.651  1.00  0.00     0.030 A 
HETATM   23  C   UNL     1      -2.207   5.309 -31.132  1.00  0.00     0.035 A 
HETATM   24  C   UNL     1      -2.435   4.024 -31.637  1.00  0.00     0.030 A 
HETATM   25  C   UNL     1      -3.398   3.804 -32.630  1.00  0.00     0.011 A 
BRANCH  23  26
HETATM   26  N   UNL     1      -1.238   5.449 -30.120  1.00  0.00    -0.314 N 
HETATM   27  C   UNL     1       0.087   5.110 -30.183  1.00  0.00     0.296 C 
HETATM   28  N   UNL     1       0.721   5.325 -28.993  1.00  0.00    -0.254 NA
HETATM   29  O   UNL     1       0.721   4.676 -31.133  1.00  0.00    -0.254 OA
HETATM   30  H   UNL     1       0.217   5.068 -28.157  1.00  0.00     0.128 HD
HETATM   31  H   UNL     1       1.681   4.997 -29.010  1.00  0.00     0.128 HD
HETATM   32  H   UNL     1      -1.500   5.988 -29.308  1.00  0.00     0.170 HD
ENDBRANCH  23  26
ENDBRANCH  19  20
ENDBRANCH   2  19
TORSDOF 6
ENDMDL
MODEL 2
REMARK VINA RESULT:      -9.0      3.590      7.966
REMARK  6 active torsions:
REMARK  status: ('A' for Active; 'I' for Inactive)
REMARK    1  A    between atoms: C_4  and  C_5 
REMARK    2  A    between atoms: C_7  and  C_8 
REMARK    3  A    between atoms: C_11  and  C_12 
REMARK       I    between atoms: C_12  and  N_13 
REMARK    4  A    between atoms: N_13  and  C_14 
REMARK    5  A    between atoms: C_14  and  C_15 
REMARK    6  A    between atoms: C_18  and  N_19 
REMARK       I    between atoms: N_19  and  C_20 
REMARK       I    between atoms: C_20  and  N_21 
ROOT
HETATM    1  C   UNL     1      -7.725   1.961 -32.369  1.00  0.00     0.273 C 
HETATM    2  N   UNL     1      -8.057   2.821 -33.391  1.00  0.00    -0.351 N 
HETATM    3  O   UNL     1      -8.223   2.035 -31.250  1.00  0.00    -0.266 OA
HETATM    4  H   UNL     1      -7.675   2.624 -34.310  1.00  0.00     0.163 HD
ENDROOT
BRANCH   1   5
HETATM    5  C   UNL     1      -6.731   0.965 -32.754  1.00  0.00     0.157 A 
HETATM    6  C   UNL     1      -5.357   1.108 -32.803  1.00  0.00     0.094 A 
HETATM    7  O   UNL     1      -4.835  -0.080 -33.238  1.00  0.00    -0.293 OA
HETATM    8  C   UNL     1      -5.917  -0.894 -33.432  1.00  0.00     0.180 A 
HETATM    9  N   UNL     1      -7.075  -0.328 -33.145  1.00  0.00    -0.216 NA
BRANCH   6  10
HETATM   10  C   UNL     1      -4.515   2.322 -32.454  1.00  0.00     0.046 A 
HETATM   11  C   UNL     1      -4.609   2.861 -31.041  1.00  0.00     0.012 A 
HETATM   12  C   UNL     1      -3.380   2.135 -31.467  1.00  0.00     0.012 A 
ENDBRANCH   6  10
BRANCH   8  13
HETATM   13  C   UNL     1      -5.638  -2.238 -33.930  1.00  0.00     0.017 A 
HETATM   14  C   UNL     1      -6.613  -3.000 -34.592  1.00  0.00     0.016 A 
HETATM   15  C   UNL     1      -6.327  -4.289 -35.051  1.00  0.00     0.001 A 
HETATM   16  C   UNL     1      -5.061  -4.833 -34.852  1.00  0.00     0.000 A 
HETATM   17  C   UNL     1      -4.080  -4.092 -34.197  1.00  0.00     0.001 A 
HETATM   18  C   UNL     1      -4.367  -2.803 -33.740  1.00  0.00     0.016 A 
ENDBRANCH   8  13
ENDBRANCH   1   5
BRANCH   2  19
HETATM   19  C   UNL     1      -9.063   3.834 -33.202  1.00  0.00     0.161 C 
BRANCH  19  20
HETATM   20  C   UNL     1     -10.450   3.379 -33.570  1.00  0.00    -0.040 A 
HETATM   21  C   UNL     1     -10.716   2.941 -34.873  1.00  0.00     0.011 A 
HETATM   22  C   UNL     1     -11.976   2.443 -35.224  1.00  0.00     0.030 A 
HETATM   23  C   UNL     1     -12.994   2.365 -34.275  1.00  0.00     0.035 A 
HETATM   24  C   UNL     1     -12.737   2.808 -32.972  1.00  0.00     0.030 A 
HETATM   25  C   UNL     1     -11.475   3.299 -32.619  1.00  0.00     0.011 A 
BRANCH  23  26
HETATM   26  N   UNL     1     -14.281   1.864 -34.552  1.00  0.00    -0.314 N 
HETATM   27  C   UNL     1     -14.753   0.601 -34.312  1.00  0.00     0.296 C 
HETATM   28  N   UNL     1     -16.031   0.445 -34.766  1.00  0.00    -0.254 NA
HETATM   29  O   UNL     1     -14.192  -0.332 -33.758  1.00  0.00    -0.254 OA
HETATM   30  H   UNL     1     -16.248   0.857 -35.661  1.00  0.00     0.128 HD
HETATM   31  H   UNL     1     -16.355  -0.511 -34.666  1.00  0.00     0.128 HD
HETATM   32  H   UNL     1     -14.983   2.535 -34.823  1.00  0.00     0.170 HD
ENDBRANCH  23  26
ENDBRANCH  19  20
ENDBRANCH   2  19
TORSDOF 6
ENDMDL
MODEL 3
REMARK VINA RESULT:      -8.7      1.301      1.523
REMARK  6 active torsions:
REMARK  status: ('A' for Active; 'I' for Inactive)
REMARK    1  A    between atoms: C_4  and  C_5 
REMARK    2  A    between atoms: C_7  and  C_8 
REMARK    3  A    between atoms: C_11  and  C_12 
REMARK       I    between atoms: C_12  and  N_13 
REMARK    4  A    between atoms: N_13  and  C_14 
REMARK    5  A    between atoms: C_14  and  C_15 
REMARK    6  A    between atoms: C_18  and  N_19 
REMARK       I    between atoms: N_19  and  C_20 
REMARK       I    between atoms: C_20  and  N_21 
ROOT
HETATM    1  C   UNL     1      -7.120   2.792 -32.880  1.00  0.00     0.273 C 
HETATM    2  N   UNL     1      -6.769   3.537 -33.982  1.00  0.00    -0.351 N 
HETATM    3  O   UNL     1      -7.256   3.282 -31.763  1.00  0.00    -0.266 OA
HETATM    4  H   UNL     1      -6.780   3.071 -34.884  1.00  0.00     0.163 HD
ENDROOT
BRANCH   1   5
HETATM    5  C   UNL     1      -7.313   1.377 -33.178  1.00  0.00     0.157 A 
HETATM    6  C   UNL     1      -8.490   0.653 -33.147  1.00  0.00     0.094 A 
HETATM    7  O   UNL     1      -8.187  -0.640 -33.479  1.00  0.00    -0.293 OA
HETATM    8  C   UNL     1      -6.837  -0.643 -33.699  1.00  0.00     0.180 A 
HETATM    9  N   UNL     1      -6.264   0.537 -33.547  1.00  0.00    -0.216 NA
BRANCH   6  10
HETATM   10  C   UNL     1      -9.892   1.133 -32.819  1.00  0.00     0.046 A 
HETATM   11  C   UNL     1     -10.413   2.347 -33.561  1.00  0.00     0.012 A 
HETATM   12  C   UNL     1     -10.955   0.999 -33.890  1.00  0.00     0.012 A 
ENDBRANCH   6  10
BRANCH   8  13
HETATM   13  C   UNL     1      -6.239  -1.928 -34.049  1.00  0.00     0.017 A 
HETATM   14  C   UNL     1      -4.867  -2.176 -33.885  1.00  0.00     0.016 A 
HETATM   15  C   UNL     1      -4.314  -3.411 -34.237  1.00  0.00     0.001 A 
HETATM   16  C   UNL     1      -5.127  -4.414 -34.758  1.00  0.00     0.000 A 
HETATM   17  C   UNL     1      -6.491  -4.187 -34.928  1.00  0.00     0.001 A 
HETATM   18  C   UNL     1      -7.043  -2.952 -34.574  1.00  0.00     0.016 A 
ENDBRANCH   8  13
ENDBRANCH   1   5
BRANCH   2  19
HETATM   19  C   UNL     1      -6.591   4.962 -33.880  1.00  0.00     0.161 C 
BRANCH  19  20
HETATM   20  C   UNL     1      -5.208   5.365 -33.443  1.00  0.00    -0.040 A 
HETATM   21  C   UNL     1      -4.122   5.174 -34.306  1.00  0.00     0.011 A 
HETATM   22  C   UNL     1      -2.838   5.607 -33.956  1.00  0.00     0.030 A 
HETATM   23  C   UNL     1      -2.615   6.248 -32.738  1.00  0.00     0.035 A 
HETATM   24  C   UNL     1      -3.695   6.435 -31.868  1.00  0.00     0.030 A 
HETATM   25  C   UNL     1      -4.982   6.009 -32.220  1.00  0.00     0.011 A 
BRANCH  23  26
HETATM   26  N   UNL     1      -1.355   6.721 -32.325  1.00  0.00    -0.314 N 
HETATM   27  C   UNL     1      -0.366   6.015 -31.693  1.00  0.00     0.296 C 
HETATM   28  N   UNL     1       0.702   6.807 -31.383  1.00  0.00    -0.254 NA
HETATM   29  O   UNL     1      -0.336   4.826 -31.411  1.00  0.00    -0.254 OA
HETATM   30  H   UNL     1       0.493   7.730 -31.029  1.00  0.00     0.128 HD
HETATM   31  H   UNL     1       1.399   6.309 -30.841  1.00  0.00     0.128 HD
HETATM   32  H   UNL     1      -1.082   7.636 -32.650  1.00  0.00     0.170 HD
ENDBRANCH  23  26
ENDBRANCH  19  20
ENDBRANCH   2  19
TORSDOF 6
ENDMDL
MODEL 4
REMARK VINA RESULT:      -8.6      3.113      9.800
REMARK  6 active torsions:
REMARK  status: ('A' for Active; 'I' for Inactive)
REMARK    1  A    between atoms: C_4  and  C_5 
REMARK    2  A    between atoms: C_7  and  C_8 
REMARK    3  A    between atoms: C_11  and  C_12 
REMARK       I    between atoms: C_12  and  N_13 
REMARK    4  A    between atoms: N_13  and  C_14 
REMARK    5  A    between atoms: C_14  and  C_15 
REMARK    6  A    between atoms: C_18  and  N_19 
REMARK       I    between atoms: N_19  and  C_20 
REMARK       I    between atoms: C_20  and  N_21 
ROOT
HETATM    1  C   UNL     1      -3.969   5.097 -31.243  1.00  0.00     0.273 C 
HETATM    2  N   UNL     1      -3.957   3.807 -30.762  1.00  0.00    -0.351 N 
HETATM    3  O   UNL     1      -4.927   5.571 -31.847  1.00  0.00    -0.266 OA
HETATM    4  H   UNL     1      -3.167   3.532 -30.187  1.00  0.00     0.163 HD
ENDROOT
BRANCH   1   5
HETATM    5  C   UNL     1      -2.740   5.829 -30.962  1.00  0.00     0.157 A 
HETATM    6  C   UNL     1      -1.595   5.900 -31.734  1.00  0.00     0.094 A 
HETATM    7  O   UNL     1      -0.695   6.685 -31.065  1.00  0.00    -0.293 OA
HETATM    8  C   UNL     1      -1.336   7.058 -29.916  1.00  0.00     0.180 A 
HETATM    9  N   UNL     1      -2.565   6.589 -29.806  1.00  0.00    -0.216 NA
BRANCH   6  10
HETATM   10  C   UNL     1      -1.316   5.258 -33.081  1.00  0.00     0.046 A 
HETATM   11  C   UNL     1      -2.357   5.425 -34.170  1.00  0.00     0.012 A 
HETATM   12  C   UNL     1      -1.072   6.172 -34.264  1.00  0.00     0.012 A 
ENDBRANCH   6  10
BRANCH   8  13
HETATM   13  C   UNL     1      -0.575   7.894 -28.991  1.00  0.00     0.017 A 
HETATM   14  C   UNL     1       0.789   7.671 -28.740  1.00  0.00     0.016 A 
HETATM   15  C   UNL     1       1.494   8.477 -27.843  1.00  0.00     0.001 A 
HETATM   16  C   UNL     1       0.845   9.518 -27.183  1.00  0.00     0.000 A 
HETATM   17  C   UNL     1      -0.507   9.755 -27.419  1.00  0.00     0.001 A 
HETATM   18  C   UNL     1      -1.211   8.949 -28.318  1.00  0.00     0.016 A 
ENDBRANCH   8  13
ENDBRANCH   1   5
BRANCH   2  19
HETATM   19  C   UNL     1      -5.111   2.959 -30.904  1.00  0.00     0.161 C 
BRANCH  19  20
HETATM   20  C   UNL     1      -4.780   1.572 -31.388  1.00  0.00    -0.040 A 
HETATM   21  C   UNL     1      -5.718   0.542 -31.242  1.00  0.00     0.011 A 
HETATM   22  C   UNL     1      -5.468  -0.738 -31.749  1.00  0.00     0.030 A 
HETATM   23  C   UNL     1      -4.278  -1.013 -32.420  1.00  0.00     0.035 A 
HETATM   24  C   UNL     1      -3.333   0.010 -32.564  1.00  0.00     0.030 A 
HETATM   25  C   UNL     1      -3.585   1.293 -32.064  1.00  0.00     0.011 A 
BRANCH  23  26
HETATM   26  N   UNL     1      -3.963  -2.272 -32.967  1.00  0.00    -0.314 N 
HETATM   27  C   UNL     1      -4.525  -2.868 -34.065  1.00  0.00     0.296 C 
HETATM   28  N   UNL     1      -4.022  -4.120 -34.274  1.00  0.00    -0.254 NA
HETATM   29  O   UNL     1      -5.363  -2.419 -34.833  1.00  0.00    -0.254 OA
HETATM   30  H   UNL     1      -3.884  -4.695 -33.455  1.00  0.00     0.128 HD
HETATM   31  H   UNL     1      -4.495  -4.596 -35.034  1.00  0.00     0.128 HD
HETATM   32  H   UNL     1      -3.141  -2.733 -32.609  1.00  0.00     0.170 HD
ENDBRANCH  23  26
ENDBRANCH  19  20
ENDBRANCH   2  19
TORSDOF 6
ENDMDL
MODEL 5
REMARK VINA RESULT:      -8.5      1.774      2.209
REMARK  6 active torsions:
REMARK  status: ('A' for Active; 'I' for Inactive)
REMARK    1  A    between atoms: C_4  and  C_5 
REMARK    2  A    between atoms: C_7  and  C_8 
REMARK    3  A    between atoms: C_11  and  C_12 
REMARK       I    between atoms: C_12  and  N_13 
REMARK    4  A    between atoms: N_13  and  C_14 
REMARK    5  A    between atoms: C_14  and  C_15 
REMARK    6  A    between atoms: C_18  and  N_19 
REMARK       I    between atoms: N_19  and  C_20 
REMARK       I    between atoms: C_20  and  N_21 
ROOT
HETATM    1  C   UNL     1      -6.340   2.598 -33.624  1.00  0.00     0.273 C 
HETATM    2  N   UNL     1      -5.132   3.247 -33.501  1.00  0.00    -0.351 N 
HETATM    3  O   UNL     1      -7.369   3.170 -33.970  1.00  0.00    -0.266 OA
HETATM    4  H   UNL     1      -4.314   2.678 -33.310  1.00  0.00     0.163 HD
ENDROOT
BRANCH   1   5
HETATM    5  C   UNL     1      -6.266   1.178 -33.303  1.00  0.00     0.157 A 
HETATM    6  C   UNL     1      -6.384   0.577 -32.064  1.00  0.00     0.094 A 
HETATM    7  O   UNL     1      -6.229  -0.771 -32.242  1.00  0.00    -0.293 OA
HETATM    8  C   UNL     1      -6.025  -0.930 -33.585  1.00  0.00     0.180 A 
HETATM    9  N   UNL     1      -6.050   0.198 -34.271  1.00  0.00    -0.216 NA
BRANCH   6  10
HETATM   10  C   UNL     1      -6.641   1.224 -30.715  1.00  0.00     0.046 A 
HETATM   11  C   UNL     1      -5.868   0.699 -29.523  1.00  0.00     0.012 A 
HETATM   12  C   UNL     1      -5.520   2.031 -30.091  1.00  0.00     0.012 A 
ENDBRANCH   6  10
BRANCH   8  13
HETATM   13  C   UNL     1      -5.799  -2.295 -34.051  1.00  0.00     0.017 A 
HETATM   14  C   UNL     1      -4.544  -2.915 -33.949  1.00  0.00     0.016 A 
HETATM   15  C   UNL     1      -4.349  -4.220 -34.411  1.00  0.00     0.001 A 
HETATM   16  C   UNL     1      -5.407  -4.922 -34.983  1.00  0.00     0.000 A 
HETATM   17  C   UNL     1      -6.660  -4.323 -35.092  1.00  0.00     0.001 A 
HETATM   18  C   UNL     1      -6.854  -3.019 -34.628  1.00  0.00     0.016 A 
ENDBRANCH   8  13
ENDBRANCH   1   5
BRANCH   2  19
HETATM   19  C   UNL     1      -5.011   4.643 -33.831  1.00  0.00     0.161 C 
BRANCH  19  20
HETATM   20  C   UNL     1      -4.004   5.375 -32.984  1.00  0.00    -0.040 A 
HETATM   21  C   UNL     1      -4.299   5.662 -31.645  1.00  0.00     0.011 A 
HETATM   22  C   UNL     1      -3.354   6.275 -30.815  1.00  0.00     0.030 A 
HETATM   23  C   UNL     1      -2.091   6.606 -31.303  1.00  0.00     0.035 A 
HETATM   24  C   UNL     1      -1.793   6.328 -32.643  1.00  0.00     0.030 A 
HETATM   25  C   UNL     1      -2.735   5.709 -33.473  1.00  0.00     0.011 A 
BRANCH  23  26
HETATM   26  N   UNL     1      -1.087   7.211 -30.524  1.00  0.00    -0.314 N 
HETATM   27  C   UNL     1      -0.157   6.590 -29.734  1.00  0.00     0.296 C 
HETATM   28  N   UNL     1       0.625   7.491 -29.069  1.00  0.00    -0.254 NA
HETATM   29  O   UNL     1       0.042   5.394 -29.584  1.00  0.00    -0.254 OA
HETATM   30  H   UNL     1       0.157   8.299 -28.685  1.00  0.00     0.128 HD
HETATM   31  H   UNL     1       1.258   7.037 -28.420  1.00  0.00     0.128 HD
HETATM   32  H   UNL     1      -0.933   8.198 -30.664  1.00  0.00     0.170 HD
ENDBRANCH  23  26
ENDBRANCH  19  20
ENDBRANCH   2  19
TORSDOF 6
ENDMDL
MODEL 6
REMARK VINA RESULT:      -8.2      2.650      8.616
REMARK  6 active torsions:
REMARK  status: ('A' for Active; 'I' for Inactive)
REMARK    1  A    between atoms: C_4  and  C_5 
REMARK    2  A    between atoms: C_7  and  C_8 
REMARK    3  A    between atoms: C_11  and  C_12 
REMARK       I    between atoms: C_12  and  N_13 
REMARK    4  A    between atoms: N_13  and  C_14 
REMARK    5  A    between atoms: C_14  and  C_15 
REMARK    6  A    between atoms: C_18  and  N_19 
REMARK       I    between atoms: N_19  and  C_20 
REMARK       I    between atoms: C_20  and  N_21 
ROOT
HETATM    1  C   UNL     1      -5.678   3.763 -33.358  1.00  0.00     0.273 C 
HETATM    2  N   UNL     1      -6.254   2.643 -32.803  1.00  0.00    -0.351 N 
HETATM    3  O   UNL     1      -5.767   4.033 -34.552  1.00  0.00    -0.266 OA
HETATM    4  H   UNL     1      -6.219   2.552 -31.793  1.00  0.00     0.163 HD
ENDROOT
BRANCH   1   5
HETATM    5  C   UNL     1      -4.961   4.583 -32.389  1.00  0.00     0.157 A 
HETATM    6  C   UNL     1      -5.489   5.365 -31.379  1.00  0.00     0.094 A 
HETATM    7  O   UNL     1      -4.443   5.969 -30.736  1.00  0.00    -0.293 OA
HETATM    8  C   UNL     1      -3.323   5.525 -31.384  1.00  0.00     0.180 A 
HETATM    9  N   UNL     1      -3.570   4.684 -32.371  1.00  0.00    -0.216 NA
BRANCH   6  10
HETATM   10  C   UNL     1      -6.943   5.563 -30.992  1.00  0.00     0.046 A 
HETATM   11  C   UNL     1      -7.608   4.478 -30.170  1.00  0.00     0.012 A 
HETATM   12  C   UNL     1      -7.264   5.777 -29.527  1.00  0.00     0.012 A 
ENDBRANCH   6  10
BRANCH   8  13
HETATM   13  C   UNL     1      -2.046   6.047 -30.906  1.00  0.00     0.017 A 
HETATM   14  C   UNL     1      -1.966   6.921 -29.810  1.00  0.00     0.016 A 
HETATM   15  C   UNL     1      -0.733   7.417 -29.376  1.00  0.00     0.001 A 
HETATM   16  C   UNL     1       0.436   7.046 -30.034  1.00  0.00     0.000 A 
HETATM   17  C   UNL     1       0.377   6.179 -31.124  1.00  0.00     0.001 A 
HETATM   18  C   UNL     1      -0.856   5.683 -31.555  1.00  0.00     0.016 A 
ENDBRANCH   8  13
ENDBRANCH   1   5
BRANCH   2  19
HETATM   19  C   UNL     1      -7.046   1.749 -33.606  1.00  0.00     0.161 C 
BRANCH  19  20
HETATM   20  C   UNL     1      -6.465   0.364 -33.714  1.00  0.00    -0.040 A 
HETATM   21  C   UNL     1      -6.951  -0.520 -34.685  1.00  0.00     0.011 A 
HETATM   22  C   UNL     1      -6.380  -1.786 -34.857  1.00  0.00     0.030 A 
HETATM   23  C   UNL     1      -5.305  -2.191 -34.067  1.00  0.00     0.035 A 
HETATM   24  C   UNL     1      -4.819  -1.314 -33.090  1.00  0.00     0.030 A 
HETATM   25  C   UNL     1      -5.385  -0.044 -32.921  1.00  0.00     0.011 A 
BRANCH  23  26
HETATM   26  N   UNL     1      -4.673  -3.443 -34.191  1.00  0.00    -0.314 N 
HETATM   27  C   UNL     1      -5.256  -4.646 -34.488  1.00  0.00     0.296 C 
HETATM   28  N   UNL     1      -4.351  -5.667 -34.465  1.00  0.00    -0.254 NA
HETATM   29  O   UNL     1      -6.423  -4.881 -34.765  1.00  0.00    -0.254 OA
HETATM   30  H   UNL     1      -3.671  -5.654 -33.718  1.00  0.00     0.128 HD
HETATM   31  H   UNL     1      -4.793  -6.569 -34.601  1.00  0.00     0.128 HD
HETATM   32  H   UNL     1      -3.664  -3.445 -34.209  1.00  0.00     0.170 HD
ENDBRANCH  23  26
ENDBRANCH  19  20
ENDBRANCH   2  19
TORSDOF 6
ENDMDL
MODEL 7
REMARK VINA RESULT:      -8.0      4.125      6.839
REMARK  6 active torsions:
REMARK  status: ('A' for Active; 'I' for Inactive)
REMARK    1  A    between atoms: C_4  and  C_5 
REMARK    2  A    between atoms: C_7  and  C_8 
REMARK    3  A    between atoms: C_11  and  C_12 
REMARK       I    between atoms: C_12  and  N_13 
REMARK    4  A    between atoms: N_13  and  C_14 
REMARK    5  A    between atoms: C_14  and  C_15 
REMARK    6  A    between atoms: C_18  and  N_19 
REMARK       I    between atoms: N_19  and  C_20 
REMARK       I    between atoms: C_20  and  N_21 
ROOT
HETATM    1  C   UNL     1      -9.435   1.416 -33.542  1.00  0.00     0.273 C 
HETATM    2  N   UNL     1     -10.128   1.704 -34.696  1.00  0.00    -0.351 N 
HETATM    3  O   UNL     1      -9.838   1.737 -32.428  1.00  0.00    -0.266 OA
HETATM    4  H   UNL     1      -9.773   1.312 -35.563  1.00  0.00     0.163 HD
ENDROOT
BRANCH   1   5
HETATM    5  C   UNL     1      -8.188   0.699 -33.781  1.00  0.00     0.157 A 
HETATM    6  C   UNL     1      -6.937   1.228 -34.037  1.00  0.00     0.094 A 
HETATM    7  O   UNL     1      -6.075   0.180 -34.216  1.00  0.00    -0.293 OA
HETATM    8  C   UNL     1      -6.842  -0.941 -34.059  1.00  0.00     0.180 A 
HETATM    9  N   UNL     1      -8.110  -0.693 -33.784  1.00  0.00    -0.216 NA
BRANCH   6  10
HETATM   10  C   UNL     1      -6.520   2.685 -34.117  1.00  0.00     0.046 A 
HETATM   11  C   UNL     1      -6.837   3.575 -32.932  1.00  0.00     0.012 A 
HETATM   12  C   UNL     1      -5.428   3.162 -33.181  1.00  0.00     0.012 A 
ENDBRANCH   6  10
BRANCH   8  13
HETATM   13  C   UNL     1      -6.163  -2.223 -34.228  1.00  0.00     0.017 A 
HETATM   14  C   UNL     1      -4.795  -2.379 -33.949  1.00  0.00     0.016 A 
HETATM   15  C   UNL     1      -4.163  -3.612 -34.128  1.00  0.00     0.001 A 
HETATM   16  C   UNL     1      -4.890  -4.706 -34.591  1.00  0.00     0.000 A 
HETATM   17  C   UNL     1      -6.247  -4.571 -34.873  1.00  0.00     0.001 A 
HETATM   18  C   UNL     1      -6.879  -3.337 -34.692  1.00  0.00     0.016 A 
ENDBRANCH   8  13
ENDBRANCH   1   5
BRANCH   2  19
HETATM   19  C   UNL     1     -11.407   2.361 -34.641  1.00  0.00     0.161 C 
BRANCH  19  20
HETATM   20  C   UNL     1     -11.346   3.825 -34.990  1.00  0.00    -0.040 A 
HETATM   21  C   UNL     1     -12.525   4.519 -35.286  1.00  0.00     0.011 A 
HETATM   22  C   UNL     1     -12.507   5.895 -35.540  1.00  0.00     0.030 A 
HETATM   23  C   UNL     1     -11.309   6.607 -35.497  1.00  0.00     0.035 A 
HETATM   24  C   UNL     1     -10.125   5.917 -35.209  1.00  0.00     0.030 A 
HETATM   25  C   UNL     1     -10.143   4.541 -34.947  1.00  0.00     0.011 A 
BRANCH  23  26
HETATM   26  N   UNL     1     -11.215   7.992 -35.729  1.00  0.00    -0.314 N 
HETATM   27  C   UNL     1     -11.205   8.995 -34.797  1.00  0.00     0.296 C 
HETATM   28  N   UNL     1     -11.167  10.229 -35.381  1.00  0.00    -0.254 NA
HETATM   29  O   UNL     1     -11.210   8.906 -33.578  1.00  0.00    -0.254 OA
HETATM   30  H   UNL     1     -11.747  10.362 -36.197  1.00  0.00     0.128 HD
HETATM   31  H   UNL     1     -11.244  10.974 -34.698  1.00  0.00     0.128 HD
HETATM   32  H   UNL     1     -10.988   8.283 -36.668  1.00  0.00     0.170 HD
ENDBRANCH  23  26
ENDBRANCH  19  20
ENDBRANCH   2  19
TORSDOF 6
ENDMDL
MODEL 8
REMARK VINA RESULT:      -8.0     15.839     17.678
REMARK  6 active torsions:
REMARK  status: ('A' for Active; 'I' for Inactive)
REMARK    1  A    between atoms: C_4  and  C_5 
REMARK    2  A    between atoms: C_7  and  C_8 
REMARK    3  A    between atoms: C_11  and  C_12 
REMARK       I    between atoms: C_12  and  N_13 
REMARK    4  A    between atoms: N_13  and  C_14 
REMARK    5  A    between atoms: C_14  and  C_15 
REMARK    6  A    between atoms: C_18  and  N_19 
REMARK       I    between atoms: N_19  and  C_20 
REMARK       I    between atoms: C_20  and  N_21 
ROOT
HETATM    1  C   UNL     1      -3.283 -12.437 -38.476  1.00  0.00     0.273 C 
HETATM    2  N   UNL     1      -2.528 -13.533 -38.826  1.00  0.00    -0.351 N 
HETATM    3  O   UNL     1      -2.811 -11.308 -38.382  1.00  0.00    -0.266 OA
HETATM    4  H   UNL     1      -3.019 -14.408 -38.981  1.00  0.00     0.163 HD
ENDROOT
BRANCH   1   5
HETATM    5  C   UNL     1      -4.685 -12.756 -38.236  1.00  0.00     0.157 A 
HETATM    6  C   UNL     1      -5.271 -13.187 -37.060  1.00  0.00     0.094 A 
HETATM    7  O   UNL     1      -6.603 -13.380 -37.309  1.00  0.00    -0.293 OA
HETATM    8  C   UNL     1      -6.768 -13.054 -38.628  1.00  0.00     0.180 A 
HETATM    9  N   UNL     1      -5.660 -12.661 -39.228  1.00  0.00    -0.216 NA
BRANCH   6  10
HETATM   10  C   UNL     1      -4.624 -13.423 -35.707  1.00  0.00     0.046 A 
HETATM   11  C   UNL     1      -5.262 -14.448 -34.791  1.00  0.00     0.012 A 
HETATM   12  C   UNL     1      -3.970 -14.767 -35.460  1.00  0.00     0.012 A 
ENDBRANCH   6  10
BRANCH   8  13
HETATM   13  C   UNL     1      -8.117 -13.199 -39.169  1.00  0.00     0.017 A 
HETATM   14  C   UNL     1      -8.826 -12.107 -39.695  1.00  0.00     0.016 A 
HETATM   15  C   UNL     1     -10.119 -12.267 -40.198  1.00  0.00     0.001 A 
HETATM   16  C   UNL     1     -10.723 -13.522 -40.180  1.00  0.00     0.000 A 
HETATM   17  C   UNL     1     -10.035 -14.617 -39.662  1.00  0.00     0.001 A 
HETATM   18  C   UNL     1      -8.740 -14.456 -39.161  1.00  0.00     0.016 A 
ENDBRANCH   8  13
ENDBRANCH   1   5
BRANCH   2  19
HETATM   19  C   UNL     1      -1.133 -13.391 -39.151  1.00  0.00     0.161 C 
BRANCH  19  20
HETATM   20  C   UNL     1      -0.236 -14.316 -38.372  1.00  0.00    -0.040 A 
HETATM   21  C   UNL     1      -0.756 -15.045 -37.296  1.00  0.00     0.011 A 
HETATM   22  C   UNL     1       0.034 -15.967 -36.601  1.00  0.00     0.030 A 
HETATM   23  C   UNL     1       1.359 -16.186 -36.974  1.00  0.00     0.035 A 
HETATM   24  C   UNL     1       1.887 -15.456 -38.045  1.00  0.00     0.030 A 
HETATM   25  C   UNL     1       1.095 -14.538 -38.746  1.00  0.00     0.011 A 
BRANCH  23  26
HETATM   26  N   UNL     1       2.209 -17.106 -36.331  1.00  0.00    -0.314 N 
HETATM   27  C   UNL     1       2.729 -17.018 -35.067  1.00  0.00     0.296 C 
HETATM   28  N   UNL     1       3.567 -18.059 -34.790  1.00  0.00    -0.254 NA
HETATM   29  O   UNL     1       2.523 -16.167 -34.213  1.00  0.00    -0.254 OA
HETATM   30  H   UNL     1       4.193 -18.346 -35.529  1.00  0.00     0.128 HD
HETATM   31  H   UNL     1       4.019 -17.953 -33.889  1.00  0.00     0.128 HD
HETATM   32  H   UNL     1       2.342 -17.998 -36.782  1.00  0.00     0.170 HD
ENDBRANCH  23  26
ENDBRANCH  19  20
ENDBRANCH   2  19
TORSDOF 6
ENDMDL
MODEL 9
REMARK VINA RESULT:      -8.0      3.822      4.720
REMARK  6 active torsions:
REMARK  status: ('A' for Active; 'I' for Inactive)
REMARK    1  A    between atoms: C_4  and  C_5 
REMARK    2  A    between atoms: C_7  and  C_8 
REMARK    3  A    between atoms: C_11  and  C_12 
REMARK       I    between atoms: C_12  and  N_13 
REMARK    4  A    between atoms: N_13  and  C_14 
REMARK    5  A    between atoms: C_14  and  C_15 
REMARK    6  A    between atoms: C_18  and  N_19 
REMARK       I    between atoms: N_19  and  C_20 
REMARK       I    between atoms: C_20  and  N_21 
ROOT
HETATM    1  C   UNL     1      -6.394   2.464 -33.278  1.00  0.00     0.273 C 
HETATM    2  N   UNL     1      -5.993   2.812 -32.008  1.00  0.00    -0.351 N 
HETATM    3  O   UNL     1      -6.490   3.279 -34.191  1.00  0.00    -0.266 OA
HETATM    4  H   UNL     1      -5.842   2.059 -31.344  1.00  0.00     0.163 HD
ENDROOT
BRANCH   1   5
HETATM    5  C   UNL     1      -6.685   1.042 -33.422  1.00  0.00     0.157 A 
HETATM    6  C   UNL     1      -7.868   0.383 -33.143  1.00  0.00     0.094 A 
HETATM    7  O   UNL     1      -7.672  -0.945 -33.409  1.00  0.00    -0.293 OA
HETATM    8  C   UNL     1      -6.378  -1.033 -33.842  1.00  0.00     0.180 A 
HETATM    9  N   UNL     1      -5.743   0.124 -33.883  1.00  0.00    -0.216 NA
BRANCH   6  10
HETATM   10  C   UNL     1      -9.178   0.956 -32.635  1.00  0.00     0.046 A 
HETATM   11  C   UNL     1     -10.002   1.789 -33.597  1.00  0.00     0.012 A 
HETATM   12  C   UNL     1     -10.464   0.421 -33.232  1.00  0.00     0.012 A 
ENDBRANCH   6  10
BRANCH   8  13
HETATM   13  C   UNL     1      -5.894  -2.370 -34.175  1.00  0.00     0.017 A 
HETATM   14  C   UNL     1      -4.563  -2.755 -33.946  1.00  0.00     0.016 A 
HETATM   15  C   UNL     1      -4.119  -4.037 -34.283  1.00  0.00     0.001 A 
HETATM   16  C   UNL     1      -5.000  -4.951 -34.854  1.00  0.00     0.000 A 
HETATM   17  C   UNL     1      -6.324  -4.588 -35.088  1.00  0.00     0.001 A 
HETATM   18  C   UNL     1      -6.768  -3.306 -34.750  1.00  0.00     0.016 A 
ENDBRANCH   8  13
ENDBRANCH   1   5
BRANCH   2  19
HETATM   19  C   UNL     1      -5.614   4.166 -31.702  1.00  0.00     0.161 C 
BRANCH  19  20
HETATM   20  C   UNL     1      -6.639   4.907 -30.885  1.00  0.00    -0.040 A 
HETATM   21  C   UNL     1      -6.688   6.306 -30.933  1.00  0.00     0.011 A 
HETATM   22  C   UNL     1      -7.677   7.016 -30.243  1.00  0.00     0.030 A 
HETATM   23  C   UNL     1      -8.642   6.342 -29.496  1.00  0.00     0.035 A 
HETATM   24  C   UNL     1      -8.593   4.944 -29.438  1.00  0.00     0.030 A 
HETATM   25  C   UNL     1      -7.609   4.232 -30.134  1.00  0.00     0.011 A 
BRANCH  23  26
HETATM   26  N   UNL     1      -9.672   6.989 -28.788  1.00  0.00    -0.314 N 
HETATM   27  C   UNL     1      -9.559   7.722 -27.636  1.00  0.00     0.296 C 
HETATM   28  N   UNL     1     -10.775   8.152 -27.189  1.00  0.00    -0.254 NA
HETATM   29  O   UNL     1      -8.548   8.022 -27.017  1.00  0.00    -0.254 OA
HETATM   30  H   UNL     1     -11.538   7.493 -27.245  1.00  0.00     0.128 HD
HETATM   31  H   UNL     1     -10.704   8.623 -26.293  1.00  0.00     0.128 HD
HETATM   32  H   UNL     1     -10.571   7.048 -29.241  1.00  0.00     0.170 HD
ENDBRANCH  23  26
ENDBRANCH  19  20
ENDBRANCH   2  19
TORSDOF 6
ENDMDL
MODEL 10
REMARK VINA RESULT:      -7.9      3.464      4.725
REMARK  6 active torsions:
REMARK  status: ('A' for Active; 'I' for Inactive)
REMARK    1  A    between atoms: C_4  and  C_5 
REMARK    2  A    between atoms: C_7  and  C_8 
REMARK    3  A    between atoms: C_11  and  C_12 
REMARK       I    between atoms: C_12  and  N_13 
REMARK    4  A    between atoms: N_13  and  C_14 
REMARK    5  A    between atoms: C_14  and  C_15 
REMARK    6  A    between atoms: C_18  and  N_19 
REMARK       I    between atoms: N_19  and  C_20 
REMARK       I    between atoms: C_20  and  N_21 
ROOT
HETATM    1  C   UNL     1      -8.029   1.921 -32.696  1.00  0.00     0.273 C 
HETATM    2  N   UNL     1      -8.417   1.899 -31.376  1.00  0.00    -0.351 N 
HETATM    3  O   UNL     1      -8.498   2.706 -33.515  1.00  0.00    -0.266 OA
HETATM    4  H   UNL     1      -7.904   1.289 -30.749  1.00  0.00     0.163 HD
ENDROOT
BRANCH   1   5
HETATM    5  C   UNL     1      -7.012   0.925 -33.014  1.00  0.00     0.157 A 
HETATM    6  C   UNL     1      -5.638   1.081 -33.014  1.00  0.00     0.094 A 
HETATM    7  O   UNL     1      -5.088  -0.113 -33.395  1.00  0.00    -0.293 OA
HETATM    8  C   UNL     1      -6.154  -0.943 -33.608  1.00  0.00     0.180 A 
HETATM    9  N   UNL     1      -7.327  -0.382 -33.383  1.00  0.00    -0.216 NA
BRANCH   6  10
HETATM   10  C   UNL     1      -4.821   2.312 -32.666  1.00  0.00     0.046 A 
HETATM   11  C   UNL     1      -4.580   2.605 -31.199  1.00  0.00     0.012 A 
HETATM   12  C   UNL     1      -3.457   2.103 -32.040  1.00  0.00     0.012 A 
ENDBRANCH   6  10
BRANCH   8  13
HETATM   13  C   UNL     1      -5.843  -2.298 -34.057  1.00  0.00     0.017 A 
HETATM   14  C   UNL     1      -6.805  -3.113 -34.674  1.00  0.00     0.016 A 
HETATM   15  C   UNL     1      -6.488  -4.410 -35.087  1.00  0.00     0.001 A 
HETATM   16  C   UNL     1      -5.203  -4.910 -34.887  1.00  0.00     0.000 A 
HETATM   17  C   UNL     1      -4.235  -4.116 -34.276  1.00  0.00     0.001 A 
HETATM   18  C   UNL     1      -4.553  -2.818 -33.866  1.00  0.00     0.016 A 
ENDBRANCH   8  13
ENDBRANCH   1   5
BRANCH   2  19
HETATM   19  C   UNL     1      -9.375   2.851 -30.877  1.00  0.00     0.161 C 
BRANCH  19  20
HETATM   20  C   UNL     1      -8.745   4.029 -30.182  1.00  0.00    -0.040 A 
HETATM   21  C   UNL     1      -9.429   5.249 -30.122  1.00  0.00     0.011 A 
HETATM   22  C   UNL     1      -8.902   6.338 -29.419  1.00  0.00     0.030 A 
HETATM   23  C   UNL     1      -7.681   6.226 -28.754  1.00  0.00     0.035 A 
HETATM   24  C   UNL     1      -6.989   5.011 -28.816  1.00  0.00     0.030 A 
HETATM   25  C   UNL     1      -7.519   3.919 -29.513  1.00  0.00     0.011 A 
BRANCH  23  26
HETATM   26  N   UNL     1      -7.096   7.273 -28.017  1.00  0.00    -0.314 N 
HETATM   27  C   UNL     1      -6.163   8.178 -28.452  1.00  0.00     0.296 C 
HETATM   28  N   UNL     1      -5.769   9.018 -27.451  1.00  0.00    -0.254 NA
HETATM   29  O   UNL     1      -5.690   8.310 -29.571  1.00  0.00    -0.254 OA
HETATM   30  H   UNL     1      -5.623   8.603 -26.542  1.00  0.00     0.128 HD
HETATM   31  H   UNL     1      -5.018   9.633 -27.745  1.00  0.00     0.128 HD
HETATM   32  H   UNL     1      -7.501   7.481 -27.118  1.00  0.00     0.170 HD
ENDBRANCH  23  26
ENDBRANCH  19  20
ENDBRANCH   2  19
TORSDOF 6
ENDMDL
