MODEL 1
REMARK VINA RESULT:      -8.8      0.000      0.000
REMARK  10 active torsions:
REMARK  status: ('A' for Active; 'I' for Inactive)
REMARK    1  A    between atoms: C_6  and  C_7 
REMARK    2  A    between atoms: C_7  and  C_8 
REMARK       I    between atoms: C_8  and  N_9 
REMARK    3  A    between atoms: N_9  and  C_10 
REMARK    4  A    between atoms: C_10  and  C_11 
REMARK    5  A    between atoms: C_11  and  N_12 
REMARK    6  A    between atoms: C_17  and  C_18 
REMARK    7  A    between atoms: C_27  and  C_28 
REMARK    8  A    between atoms: C_28  and  O_29 
REMARK    9  A    between atoms: O_29  and  C_30 
REMARK   10  A    between atoms: C_30  and  C_31 
ROOT
HETATM    1  C   UNL     1      -4.781   0.050 -30.594  1.00  0.00     0.071 C 
HETATM    2  C   UNL     1      -5.869   1.091 -30.721  1.00  0.00     0.048 C 
HETATM    3  N   UNL     1      -5.834   2.076 -29.725  1.00  0.00    -0.229 NA
HETATM    4  C   UNL     1      -6.256   3.253 -30.068  1.00  0.00     0.170 C 
HETATM    5  N   UNL     1      -6.986   3.515 -31.426  1.00  0.00    -0.318 N 
HETATM    6  C   UNL     1      -6.516   4.601 -31.944  1.00  0.00     0.011 C 
HETATM    7  C   UNL     1      -7.727   2.282 -31.734  1.00  0.00     0.169 C 
HETATM    8  S   UNL     1      -5.850   4.737 -29.295  1.00  0.00    -0.086 SA
HETATM    9  C   UNL     1      -5.915   5.570 -30.930  1.00  0.00     0.135 C 
HETATM   10  C   UNL     1      -6.694   1.206 -31.793  1.00  0.00     0.069 C 
ENDROOT
BRANCH   6  11
HETATM   11  C   UNL     1      -6.477   4.829 -33.430  1.00  0.00     0.156 C 
BRANCH  11  12
HETATM   12  C   UNL     1      -5.060   4.767 -33.976  1.00  0.00     0.223 C 
HETATM   13  N   UNL     1      -4.133   4.084 -33.238  1.00  0.00    -0.359 N 
HETATM   14  H   UNL     1      -4.420   3.648 -32.358  1.00  0.00     0.162 HD
HETATM   15  O   UNL     1      -4.747   5.353 -35.011  1.00  0.00    -0.273 OA
BRANCH  13  16
HETATM   16  C   UNL     1      -2.685   4.166 -33.484  1.00  0.00     0.150 C 
BRANCH  16  17
HETATM   17  C   UNL     1      -1.833   4.887 -32.408  1.00  0.00     0.253 C 
BRANCH  17  18
HETATM   18  N   UNL     1      -1.075   6.086 -32.946  1.00  0.00    -0.077 N 
HETATM   19  H   UNL     1      -0.343   5.714 -33.583  1.00  0.00     0.279 HD
HETATM   20  C   UNL     1      -1.908   7.021 -33.778  1.00  0.00     0.269 C 
HETATM   21  C   UNL     1      -0.353   6.836 -31.860  1.00  0.00     0.269 C 
ENDBRANCH  17  18
ENDBRANCH  16  17
ENDBRANCH  13  16
ENDBRANCH  11  12
ENDBRANCH   6  11
BRANCH   7  22
HETATM   22  C   UNL     1      -8.967   2.263 -32.609  1.00  0.00     0.008 A 
HETATM   23  C   UNL     1      -9.832   1.164 -32.699  1.00  0.00     0.125 A 
HETATM   24  F   UNL     1      -9.667   0.112 -31.889  1.00  0.00    -0.205 F 
HETATM   25  C   UNL     1     -10.833   1.081 -33.665  1.00  0.00     0.043 A 
HETATM   26  C   UNL     1     -10.964   2.087 -34.614  1.00  0.00     0.003 A 
HETATM   27  C   UNL     1     -10.103   3.179 -34.581  1.00  0.00     0.001 A 
HETATM   28  C   UNL     1      -9.120   3.270 -33.588  1.00  0.00     0.013 A 
ENDBRANCH   7  22
BRANCH  10  29
HETATM   29  C   UNL     1      -6.318   0.695 -33.120  1.00  0.00     0.294 C 
HETATM   30  O   UNL     1      -5.578   1.357 -33.837  1.00  0.00    -0.259 OA
BRANCH  29  31
HETATM   31  O   UNL     1      -6.815  -0.525 -33.344  1.00  0.00    -0.313 OA
BRANCH  31  32
HETATM   32  C   UNL     1      -6.750  -1.004 -34.695  1.00  0.00     0.217 C 
BRANCH  32  33
HETATM   33  C   UNL     1      -6.061  -2.335 -34.632  1.00  0.00    -0.034 A 
HETATM   34  C   UNL     1      -6.759  -3.506 -34.957  1.00  0.00     0.009 A 
HETATM   35  C   UNL     1      -6.142  -4.750 -34.828  1.00  0.00     0.001 A 
HETATM   36  C   UNL     1      -4.829  -4.835 -34.370  1.00  0.00     0.000 A 
HETATM   37  C   UNL     1      -4.127  -3.676 -34.046  1.00  0.00     0.001 A 
HETATM   38  C   UNL     1      -4.739  -2.429 -34.173  1.00  0.00     0.009 A 
ENDBRANCH  32  33
ENDBRANCH  31  32
ENDBRANCH  29  31
ENDBRANCH  10  29
TORSDOF 10
ENDMDL
MODEL 2
REMARK VINA RESULT:      -8.5      3.570      8.814
REMARK  10 active torsions:
REMARK  status: ('A' for Active; 'I' for Inactive)
REMARK    1  A    between atoms: C_6  and  C_7 
REMARK    2  A    between atoms: C_7  and  C_8 
REMARK       I    between atoms: C_8  and  N_9 
REMARK    3  A    between atoms: N_9  and  C_10 
REMARK    4  A    between atoms: C_10  and  C_11 
REMARK    5  A    between atoms: C_11  and  N_12 
REMARK    6  A    between atoms: C_17  and  C_18 
REMARK    7  A    between atoms: C_27  and  C_28 
REMARK    8  A    between atoms: C_28  and  O_29 
REMARK    9  A    between atoms: O_29  and  C_30 
REMARK   10  A    between atoms: C_30  and  C_31 
ROOT
HETATM    1  C   UNL     1      -1.969   5.062 -34.796  1.00  0.00     0.071 C 
HETATM    2  C   UNL     1      -2.992   5.640 -33.846  1.00  0.00     0.048 C 
HETATM    3  N   UNL     1      -4.296   5.663 -34.357  1.00  0.00    -0.229 NA
HETATM    4  C   UNL     1      -5.253   5.537 -33.492  1.00  0.00     0.170 C 
HETATM    5  N   UNL     1      -4.998   5.598 -31.950  1.00  0.00    -0.318 N 
HETATM    6  C   UNL     1      -5.674   4.655 -31.382  1.00  0.00     0.011 C 
HETATM    7  C   UNL     1      -3.871   6.524 -31.761  1.00  0.00     0.169 C 
HETATM    8  S   UNL     1      -6.853   4.995 -33.826  1.00  0.00    -0.086 SA
HETATM    9  C   UNL     1      -6.894   4.194 -32.175  1.00  0.00     0.135 C 
HETATM   10  C   UNL     1      -2.743   5.937 -32.544  1.00  0.00     0.069 C 
ENDROOT
BRANCH   6  11
HETATM   11  C   UNL     1      -5.226   4.008 -30.101  1.00  0.00     0.156 C 
BRANCH  11  12
HETATM   12  C   UNL     1      -5.032   2.509 -30.261  1.00  0.00     0.223 C 
HETATM   13  N   UNL     1      -3.978   2.092 -31.029  1.00  0.00    -0.359 N 
HETATM   14  H   UNL     1      -3.371   2.792 -31.462  1.00  0.00     0.162 HD
HETATM   15  O   UNL     1      -5.820   1.704 -29.767  1.00  0.00    -0.273 OA
BRANCH  13  16
HETATM   16  C   UNL     1      -3.821   0.708 -31.501  1.00  0.00     0.150 C 
BRANCH  16  17
HETATM   17  C   UNL     1      -4.493   0.351 -32.852  1.00  0.00     0.253 C 
BRANCH  17  18
HETATM   18  N   UNL     1      -5.677  -0.587 -32.705  1.00  0.00    -0.077 N 
HETATM   19  H   UNL     1      -5.562  -1.070 -31.792  1.00  0.00     0.279 HD
HETATM   20  C   UNL     1      -7.009   0.107 -32.639  1.00  0.00     0.269 C 
HETATM   21  C   UNL     1      -5.684  -1.662 -33.757  1.00  0.00     0.269 C 
ENDBRANCH  17  18
ENDBRANCH  16  17
ENDBRANCH  13  16
ENDBRANCH  11  12
ENDBRANCH   6  11
BRANCH   7  22
HETATM   22  C   UNL     1      -3.646   7.297 -30.475  1.00  0.00     0.008 A 
HETATM   23  C   UNL     1      -2.905   8.485 -30.406  1.00  0.00     0.125 A 
HETATM   24  F   UNL     1      -2.471   9.071 -31.529  1.00  0.00    -0.205 F 
HETATM   25  C   UNL     1      -2.525   9.058 -29.194  1.00  0.00     0.043 A 
HETATM   26  C   UNL     1      -2.838   8.421 -28.000  1.00  0.00     0.003 A 
HETATM   27  C   UNL     1      -3.543   7.222 -28.025  1.00  0.00     0.001 A 
HETATM   28  C   UNL     1      -3.947   6.669 -29.245  1.00  0.00     0.013 A 
ENDBRANCH   7  22
BRANCH  10  29
HETATM   29  C   UNL     1      -1.660   5.284 -31.794  1.00  0.00     0.294 C 
HETATM   30  O   UNL     1      -1.781   4.116 -31.446  1.00  0.00    -0.259 OA
BRANCH  29  31
HETATM   31  O   UNL     1      -0.603   6.087 -31.642  1.00  0.00    -0.313 OA
BRANCH  31  32
HETATM   32  C   UNL     1       0.491   5.569 -30.871  1.00  0.00     0.217 C 
BRANCH  32  33
HETATM   33  C   UNL     1       0.469   6.312 -29.568  1.00  0.00    -0.034 A 
HETATM   34  C   UNL     1       0.889   7.647 -29.512  1.00  0.00     0.009 A 
HETATM   35  C   UNL     1       0.940   8.318 -28.290  1.00  0.00     0.001 A 
HETATM   36  C   UNL     1       0.578   7.659 -27.117  1.00  0.00     0.000 A 
HETATM   37  C   UNL     1       0.158   6.331 -27.163  1.00  0.00     0.001 A 
HETATM   38  C   UNL     1       0.106   5.657 -28.382  1.00  0.00     0.009 A 
ENDBRANCH  32  33
ENDBRANCH  31  32
ENDBRANCH  29  31
ENDBRANCH  10  29
TORSDOF 10
ENDMDL
MODEL 3
REMARK VINA RESULT:      -8.4      2.671      4.434
REMARK  10 active torsions:
REMARK  status: ('A' for Active; 'I' for Inactive)
REMARK    1  A    between atoms: C_6  and  C_7 
REMARK    2  A    between atoms: C_7  and  C_8 
REMARK       I    between atoms: C_8  and  N_9 
REMARK    3  A    between atoms: N_9  and  C_10 
REMARK    4  A    between atoms: C_10  and  C_11 
REMARK    5  A    between atoms: C_11  and  N_12 
REMARK    6  A    between atoms: C_17  and  C_18 
REMARK    7  A    between atoms: C_27  and  C_28 
REMARK    8  A    between atoms: C_28  and  O_29 
REMARK    9  A    between atoms: O_29  and  C_30 
REMARK   10  A    between atoms: C_30  and  C_31 
ROOT
HETATM    1  C   UNL     1      -8.894   0.025 -33.067  1.00  0.00     0.071 C 
HETATM    2  C   UNL     1      -8.313   1.418 -32.990  1.00  0.00     0.048 C 
HETATM    3  N   UNL     1      -9.253   2.411 -32.683  1.00  0.00    -0.229 NA
HETATM    4  C   UNL     1      -8.812   3.430 -32.015  1.00  0.00     0.170 C 
HETATM    5  N   UNL     1      -7.286   3.670 -31.768  1.00  0.00    -0.318 N 
HETATM    6  C   UNL     1      -7.118   4.023 -30.537  1.00  0.00     0.011 C 
HETATM    7  C   UNL     1      -6.593   3.133 -32.949  1.00  0.00     0.169 C 
HETATM    8  S   UNL     1      -9.761   4.495 -31.052  1.00  0.00    -0.086 SA
HETATM    9  C   UNL     1      -8.346   4.663 -29.895  1.00  0.00     0.135 C 
HETATM   10  C   UNL     1      -6.983   1.692 -33.013  1.00  0.00     0.069 C 
ENDROOT
BRANCH   6  11
HETATM   11  C   UNL     1      -5.849   3.729 -29.784  1.00  0.00     0.156 C 
BRANCH  11  12
HETATM   12  C   UNL     1      -5.234   4.988 -29.197  1.00  0.00     0.223 C 
HETATM   13  N   UNL     1      -5.300   5.144 -27.839  1.00  0.00    -0.359 N 
HETATM   14  H   UNL     1      -5.756   4.422 -27.277  1.00  0.00     0.162 HD
HETATM   15  O   UNL     1      -4.744   5.857 -29.917  1.00  0.00    -0.273 OA
BRANCH  13  16
HETATM   16  C   UNL     1      -5.005   6.413 -27.157  1.00  0.00     0.150 C 
BRANCH  16  17
HETATM   17  C   UNL     1      -3.548   6.620 -26.667  1.00  0.00     0.253 C 
BRANCH  17  18
HETATM   18  N   UNL     1      -2.576   6.934 -27.788  1.00  0.00    -0.077 N 
HETATM   19  H   UNL     1      -2.729   6.218 -28.525  1.00  0.00     0.279 HD
HETATM   20  C   UNL     1      -2.808   8.263 -28.452  1.00  0.00     0.269 C 
HETATM   21  C   UNL     1      -1.142   6.797 -27.353  1.00  0.00     0.269 C 
ENDBRANCH  17  18
ENDBRANCH  16  17
ENDBRANCH  13  16
ENDBRANCH  11  12
ENDBRANCH   6  11
BRANCH   7  22
HETATM   22  C   UNL     1      -5.229   3.621 -33.399  1.00  0.00     0.008 A 
HETATM   23  C   UNL     1      -4.055   3.425 -32.659  1.00  0.00     0.125 A 
HETATM   24  F   UNL     1      -4.073   2.658 -31.563  1.00  0.00    -0.205 F 
HETATM   25  C   UNL     1      -2.859   4.067 -32.974  1.00  0.00     0.043 A 
HETATM   26  C   UNL     1      -2.817   4.975 -34.025  1.00  0.00     0.003 A 
HETATM   27  C   UNL     1      -3.969   5.224 -34.764  1.00  0.00     0.001 A 
HETATM   28  C   UNL     1      -5.159   4.553 -34.459  1.00  0.00     0.013 A 
ENDBRANCH   7  22
BRANCH  10  29
HETATM   29  C   UNL     1      -5.978   0.696 -32.614  1.00  0.00     0.294 C 
HETATM   30  O   UNL     1      -5.828   0.429 -31.428  1.00  0.00    -0.259 OA
BRANCH  29  31
HETATM   31  O   UNL     1      -5.377   0.141 -33.670  1.00  0.00    -0.313 OA
BRANCH  31  32
HETATM   32  C   UNL     1      -4.374  -0.846 -33.391  1.00  0.00     0.217 C 
BRANCH  32  33
HETATM   33  C   UNL     1      -4.937  -2.155 -33.857  1.00  0.00    -0.034 A 
HETATM   34  C   UNL     1      -4.147  -3.312 -33.829  1.00  0.00     0.009 A 
HETATM   35  C   UNL     1      -4.642  -4.516 -34.329  1.00  0.00     0.001 A 
HETATM   36  C   UNL     1      -5.927  -4.571 -34.866  1.00  0.00     0.000 A 
HETATM   37  C   UNL     1      -6.721  -3.426 -34.898  1.00  0.00     0.001 A 
HETATM   38  C   UNL     1      -6.229  -2.221 -34.398  1.00  0.00     0.009 A 
ENDBRANCH  32  33
ENDBRANCH  31  32
ENDBRANCH  29  31
ENDBRANCH  10  29
TORSDOF 10
ENDMDL
MODEL 4
REMARK VINA RESULT:      -8.2      2.894      5.638
REMARK  10 active torsions:
REMARK  status: ('A' for Active; 'I' for Inactive)
REMARK    1  A    between atoms: C_6  and  C_7 
REMARK    2  A    between atoms: C_7  and  C_8 
REMARK       I    between atoms: C_8  and  N_9 
REMARK    3  A    between atoms: N_9  and  C_10 
REMARK    4  A    between atoms: C_10  and  C_11 
REMARK    5  A    between atoms: C_11  and  N_12 
REMARK    6  A    between atoms: C_17  and  C_18 
REMARK    7  A    between atoms: C_27  and  C_28 
REMARK    8  A    between atoms: C_28  and  O_29 
REMARK    9  A    between atoms: O_29  and  C_30 
REMARK   10  A    between atoms: C_30  and  C_31 
ROOT
HETATM    1  C   UNL     1      -7.321   6.226 -32.736  1.00  0.00     0.071 C 
HETATM    2  C   UNL     1      -6.287   5.199 -33.136  1.00  0.00     0.048 C 
HETATM    3  N   UNL     1      -5.465   5.602 -34.197  1.00  0.00    -0.229 NA
HETATM    4  C   UNL     1      -4.256   5.136 -34.194  1.00  0.00     0.170 C 
HETATM    5  N   UNL     1      -3.799   4.007 -33.214  1.00  0.00    -0.318 N 
HETATM    6  C   UNL     1      -2.640   4.319 -32.735  1.00  0.00     0.011 C 
HETATM    7  C   UNL     1      -4.980   3.157 -32.992  1.00  0.00     0.169 C 
HETATM    8  S   UNL     1      -2.902   5.833 -34.997  1.00  0.00    -0.086 SA
HETATM    9  C   UNL     1      -1.829   5.260 -33.622  1.00  0.00     0.135 C 
HETATM   10  C   UNL     1      -6.021   4.069 -32.432  1.00  0.00     0.069 C 
ENDROOT
BRANCH   6  11
HETATM   11  C   UNL     1      -2.187   3.870 -31.374  1.00  0.00     0.156 C 
BRANCH  11  12
HETATM   12  C   UNL     1      -1.219   4.857 -30.744  1.00  0.00     0.223 C 
HETATM   13  N   UNL     1      -1.752   5.980 -30.170  1.00  0.00    -0.359 N 
HETATM   14  H   UNL     1      -2.766   6.113 -30.187  1.00  0.00     0.162 HD
HETATM   15  O   UNL     1      -0.002   4.683 -30.796  1.00  0.00    -0.273 OA
BRANCH  13  16
HETATM   16  C   UNL     1      -0.946   7.144 -29.773  1.00  0.00     0.150 C 
BRANCH  16  17
HETATM   17  C   UNL     1      -1.124   7.654 -28.320  1.00  0.00     0.253 C 
BRANCH  17  18
HETATM   18  N   UNL     1      -1.617   6.583 -27.364  1.00  0.00    -0.077 N 
HETATM   19  H   UNL     1      -1.872   5.760 -27.945  1.00  0.00     0.279 HD
HETATM   20  C   UNL     1      -0.578   6.096 -26.393  1.00  0.00     0.269 C 
HETATM   21  C   UNL     1      -2.870   6.999 -26.643  1.00  0.00     0.269 C 
ENDBRANCH  17  18
ENDBRANCH  16  17
ENDBRANCH  13  16
ENDBRANCH  11  12
ENDBRANCH   6  11
BRANCH   7  22
HETATM   22  C   UNL     1      -4.882   1.698 -32.591  1.00  0.00     0.008 A 
HETATM   23  C   UNL     1      -5.615   0.675 -33.207  1.00  0.00     0.125 A 
HETATM   24  F   UNL     1      -6.349   0.938 -34.295  1.00  0.00    -0.205 F 
HETATM   25  C   UNL     1      -5.680  -0.615 -32.685  1.00  0.00     0.043 A 
HETATM   26  C   UNL     1      -5.043  -0.909 -31.486  1.00  0.00     0.003 A 
HETATM   27  C   UNL     1      -4.331   0.087 -30.824  1.00  0.00     0.001 A 
HETATM   28  C   UNL     1      -4.246   1.372 -31.371  1.00  0.00     0.013 A 
ENDBRANCH   7  22
BRANCH  10  29
HETATM   29  C   UNL     1      -6.318   3.962 -30.996  1.00  0.00     0.294 C 
HETATM   30  O   UNL     1      -5.464   4.273 -30.175  1.00  0.00    -0.259 OA
BRANCH  29  31
HETATM   31  O   UNL     1      -7.578   3.577 -30.774  1.00  0.00    -0.313 OA
BRANCH  31  32
HETATM   32  C   UNL     1      -7.791   2.175 -30.556  1.00  0.00     0.217 C 
BRANCH  32  33
HETATM   33  C   UNL     1      -8.754   1.731 -31.616  1.00  0.00    -0.034 A 
HETATM   34  C   UNL     1      -9.460   2.679 -32.369  1.00  0.00     0.009 A 
HETATM   35  C   UNL     1     -10.410   2.269 -33.304  1.00  0.00     0.001 A 
HETATM   36  C   UNL     1     -10.665   0.912 -33.491  1.00  0.00     0.000 A 
HETATM   37  C   UNL     1      -9.969  -0.038 -32.747  1.00  0.00     0.001 A 
HETATM   38  C   UNL     1      -9.018   0.367 -31.811  1.00  0.00     0.009 A 
ENDBRANCH  32  33
ENDBRANCH  31  32
ENDBRANCH  29  31
ENDBRANCH  10  29
TORSDOF 10
ENDMDL
MODEL 5
REMARK VINA RESULT:      -8.1      2.406      4.307
REMARK  10 active torsions:
REMARK  status: ('A' for Active; 'I' for Inactive)
REMARK    1  A    between atoms: C_6  and  C_7 
REMARK    2  A    between atoms: C_7  and  C_8 
REMARK       I    between atoms: C_8  and  N_9 
REMARK    3  A    between atoms: N_9  and  C_10 
REMARK    4  A    between atoms: C_10  and  C_11 
REMARK    5  A    between atoms: C_11  and  N_12 
REMARK    6  A    between atoms: C_17  and  C_18 
REMARK    7  A    between atoms: C_27  and  C_28 
REMARK    8  A    between atoms: C_28  and  O_29 
REMARK    9  A    between atoms: O_29  and  C_30 
REMARK   10  A    between atoms: C_30  and  C_31 
ROOT
HETATM    1  C   UNL     1      -9.081   1.021 -33.934  1.00  0.00     0.071 C 
HETATM    2  C   UNL     1      -8.311   2.318 -33.843  1.00  0.00     0.048 C 
HETATM    3  N   UNL     1      -9.122   3.461 -33.807  1.00  0.00    -0.229 NA
HETATM    4  C   UNL     1      -8.659   4.471 -33.140  1.00  0.00     0.170 C 
HETATM    5  N   UNL     1      -7.190   4.517 -32.607  1.00  0.00    -0.318 N 
HETATM    6  C   UNL     1      -7.204   4.969 -31.397  1.00  0.00     0.011 C 
HETATM    7  C   UNL     1      -6.380   3.768 -33.581  1.00  0.00     0.169 C 
HETATM    8  S   UNL     1      -9.593   5.753 -32.471  1.00  0.00    -0.086 SA
HETATM    9  C   UNL     1      -8.413   5.838 -31.067  1.00  0.00     0.135 C 
HETATM   10  C   UNL     1      -6.975   2.399 -33.616  1.00  0.00     0.069 C 
ENDROOT
BRANCH   6  11
HETATM   11  C   UNL     1      -6.164   4.578 -30.383  1.00  0.00     0.156 C 
BRANCH  11  12
HETATM   12  C   UNL     1      -5.299   5.759 -29.973  1.00  0.00     0.223 C 
HETATM   13  N   UNL     1      -4.878   6.602 -30.966  1.00  0.00    -0.359 N 
HETATM   14  H   UNL     1      -5.152   6.409 -31.932  1.00  0.00     0.162 HD
HETATM   15  O   UNL     1      -4.948   5.920 -28.806  1.00  0.00    -0.273 OA
BRANCH  13  16
HETATM   16  C   UNL     1      -3.827   7.612 -30.774  1.00  0.00     0.150 C 
BRANCH  16  17
HETATM   17  C   UNL     1      -2.363   7.148 -30.994  1.00  0.00     0.253 C 
BRANCH  17  18
HETATM   18  N   UNL     1      -1.805   6.350 -29.831  1.00  0.00    -0.077 N 
HETATM   19  H   UNL     1      -2.502   5.610 -29.616  1.00  0.00     0.279 HD
HETATM   20  C   UNL     1      -0.521   5.631 -30.136  1.00  0.00     0.269 C 
HETATM   21  C   UNL     1      -1.670   7.181 -28.584  1.00  0.00     0.269 C 
ENDBRANCH  17  18
ENDBRANCH  16  17
ENDBRANCH  13  16
ENDBRANCH  11  12
ENDBRANCH   6  11
BRANCH   7  22
HETATM   22  C   UNL     1      -4.895   4.010 -33.778  1.00  0.00     0.008 A 
HETATM   23  C   UNL     1      -3.923   3.673 -32.827  1.00  0.00     0.125 A 
HETATM   24  F   UNL     1      -4.266   2.980 -31.734  1.00  0.00    -0.205 F 
HETATM   25  C   UNL     1      -2.600   4.100 -32.929  1.00  0.00     0.043 A 
HETATM   26  C   UNL     1      -2.220   4.931 -33.976  1.00  0.00     0.003 A 
HETATM   27  C   UNL     1      -3.163   5.317 -34.923  1.00  0.00     0.001 A 
HETATM   28  C   UNL     1      -4.482   4.859 -34.831  1.00  0.00     0.013 A 
ENDBRANCH   7  22
BRANCH  10  29
HETATM   29  C   UNL     1      -6.235   1.317 -32.949  1.00  0.00     0.294 C 
HETATM   30  O   UNL     1      -6.316   1.187 -31.734  1.00  0.00    -0.259 OA
BRANCH  29  31
HETATM   31  O   UNL     1      -5.588   0.541 -33.823  1.00  0.00    -0.313 OA
BRANCH  31  32
HETATM   32  C   UNL     1      -4.674  -0.419 -33.273  1.00  0.00     0.217 C 
BRANCH  32  33
HETATM   33  C   UNL     1      -5.129  -1.759 -33.771  1.00  0.00    -0.034 A 
HETATM   34  C   UNL     1      -4.222  -2.824 -33.856  1.00  0.00     0.009 A 
HETATM   35  C   UNL     1      -4.624  -4.049 -34.388  1.00  0.00     0.001 A 
HETATM   36  C   UNL     1      -5.930  -4.218 -34.842  1.00  0.00     0.000 A 
HETATM   37  C   UNL     1      -6.839  -3.165 -34.762  1.00  0.00     0.001 A 
HETATM   38  C   UNL     1      -6.442  -1.938 -34.231  1.00  0.00     0.009 A 
ENDBRANCH  32  33
ENDBRANCH  31  32
ENDBRANCH  29  31
ENDBRANCH  10  29
TORSDOF 10
ENDMDL
MODEL 6
REMARK VINA RESULT:      -8.0      2.709      4.726
REMARK  10 active torsions:
REMARK  status: ('A' for Active; 'I' for Inactive)
REMARK    1  A    between atoms: C_6  and  C_7 
REMARK    2  A    between atoms: C_7  and  C_8 
REMARK       I    between atoms: C_8  and  N_9 
REMARK    3  A    between atoms: N_9  and  C_10 
REMARK    4  A    between atoms: C_10  and  C_11 
REMARK    5  A    between atoms: C_11  and  N_12 
REMARK    6  A    between atoms: C_17  and  C_18 
REMARK    7  A    between atoms: C_27  and  C_28 
REMARK    8  A    between atoms: C_28  and  O_29 
REMARK    9  A    between atoms: O_29  and  C_30 
REMARK   10  A    between atoms: C_30  and  C_31 
ROOT
HETATM    1  C   UNL     1      -8.528   1.643 -33.183  1.00  0.00     0.071 C 
HETATM    2  C   UNL     1      -7.695   2.902 -33.237  1.00  0.00     0.048 C 
HETATM    3  N   UNL     1      -8.450   4.082 -33.291  1.00  0.00    -0.229 NA
HETATM    4  C   UNL     1      -7.919   5.127 -32.737  1.00  0.00     0.170 C 
HETATM    5  N   UNL     1      -6.433   5.150 -32.249  1.00  0.00    -0.318 N 
HETATM    6  C   UNL     1      -6.389   5.715 -31.089  1.00  0.00     0.011 C 
HETATM    7  C   UNL     1      -5.690   4.272 -33.167  1.00  0.00     0.169 C 
HETATM    8  S   UNL     1      -8.770   6.512 -32.170  1.00  0.00    -0.086 SA
HETATM    9  C   UNL     1      -7.545   6.671 -30.812  1.00  0.00     0.135 C 
HETATM   10  C   UNL     1      -6.350   2.937 -33.054  1.00  0.00     0.069 C 
ENDROOT
BRANCH   6  11
HETATM   11  C   UNL     1      -5.338   5.370 -30.069  1.00  0.00     0.156 C 
BRANCH  11  12
HETATM   12  C   UNL     1      -4.264   6.441 -29.978  1.00  0.00     0.223 C 
HETATM   13  N   UNL     1      -3.641   6.604 -28.771  1.00  0.00    -0.359 N 
HETATM   14  H   UNL     1      -3.917   6.011 -27.985  1.00  0.00     0.162 HD
HETATM   15  O   UNL     1      -4.003   7.169 -30.935  1.00  0.00    -0.273 OA
BRANCH  13  16
HETATM   16  C   UNL     1      -2.792   7.762 -28.450  1.00  0.00     0.150 C 
BRANCH  16  17
HETATM   17  C   UNL     1      -1.265   7.587 -28.654  1.00  0.00     0.253 C 
BRANCH  17  18
HETATM   18  N   UNL     1      -0.744   6.247 -28.168  1.00  0.00    -0.077 N 
HETATM   19  H   UNL     1      -1.525   5.570 -28.266  1.00  0.00     0.279 HD
HETATM   20  C   UNL     1       0.388   5.691 -28.986  1.00  0.00     0.269 C 
HETATM   21  C   UNL     1      -0.385   6.274 -26.707  1.00  0.00     0.269 C 
ENDBRANCH  17  18
ENDBRANCH  16  17
ENDBRANCH  13  16
ENDBRANCH  11  12
ENDBRANCH   6  11
BRANCH   7  22
HETATM   22  C   UNL     1      -4.203   4.420 -33.425  1.00  0.00     0.008 A 
HETATM   23  C   UNL     1      -3.218   4.115 -32.475  1.00  0.00     0.125 A 
HETATM   24  F   UNL     1      -3.560   3.537 -31.318  1.00  0.00    -0.205 F 
HETATM   25  C   UNL     1      -1.880   4.463 -32.650  1.00  0.00     0.043 A 
HETATM   26  C   UNL     1      -1.493   5.181 -33.776  1.00  0.00     0.003 A 
HETATM   27  C   UNL     1      -2.445   5.532 -34.727  1.00  0.00     0.001 A 
HETATM   28  C   UNL     1      -3.782   5.152 -34.559  1.00  0.00     0.013 A 
ENDBRANCH   7  22
BRANCH  10  29
HETATM   29  C   UNL     1      -5.642   1.888 -32.305  1.00  0.00     0.294 C 
HETATM   30  O   UNL     1      -5.725   1.854 -31.084  1.00  0.00    -0.259 OA
BRANCH  29  31
HETATM   31  O   UNL     1      -5.020   1.028 -33.116  1.00  0.00    -0.313 OA
BRANCH  31  32
HETATM   32  C   UNL     1      -4.573  -0.201 -32.526  1.00  0.00     0.217 C 
BRANCH  32  33
HETATM   33  C   UNL     1      -5.110  -1.300 -33.394  1.00  0.00    -0.034 A 
HETATM   34  C   UNL     1      -6.464  -1.314 -33.756  1.00  0.00     0.009 A 
HETATM   35  C   UNL     1      -6.982  -2.372 -34.502  1.00  0.00     0.001 A 
HETATM   36  C   UNL     1      -6.154  -3.425 -34.886  1.00  0.00     0.000 A 
HETATM   37  C   UNL     1      -4.807  -3.420 -34.532  1.00  0.00     0.001 A 
HETATM   38  C   UNL     1      -4.284  -2.364 -33.786  1.00  0.00     0.009 A 
ENDBRANCH  32  33
ENDBRANCH  31  32
ENDBRANCH  29  31
ENDBRANCH  10  29
TORSDOF 10
ENDMDL
MODEL 7
REMARK VINA RESULT:      -8.0      2.734      7.964
REMARK  10 active torsions:
REMARK  status: ('A' for Active; 'I' for Inactive)
REMARK    1  A    between atoms: C_6  and  C_7 
REMARK    2  A    between atoms: C_7  and  C_8 
REMARK       I    between atoms: C_8  and  N_9 
REMARK    3  A    between atoms: N_9  and  C_10 
REMARK    4  A    between atoms: C_10  and  C_11 
REMARK    5  A    between atoms: C_11  and  N_12 
REMARK    6  A    between atoms: C_17  and  C_18 
REMARK    7  A    between atoms: C_27  and  C_28 
REMARK    8  A    between atoms: C_28  and  O_29 
REMARK    9  A    between atoms: O_29  and  C_30 
REMARK   10  A    between atoms: C_30  and  C_31 
ROOT
HETATM    1  C   UNL     1      -3.701   5.058 -35.069  1.00  0.00     0.071 C 
HETATM    2  C   UNL     1      -4.595   5.058 -33.851  1.00  0.00     0.048 C 
HETATM    3  N   UNL     1      -5.939   4.775 -34.131  1.00  0.00    -0.229 NA
HETATM    4  C   UNL     1      -6.602   4.164 -33.200  1.00  0.00     0.170 C 
HETATM    5  N   UNL     1      -6.027   3.964 -31.759  1.00  0.00    -0.318 N 
HETATM    6  C   UNL     1      -6.276   2.755 -31.380  1.00  0.00     0.011 C 
HETATM    7  C   UNL     1      -5.177   5.136 -31.494  1.00  0.00     0.169 C 
HETATM    8  S   UNL     1      -8.030   3.228 -33.423  1.00  0.00    -0.086 SA
HETATM    9  C   UNL     1      -7.474   2.114 -32.074  1.00  0.00     0.135 C 
HETATM   10  C   UNL     1      -4.144   5.125 -32.572  1.00  0.00     0.069 C 
ENDROOT
BRANCH   6  11
HETATM   11  C   UNL     1      -5.389   2.019 -30.413  1.00  0.00     0.156 C 
BRANCH  11  12
HETATM   12  C   UNL     1      -4.997   0.647 -30.935  1.00  0.00     0.223 C 
HETATM   13  N   UNL     1      -3.763   0.525 -31.514  1.00  0.00    -0.359 N 
HETATM   14  H   UNL     1      -3.159   1.349 -31.576  1.00  0.00     0.162 HD
HETATM   15  O   UNL     1      -5.778  -0.303 -30.889  1.00  0.00    -0.273 OA
BRANCH  13  16
HETATM   16  C   UNL     1      -3.353  -0.646 -32.303  1.00  0.00     0.150 C 
BRANCH  16  17
HETATM   17  C   UNL     1      -3.983  -0.795 -33.712  1.00  0.00     0.253 C 
BRANCH  17  18
HETATM   18  N   UNL     1      -5.203  -1.697 -33.733  1.00  0.00    -0.077 N 
HETATM   19  H   UNL     1      -5.404  -1.949 -32.745  1.00  0.00     0.279 HD
HETATM   20  C   UNL     1      -6.450  -1.038 -34.252  1.00  0.00     0.269 C 
HETATM   21  C   UNL     1      -4.941  -2.990 -34.456  1.00  0.00     0.269 C 
ENDBRANCH  17  18
ENDBRANCH  16  17
ENDBRANCH  13  16
ENDBRANCH  11  12
ENDBRANCH   6  11
BRANCH   7  22
HETATM   22  C   UNL     1      -4.880   5.638 -30.094  1.00  0.00     0.008 A 
HETATM   23  C   UNL     1      -5.760   5.485 -29.014  1.00  0.00     0.125 A 
HETATM   24  F   UNL     1      -6.869   4.749 -29.152  1.00  0.00    -0.205 F 
HETATM   25  C   UNL     1      -5.571   6.142 -27.799  1.00  0.00     0.043 A 
HETATM   26  C   UNL     1      -4.506   7.021 -27.646  1.00  0.00     0.003 A 
HETATM   27  C   UNL     1      -3.628   7.227 -28.706  1.00  0.00     0.001 A 
HETATM   28  C   UNL     1      -3.808   6.541 -29.912  1.00  0.00     0.013 A 
ENDBRANCH   7  22
BRANCH  10  29
HETATM   29  C   UNL     1      -2.783   4.704 -32.207  1.00  0.00     0.294 C 
HETATM   30  O   UNL     1      -2.574   3.541 -31.883  1.00  0.00    -0.259 OA
BRANCH  29  31
HETATM   31  O   UNL     1      -1.898   5.694 -32.351  1.00  0.00    -0.313 OA
BRANCH  31  32
HETATM   32  C   UNL     1      -0.519   5.357 -32.143  1.00  0.00     0.217 C 
BRANCH  32  33
HETATM   33  C   UNL     1      -0.163   5.878 -30.783  1.00  0.00    -0.034 A 
HETATM   34  C   UNL     1      -0.288   7.244 -30.498  1.00  0.00     0.009 A 
HETATM   35  C   UNL     1       0.112   7.744 -29.258  1.00  0.00     0.001 A 
HETATM   36  C   UNL     1       0.642   6.884 -28.298  1.00  0.00     0.000 A 
HETATM   37  C   UNL     1       0.770   5.524 -28.572  1.00  0.00     0.001 A 
HETATM   38  C   UNL     1       0.372   5.021 -29.810  1.00  0.00     0.009 A 
ENDBRANCH  32  33
ENDBRANCH  31  32
ENDBRANCH  29  31
ENDBRANCH  10  29
TORSDOF 10
ENDMDL
MODEL 8
REMARK VINA RESULT:      -7.9      2.630      7.874
REMARK  10 active torsions:
REMARK  status: ('A' for Active; 'I' for Inactive)
REMARK    1  A    between atoms: C_6  and  C_7 
REMARK    2  A    between atoms: C_7  and  C_8 
REMARK       I    between atoms: C_8  and  N_9 
REMARK    3  A    between atoms: N_9  and  C_10 
REMARK    4  A    between atoms: C_10  and  C_11 
REMARK    5  A    between atoms: C_11  and  N_12 
REMARK    6  A    between atoms: C_17  and  C_18 
REMARK    7  A    between atoms: C_27  and  C_28 
REMARK    8  A    between atoms: C_28  and  O_29 
REMARK    9  A    between atoms: O_29  and  C_30 
REMARK   10  A    between atoms: C_30  and  C_31 
ROOT
HETATM    1  C   UNL     1      -5.179   6.582 -31.816  1.00  0.00     0.071 C 
HETATM    2  C   UNL     1      -5.740   5.205 -31.551  1.00  0.00     0.048 C 
HETATM    3  N   UNL     1      -6.791   5.186 -30.624  1.00  0.00    -0.229 NA
HETATM    4  C   UNL     1      -7.687   4.264 -30.792  1.00  0.00     0.170 C 
HETATM    5  N   UNL     1      -7.498   3.092 -31.810  1.00  0.00    -0.318 N 
HETATM    6  C   UNL     1      -8.606   2.922 -32.453  1.00  0.00     0.011 C 
HETATM    7  C   UNL     1      -6.054   2.814 -31.848  1.00  0.00     0.169 C 
HETATM    8  S   UNL     1      -9.303   4.306 -30.200  1.00  0.00    -0.086 SA
HETATM    9  C   UNL     1      -9.845   3.405 -31.706  1.00  0.00     0.135 C 
HETATM   10  C   UNL     1      -5.417   4.098 -32.269  1.00  0.00     0.069 C 
ENDROOT
BRANCH   6  11
HETATM   11  C   UNL     1      -8.643   2.387 -33.858  1.00  0.00     0.156 C 
BRANCH  11  12
HETATM   12  C   UNL     1      -9.990   1.768 -34.193  1.00  0.00     0.223 C 
HETATM   13  N   UNL     1     -10.813   2.472 -35.029  1.00  0.00    -0.359 N 
HETATM   14  H   UNL     1     -10.500   3.376 -35.391  1.00  0.00     0.162 HD
HETATM   15  O   UNL     1     -10.348   0.704 -33.691  1.00  0.00    -0.273 OA
BRANCH  13  16
HETATM   16  C   UNL     1     -12.234   2.146 -35.225  1.00  0.00     0.150 C 
BRANCH  16  17
HETATM   17  C   UNL     1     -13.234   2.736 -34.196  1.00  0.00     0.253 C 
BRANCH  17  18
HETATM   18  N   UNL     1     -14.389   1.804 -33.879  1.00  0.00    -0.077 N 
HETATM   19  H   UNL     1     -15.118   1.979 -34.598  1.00  0.00     0.279 HD
HETATM   20  C   UNL     1     -14.049   0.343 -33.983  1.00  0.00     0.269 C 
HETATM   21  C   UNL     1     -15.020   2.114 -32.549  1.00  0.00     0.269 C 
ENDBRANCH  17  18
ENDBRANCH  16  17
ENDBRANCH  13  16
ENDBRANCH  11  12
ENDBRANCH   6  11
BRANCH   7  22
HETATM   22  C   UNL     1      -5.484   1.463 -32.237  1.00  0.00     0.008 A 
HETATM   23  C   UNL     1      -4.227   1.004 -31.820  1.00  0.00     0.125 A 
HETATM   24  F   UNL     1      -3.521   1.706 -30.926  1.00  0.00    -0.205 F 
HETATM   25  C   UNL     1      -3.631  -0.133 -32.361  1.00  0.00     0.043 A 
HETATM   26  C   UNL     1      -4.264  -0.825 -33.386  1.00  0.00     0.003 A 
HETATM   27  C   UNL     1      -5.498  -0.383 -33.853  1.00  0.00     0.001 A 
HETATM   28  C   UNL     1      -6.104   0.743 -33.283  1.00  0.00     0.013 A 
ENDBRANCH   7  22
BRANCH  10  29
HETATM   29  C   UNL     1      -4.910   4.187 -33.646  1.00  0.00     0.294 C 
HETATM   30  O   UNL     1      -5.631   3.859 -34.580  1.00  0.00    -0.259 OA
BRANCH  29  31
HETATM   31  O   UNL     1      -3.680   4.707 -33.693  1.00  0.00    -0.313 OA
BRANCH  31  32
HETATM   32  C   UNL     1      -2.643   3.956 -33.045  1.00  0.00     0.217 C 
BRANCH  32  33
HETATM   33  C   UNL     1      -1.726   4.966 -32.422  1.00  0.00    -0.034 A 
HETATM   34  C   UNL     1      -1.228   4.762 -31.128  1.00  0.00     0.009 A 
HETATM   35  C   UNL     1      -0.435   5.734 -30.518  1.00  0.00     0.001 A 
HETATM   36  C   UNL     1      -0.138   6.916 -31.193  1.00  0.00     0.000 A 
HETATM   37  C   UNL     1      -0.628   7.128 -32.480  1.00  0.00     0.001 A 
HETATM   38  C   UNL     1      -1.421   6.159 -33.094  1.00  0.00     0.009 A 
ENDBRANCH  32  33
ENDBRANCH  31  32
ENDBRANCH  29  31
ENDBRANCH  10  29
TORSDOF 10
ENDMDL
MODEL 9
REMARK VINA RESULT:      -7.8      3.684      6.819
REMARK  10 active torsions:
REMARK  status: ('A' for Active; 'I' for Inactive)
REMARK    1  A    between atoms: C_6  and  C_7 
REMARK    2  A    between atoms: C_7  and  C_8 
REMARK       I    between atoms: C_8  and  N_9 
REMARK    3  A    between atoms: N_9  and  C_10 
REMARK    4  A    between atoms: C_10  and  C_11 
REMARK    5  A    between atoms: C_11  and  N_12 
REMARK    6  A    between atoms: C_17  and  C_18 
REMARK    7  A    between atoms: C_27  and  C_28 
REMARK    8  A    between atoms: C_28  and  O_29 
REMARK    9  A    between atoms: O_29  and  C_30 
REMARK   10  A    between atoms: C_30  and  C_31 
ROOT
HETATM    1  C   UNL     1     -11.544   1.999 -34.584  1.00  0.00     0.071 C 
HETATM    2  C   UNL     1     -10.400   2.983 -34.502  1.00  0.00     0.048 C 
HETATM    3  N   UNL     1     -10.542   4.094 -35.344  1.00  0.00    -0.229 NA
HETATM    4  C   UNL     1     -10.014   5.202 -34.925  1.00  0.00     0.170 C 
HETATM    5  N   UNL     1      -9.068   5.257 -33.681  1.00  0.00    -0.318 N 
HETATM    6  C   UNL     1      -9.397   6.276 -32.958  1.00  0.00     0.011 C 
HETATM    7  C   UNL     1      -8.348   3.974 -33.659  1.00  0.00     0.169 C 
HETATM    8  S   UNL     1     -10.463   6.787 -35.423  1.00  0.00    -0.086 SA
HETATM    9  C   UNL     1     -10.101   7.390 -33.727  1.00  0.00     0.135 C 
HETATM   10  C   UNL     1      -9.411   2.929 -33.572  1.00  0.00     0.069 C 
ENDROOT
BRANCH   6  11
HETATM   11  C   UNL     1      -9.189   6.302 -31.468  1.00  0.00     0.156 C 
BRANCH  11  12
HETATM   12  C   UNL     1     -10.508   6.290 -30.713  1.00  0.00     0.223 C 
HETATM   13  N   UNL     1     -11.416   5.324 -31.052  1.00  0.00    -0.359 N 
HETATM   14  H   UNL     1     -11.181   4.657 -31.790  1.00  0.00     0.162 HD
HETATM   15  O   UNL     1     -10.771   7.147 -29.870  1.00  0.00    -0.273 OA
BRANCH  13  16
HETATM   16  C   UNL     1     -12.821   5.349 -30.617  1.00  0.00     0.150 C 
BRANCH  16  17
HETATM   17  C   UNL     1     -13.543   3.980 -30.508  1.00  0.00     0.253 C 
BRANCH  17  18
HETATM   18  N   UNL     1     -13.773   3.315 -31.852  1.00  0.00    -0.077 N 
HETATM   19  H   UNL     1     -12.933   2.736 -32.046  1.00  0.00     0.279 HD
HETATM   20  C   UNL     1     -14.941   2.368 -31.880  1.00  0.00     0.269 C 
HETATM   21  C   UNL     1     -13.868   4.314 -32.972  1.00  0.00     0.269 C 
ENDBRANCH  17  18
ENDBRANCH  16  17
ENDBRANCH  13  16
ENDBRANCH  11  12
ENDBRANCH   6  11
BRANCH   7  22
HETATM   22  C   UNL     1      -6.989   3.802 -33.007  1.00  0.00     0.008 A 
HETATM   23  C   UNL     1      -5.936   3.087 -33.593  1.00  0.00     0.125 A 
HETATM   24  F   UNL     1      -6.050   2.630 -34.846  1.00  0.00    -0.205 F 
HETATM   25  C   UNL     1      -4.780   2.753 -32.890  1.00  0.00     0.043 A 
HETATM   26  C   UNL     1      -4.666   3.089 -31.546  1.00  0.00     0.003 A 
HETATM   27  C   UNL     1      -5.703   3.771 -30.918  1.00  0.00     0.001 A 
HETATM   28  C   UNL     1      -6.848   4.128 -31.639  1.00  0.00     0.013 A 
ENDBRANCH   7  22
BRANCH  10  29
HETATM   29  C   UNL     1      -9.599   2.254 -32.279  1.00  0.00     0.294 C 
HETATM   30  O   UNL     1     -10.118   2.858 -31.350  1.00  0.00    -0.259 OA
BRANCH  29  31
HETATM   31  O   UNL     1      -9.210   0.976 -32.322  1.00  0.00    -0.313 OA
BRANCH  31  32
HETATM   32  C   UNL     1      -8.132   0.605 -31.451  1.00  0.00     0.217 C 
BRANCH  32  33
HETATM   33  C   UNL     1      -7.125  -0.099 -32.312  1.00  0.00    -0.034 A 
HETATM   34  C   UNL     1      -5.892  -0.492 -31.776  1.00  0.00     0.009 A 
HETATM   35  C   UNL     1      -4.926  -1.081 -32.592  1.00  0.00     0.001 A 
HETATM   36  C   UNL     1      -5.182  -1.276 -33.947  1.00  0.00     0.000 A 
HETATM   37  C   UNL     1      -6.405  -0.888 -34.490  1.00  0.00     0.001 A 
HETATM   38  C   UNL     1      -7.375  -0.299 -33.678  1.00  0.00     0.009 A 
ENDBRANCH  32  33
ENDBRANCH  31  32
ENDBRANCH  29  31
ENDBRANCH  10  29
TORSDOF 10
ENDMDL
MODEL 10
REMARK VINA RESULT:      -7.8      2.948      5.027
REMARK  10 active torsions:
REMARK  status: ('A' for Active; 'I' for Inactive)
REMARK    1  A    between atoms: C_6  and  C_7 
REMARK    2  A    between atoms: C_7  and  C_8 
REMARK       I    between atoms: C_8  and  N_9 
REMARK    3  A    between atoms: N_9  and  C_10 
REMARK    4  A    between atoms: C_10  and  C_11 
REMARK    5  A    between atoms: C_11  and  N_12 
REMARK    6  A    between atoms: C_17  and  C_18 
REMARK    7  A    between atoms: C_27  and  C_28 
REMARK    8  A    between atoms: C_28  and  O_29 
REMARK    9  A    between atoms: O_29  and  C_30 
REMARK   10  A    between atoms: C_30  and  C_31 
ROOT
HETATM    1  C   UNL     1      -8.590   1.938 -33.652  1.00  0.00     0.071 C 
HETATM    2  C   UNL     1      -7.815   3.200 -33.355  1.00  0.00     0.048 C 
HETATM    3  N   UNL     1      -8.610   4.351 -33.273  1.00  0.00    -0.229 NA
HETATM    4  C   UNL     1      -8.197   5.277 -32.464  1.00  0.00     0.170 C 
HETATM    5  N   UNL     1      -6.782   5.233 -31.799  1.00  0.00    -0.318 N 
HETATM    6  C   UNL     1      -6.901   5.557 -30.554  1.00  0.00     0.011 C 
HETATM    7  C   UNL     1      -5.896   4.570 -32.769  1.00  0.00     0.169 C 
HETATM    8  S   UNL     1      -9.170   6.504 -31.750  1.00  0.00    -0.086 SA
HETATM    9  C   UNL     1      -8.124   6.415 -30.244  1.00  0.00     0.135 C 
HETATM   10  C   UNL     1      -6.504   3.226 -33.002  1.00  0.00     0.069 C 
ENDROOT
BRANCH   6  11
HETATM   11  C   UNL     1      -5.965   5.039 -29.498  1.00  0.00     0.156 C 
BRANCH  11  12
HETATM   12  C   UNL     1      -5.121   6.149 -28.894  1.00  0.00     0.223 C 
HETATM   13  N   UNL     1      -4.645   5.957 -27.626  1.00  0.00    -0.359 N 
HETATM   14  H   UNL     1      -4.872   5.089 -27.135  1.00  0.00     0.162 HD
HETATM   15  O   UNL     1      -4.919   7.201 -29.500  1.00  0.00    -0.273 OA
BRANCH  13  16
HETATM   16  C   UNL     1      -4.058   7.032 -26.812  1.00  0.00     0.150 C 
BRANCH  16  17
HETATM   17  C   UNL     1      -2.525   7.237 -26.925  1.00  0.00     0.253 C 
BRANCH  17  18
HETATM   18  N   UNL     1      -2.106   7.943 -28.201  1.00  0.00    -0.077 N 
HETATM   19  H   UNL     1      -2.980   8.215 -28.692  1.00  0.00     0.279 HD
HETATM   20  C   UNL     1      -1.344   9.219 -27.978  1.00  0.00     0.269 C 
HETATM   21  C   UNL     1      -1.359   7.031 -29.136  1.00  0.00     0.269 C 
ENDBRANCH  17  18
ENDBRANCH  16  17
ENDBRANCH  13  16
ENDBRANCH  11  12
ENDBRANCH   6  11
BRANCH   7  22
HETATM   22  C   UNL     1      -4.397   4.797 -32.805  1.00  0.00     0.008 A 
HETATM   23  C   UNL     1      -3.679   5.034 -33.986  1.00  0.00     0.125 A 
HETATM   24  F   UNL     1      -4.329   5.208 -35.142  1.00  0.00    -0.205 F 
HETATM   25  C   UNL     1      -2.286   5.019 -34.027  1.00  0.00     0.043 A 
HETATM   26  C   UNL     1      -1.563   4.714 -32.880  1.00  0.00     0.003 A 
HETATM   27  C   UNL     1      -2.238   4.440 -31.695  1.00  0.00     0.001 A 
HETATM   28  C   UNL     1      -3.636   4.486 -31.655  1.00  0.00     0.013 A 
ENDBRANCH   7  22
BRANCH  10  29
HETATM   29  C   UNL     1      -5.843   2.064 -32.388  1.00  0.00     0.294 C 
HETATM   30  O   UNL     1      -5.879   1.919 -31.172  1.00  0.00    -0.259 OA
BRANCH  29  31
HETATM   31  O   UNL     1      -5.319   1.245 -33.305  1.00  0.00    -0.313 OA
BRANCH  31  32
HETATM   32  C   UNL     1      -4.554   0.137 -32.811  1.00  0.00     0.217 C 
BRANCH  32  33
HETATM   33  C   UNL     1      -5.108  -1.084 -33.483  1.00  0.00    -0.034 A 
HETATM   34  C   UNL     1      -4.262  -2.150 -33.816  1.00  0.00     0.009 A 
HETATM   35  C   UNL     1      -4.760  -3.255 -34.507  1.00  0.00     0.001 A 
HETATM   36  C   UNL     1      -6.103  -3.299 -34.875  1.00  0.00     0.000 A 
HETATM   37  C   UNL     1      -6.953  -2.244 -34.549  1.00  0.00     0.001 A 
HETATM   38  C   UNL     1      -6.459  -1.138 -33.858  1.00  0.00     0.009 A 
ENDBRANCH  32  33
ENDBRANCH  31  32
ENDBRANCH  29  31
ENDBRANCH  10  29
TORSDOF 10
ENDMDL
