MODEL 1
REMARK VINA RESULT:     -10.1      0.000      0.000
REMARK  8 active torsions:
REMARK  status: ('A' for Active; 'I' for Inactive)
REMARK    1  A    between atoms: O_2  and  C_3 
REMARK    2  A    between atoms: C_3  and  C_4 
REMARK    3  A    between atoms: N_7  and  C_8 
REMARK    4  A    between atoms: N_10  and  C_12 
REMARK    5  A    between atoms: C_22  and  C_23 
REMARK       I    between atoms: C_23  and  N_24 
REMARK    6  A    between atoms: N_24  and  C_25 
REMARK    7  A    between atoms: C_25  and  C_26 
REMARK    8  A    between atoms: C_26  and  C_27 
ROOT
HETATM    1  C   UNL     1      -7.341   5.035 -33.178  1.00  0.00     0.134 C 
HETATM    2  C   UNL     1      -6.143   4.519 -33.959  1.00  0.00     0.263 C 
HETATM    3  N   UNL     1      -4.999   4.569 -32.953  1.00  0.00    -0.051 N 
HETATM    4  H   UNL     1      -4.401   3.737 -33.141  1.00  0.00     0.281 HD
HETATM    5  C   UNL     1      -5.684   4.236 -31.589  1.00  0.00     0.281 C 
HETATM    6  C   UNL     1      -7.189   4.347 -31.831  1.00  0.00     0.072 C 
ENDROOT
BRANCH   5   7
HETATM    7  C   UNL     1      -5.288   2.807 -31.179  1.00  0.00     0.248 C 
HETATM    8  N   UNL     1      -4.598   2.062 -32.100  1.00  0.00    -0.359 N 
HETATM    9  H   UNL     1      -4.523   2.357 -33.067  1.00  0.00     0.162 HD
HETATM   10  O   UNL     1      -5.589   2.416 -30.050  1.00  0.00    -0.271 OA
BRANCH   8  11
HETATM   11  C   UNL     1      -4.174   0.703 -31.781  1.00  0.00     0.127 C 
BRANCH  11  12
HETATM   12  C   UNL     1      -3.742  -0.079 -33.022  1.00  0.00     0.060 C 
BRANCH  12  13
HETATM   13  C   UNL     1      -4.882  -0.803 -33.659  1.00  0.00    -0.029 A 
HETATM   14  C   UNL     1      -4.952  -2.203 -33.951  1.00  0.00    -0.002 A 
HETATM   15  C   UNL     1      -6.188  -2.443 -34.551  1.00  0.00     0.042 A 
HETATM   16  C   UNL     1      -4.075  -3.293 -33.764  1.00  0.00     0.014 A 
HETATM   17  C   UNL     1      -6.593  -3.713 -34.975  1.00  0.00     0.030 A 
HETATM   18  N   UNL     1      -6.850  -1.239 -34.613  1.00  0.00    -0.365 N 
HETATM   19  C   UNL     1      -5.706  -4.775 -34.780  1.00  0.00     0.002 A 
HETATM   20  C   UNL     1      -4.464  -4.571 -34.183  1.00  0.00     0.001 A 
HETATM   21  H   UNL     1      -7.778  -1.116 -34.996  1.00  0.00     0.165 HD
HETATM   22  C   UNL     1      -6.072  -0.244 -34.082  1.00  0.00     0.096 A 
ENDBRANCH  12  13
ENDBRANCH  11  12
ENDBRANCH   8  11
ENDBRANCH   5   7
BRANCH   3  23
HETATM   23  C   UNL     1      -4.117   5.811 -32.977  1.00  0.00     0.197 C 
HETATM   24  C   UNL     1      -3.471   6.098 -31.592  1.00  0.00     0.017 C 
HETATM   25  C   UNL     1      -2.453   5.009 -31.199  1.00  0.00     0.011 C 
HETATM   26  C   UNL     1      -2.725   7.447 -31.679  1.00  0.00     0.011 C 
HETATM   27  C   UNL     1      -1.342   4.915 -32.255  1.00  0.00    -0.013 C 
HETATM   28  C   UNL     1      -1.966   4.586 -33.620  1.00  0.00     0.011 C 
HETATM   29  C   UNL     1      -0.614   6.267 -32.341  1.00  0.00     0.009 C 
HETATM   30  C   UNL     1      -2.973   5.682 -34.023  1.00  0.00     0.017 C 
HETATM   31  C   UNL     1      -2.226   7.031 -34.097  1.00  0.00     0.011 C 
HETATM   32  C   UNL     1      -1.607   7.373 -32.733  1.00  0.00    -0.013 C 
ENDBRANCH   3  23
BRANCH   1  33
HETATM   33  N   UNL     1      -8.608   4.769 -33.806  1.00  0.00    -0.276 N 
HETATM   34  N   UNL     1      -9.029   5.537 -34.820  1.00  0.00     0.005 NA
HETATM   35  N   UNL     1     -10.175   5.029 -35.251  1.00  0.00    -0.152 NA
HETATM   36  C   UNL     1     -10.469   3.916 -34.499  1.00  0.00     0.166 A 
HETATM   37  C   UNL     1      -9.466   3.747 -33.560  1.00  0.00     0.147 A 
BRANCH  36  38
HETATM   38  C   UNL     1     -11.636   3.070 -34.692  1.00  0.00     0.314 C 
HETATM   39  O   UNL     1     -12.237   3.008 -35.759  1.00  0.00    -0.257 OA
BRANCH  38  40
HETATM   40  O   UNL     1     -11.980   2.382 -33.567  1.00  0.00    -0.321 OA
HETATM   41  C   UNL     1     -12.070   0.969 -33.748  1.00  0.00     0.213 C 
ENDBRANCH  38  40
ENDBRANCH  36  38
ENDBRANCH   1  33
TORSDOF 8
ENDMDL
MODEL 2
REMARK VINA RESULT:     -10.0      1.229      1.632
REMARK  8 active torsions:
REMARK  status: ('A' for Active; 'I' for Inactive)
REMARK    1  A    between atoms: O_2  and  C_3 
REMARK    2  A    between atoms: C_3  and  C_4 
REMARK    3  A    between atoms: N_7  and  C_8 
REMARK    4  A    between atoms: N_10  and  C_12 
REMARK    5  A    between atoms: C_22  and  C_23 
REMARK       I    between atoms: C_23  and  N_24 
REMARK    6  A    between atoms: N_24  and  C_25 
REMARK    7  A    between atoms: C_25  and  C_26 
REMARK    8  A    between atoms: C_26  and  C_27 
ROOT
HETATM    1  C   UNL     1      -7.342   5.345 -33.250  1.00  0.00     0.134 C 
HETATM    2  C   UNL     1      -6.107   4.578 -33.695  1.00  0.00     0.263 C 
HETATM    3  N   UNL     1      -5.065   4.912 -32.635  1.00  0.00    -0.051 N 
HETATM    4  H   UNL     1      -4.502   4.048 -32.487  1.00  0.00     0.281 HD
HETATM    5  C   UNL     1      -5.896   5.045 -31.319  1.00  0.00     0.281 C 
HETATM    6  C   UNL     1      -7.362   5.114 -31.748  1.00  0.00     0.072 C 
ENDROOT
BRANCH   5   7
HETATM    7  C   UNL     1      -5.628   3.809 -30.443  1.00  0.00     0.248 C 
HETATM    8  N   UNL     1      -5.322   2.640 -31.092  1.00  0.00    -0.359 N 
HETATM    9  H   UNL     1      -5.457   2.541 -32.091  1.00  0.00     0.162 HD
HETATM   10  O   UNL     1      -5.680   3.934 -29.219  1.00  0.00    -0.271 OA
BRANCH   8  11
HETATM   11  C   UNL     1      -5.040   1.427 -30.331  1.00  0.00     0.127 C 
BRANCH  11  12
HETATM   12  C   UNL     1      -6.288   0.569 -30.119  1.00  0.00     0.060 C 
BRANCH  12  13
HETATM   13  C   UNL     1      -6.960   0.222 -31.405  1.00  0.00    -0.029 A 
HETATM   14  C   UNL     1      -6.413  -0.556 -32.476  1.00  0.00    -0.002 A 
HETATM   15  C   UNL     1      -7.378  -0.621 -33.481  1.00  0.00     0.042 A 
HETATM   16  C   UNL     1      -5.181  -1.211 -32.687  1.00  0.00     0.014 A 
HETATM   17  C   UNL     1      -7.176  -1.303 -34.685  1.00  0.00     0.030 A 
HETATM   18  N   UNL     1      -8.474   0.081 -33.037  1.00  0.00    -0.365 N 
HETATM   19  C   UNL     1      -5.947  -1.942 -34.870  1.00  0.00     0.002 A 
HETATM   20  C   UNL     1      -4.962  -1.899 -33.887  1.00  0.00     0.001 A 
HETATM   21  H   UNL     1      -9.331   0.195 -33.562  1.00  0.00     0.165 HD
HETATM   22  C   UNL     1      -8.233   0.595 -31.790  1.00  0.00     0.096 A 
ENDBRANCH  12  13
ENDBRANCH  11  12
ENDBRANCH   8  11
ENDBRANCH   5   7
BRANCH   3  23
HETATM   23  C   UNL     1      -4.112   6.059 -32.947  1.00  0.00     0.197 C 
HETATM   24  C   UNL     1      -3.475   6.658 -31.660  1.00  0.00     0.017 C 
HETATM   25  C   UNL     1      -2.529   5.656 -30.970  1.00  0.00     0.011 C 
HETATM   26  C   UNL     1      -2.650   7.900 -32.065  1.00  0.00     0.011 C 
HETATM   27  C   UNL     1      -1.406   5.237 -31.930  1.00  0.00    -0.013 C 
HETATM   28  C   UNL     1      -2.024   4.602 -33.186  1.00  0.00     0.011 C 
HETATM   29  C   UNL     1      -0.600   6.483 -32.336  1.00  0.00     0.009 C 
HETATM   30  C   UNL     1      -2.958   5.608 -33.887  1.00  0.00     0.017 C 
HETATM   31  C   UNL     1      -2.133   6.852 -34.279  1.00  0.00     0.011 C 
HETATM   32  C   UNL     1      -1.520   7.500 -33.028  1.00  0.00    -0.013 C 
ENDBRANCH   3  23
BRANCH   1  33
HETATM   33  N   UNL     1      -8.556   4.928 -33.900  1.00  0.00    -0.276 N 
HETATM   34  N   UNL     1      -9.095   5.684 -34.865  1.00  0.00     0.005 NA
HETATM   35  N   UNL     1     -10.152   5.034 -35.333  1.00  0.00    -0.152 NA
HETATM   36  C   UNL     1     -10.268   3.845 -34.654  1.00  0.00     0.166 A 
HETATM   37  C   UNL     1      -9.246   3.773 -33.723  1.00  0.00     0.147 A 
BRANCH  36  38
HETATM   38  C   UNL     1     -11.292   2.843 -34.905  1.00  0.00     0.314 C 
HETATM   39  O   UNL     1     -12.341   3.103 -35.485  1.00  0.00    -0.257 OA
BRANCH  38  40
HETATM   40  O   UNL     1     -10.958   1.615 -34.419  1.00  0.00    -0.321 OA
HETATM   41  C   UNL     1     -12.011   0.956 -33.717  1.00  0.00     0.213 C 
ENDBRANCH  38  40
ENDBRANCH  36  38
ENDBRANCH   1  33
TORSDOF 8
ENDMDL
MODEL 3
REMARK VINA RESULT:     -10.0      1.877      2.448
REMARK  8 active torsions:
REMARK  status: ('A' for Active; 'I' for Inactive)
REMARK    1  A    between atoms: O_2  and  C_3 
REMARK    2  A    between atoms: C_3  and  C_4 
REMARK    3  A    between atoms: N_7  and  C_8 
REMARK    4  A    between atoms: N_10  and  C_12 
REMARK    5  A    between atoms: C_22  and  C_23 
REMARK       I    between atoms: C_23  and  N_24 
REMARK    6  A    between atoms: N_24  and  C_25 
REMARK    7  A    between atoms: C_25  and  C_26 
REMARK    8  A    between atoms: C_26  and  C_27 
ROOT
HETATM    1  C   UNL     1      -8.696   2.525 -32.189  1.00  0.00     0.134 C 
HETATM    2  C   UNL     1      -7.465   2.674 -33.069  1.00  0.00     0.263 C 
HETATM    3  N   UNL     1      -6.322   2.840 -32.077  1.00  0.00    -0.051 N 
HETATM    4  H   UNL     1      -5.501   2.343 -32.481  1.00  0.00     0.281 HD
HETATM    5  C   UNL     1      -6.741   1.946 -30.867  1.00  0.00     0.281 C 
HETATM    6  C   UNL     1      -8.214   1.599 -31.085  1.00  0.00     0.072 C 
ENDROOT
BRANCH   5   7
HETATM    7  C   UNL     1      -5.864   0.682 -30.865  1.00  0.00     0.248 C 
HETATM    8  N   UNL     1      -4.539   0.842 -31.179  1.00  0.00    -0.359 N 
HETATM    9  H   UNL     1      -4.194   1.705 -31.583  1.00  0.00     0.162 HD
HETATM   10  O   UNL     1      -6.385  -0.393 -30.564  1.00  0.00    -0.271 OA
BRANCH   8  11
HETATM   11  C   UNL     1      -3.639  -0.306 -31.185  1.00  0.00     0.127 C 
BRANCH  11  12
HETATM   12  C   UNL     1      -3.143  -0.650 -32.590  1.00  0.00     0.060 C 
BRANCH  12  13
HETATM   13  C   UNL     1      -4.201  -1.299 -33.419  1.00  0.00    -0.029 A 
HETATM   14  C   UNL     1      -4.334  -2.699 -33.697  1.00  0.00    -0.002 A 
HETATM   15  C   UNL     1      -5.452  -2.857 -34.516  1.00  0.00     0.042 A 
HETATM   16  C   UNL     1      -3.603  -3.848 -33.330  1.00  0.00     0.014 A 
HETATM   17  C   UNL     1      -5.876  -4.103 -34.989  1.00  0.00     0.030 A 
HETATM   18  N   UNL     1      -5.985  -1.606 -34.721  1.00  0.00    -0.365 N 
HETATM   19  C   UNL     1      -5.135  -5.226 -34.613  1.00  0.00     0.002 A 
HETATM   20  C   UNL     1      -4.014  -5.104 -33.795  1.00  0.00     0.001 A 
HETATM   21  H   UNL     1      -6.811  -1.420 -35.275  1.00  0.00     0.165 HD
HETATM   22  C   UNL     1      -5.239  -0.661 -34.068  1.00  0.00     0.096 A 
ENDBRANCH  12  13
ENDBRANCH  11  12
ENDBRANCH   8  11
ENDBRANCH   5   7
BRANCH   3  23
HETATM   23  C   UNL     1      -5.903   4.267 -31.745  1.00  0.00     0.197 C 
HETATM   24  C   UNL     1      -4.446   4.340 -31.204  1.00  0.00     0.017 C 
HETATM   25  C   UNL     1      -3.415   3.964 -32.286  1.00  0.00     0.011 C 
HETATM   26  C   UNL     1      -4.171   5.793 -30.758  1.00  0.00     0.011 C 
HETATM   27  C   UNL     1      -3.543   4.905 -33.492  1.00  0.00    -0.013 C 
HETATM   28  C   UNL     1      -4.967   4.806 -34.063  1.00  0.00     0.011 C 
HETATM   29  C   UNL     1      -3.278   6.349 -33.034  1.00  0.00     0.009 C 
HETATM   30  C   UNL     1      -6.000   5.197 -32.987  1.00  0.00     0.017 C 
HETATM   31  C   UNL     1      -5.713   6.645 -32.536  1.00  0.00     0.011 C 
HETATM   32  C   UNL     1      -4.295   6.751 -31.954  1.00  0.00    -0.013 C 
ENDBRANCH   3  23
BRANCH   1  33
HETATM   33  N   UNL     1      -9.853   2.021 -32.881  1.00  0.00    -0.276 N 
HETATM   34  N   UNL     1     -10.112   0.707 -32.889  1.00  0.00     0.005 NA
HETATM   35  N   UNL     1     -11.261   0.534 -33.527  1.00  0.00    -0.152 NA
HETATM   36  C   UNL     1     -11.733   1.765 -33.916  1.00  0.00     0.166 A 
HETATM   37  C   UNL     1     -10.826   2.728 -33.510  1.00  0.00     0.147 A 
BRANCH  36  38
HETATM   38  C   UNL     1     -12.986   1.987 -34.621  1.00  0.00     0.314 C 
HETATM   39  O   UNL     1     -13.033   2.248 -35.818  1.00  0.00    -0.257 OA
BRANCH  38  40
HETATM   40  O   UNL     1     -14.073   1.885 -33.805  1.00  0.00    -0.321 OA
HETATM   41  C   UNL     1     -14.917   0.770 -34.090  1.00  0.00     0.213 C 
ENDBRANCH  38  40
ENDBRANCH  36  38
ENDBRANCH   1  33
TORSDOF 8
ENDMDL
MODEL 4
REMARK VINA RESULT:      -9.7      3.459      8.582
REMARK  8 active torsions:
REMARK  status: ('A' for Active; 'I' for Inactive)
REMARK    1  A    between atoms: O_2  and  C_3 
REMARK    2  A    between atoms: C_3  and  C_4 
REMARK    3  A    between atoms: N_7  and  C_8 
REMARK    4  A    between atoms: N_10  and  C_12 
REMARK    5  A    between atoms: C_22  and  C_23 
REMARK       I    between atoms: C_23  and  N_24 
REMARK    6  A    between atoms: N_24  and  C_25 
REMARK    7  A    between atoms: C_25  and  C_26 
REMARK    8  A    between atoms: C_26  and  C_27 
ROOT
HETATM    1  C   UNL     1      -6.388   5.042 -30.496  1.00  0.00     0.134 C 
HETATM    2  C   UNL     1      -5.978   3.589 -30.320  1.00  0.00     0.263 C 
HETATM    3  N   UNL     1      -5.923   3.048 -31.743  1.00  0.00    -0.051 N 
HETATM    4  H   UNL     1      -5.124   2.380 -31.779  1.00  0.00     0.281 HD
HETATM    5  C   UNL     1      -5.430   4.265 -32.589  1.00  0.00     0.281 C 
HETATM    6  C   UNL     1      -5.553   5.490 -31.684  1.00  0.00     0.072 C 
ENDROOT
BRANCH   5   7
HETATM    7  C   UNL     1      -3.967   4.016 -32.997  1.00  0.00     0.248 C 
HETATM    8  N   UNL     1      -3.381   4.949 -33.813  1.00  0.00    -0.359 N 
HETATM    9  H   UNL     1      -3.931   5.658 -34.284  1.00  0.00     0.162 HD
HETATM   10  O   UNL     1      -3.397   3.016 -32.559  1.00  0.00    -0.271 OA
BRANCH   8  11
HETATM   11  C   UNL     1      -1.992   4.792 -34.233  1.00  0.00     0.127 C 
BRANCH  11  12
HETATM   12  C   UNL     1      -1.223   6.114 -34.206  1.00  0.00     0.060 C 
BRANCH  12  13
HETATM   13  C   UNL     1      -1.290   6.779 -32.872  1.00  0.00    -0.029 A 
HETATM   14  C   UNL     1      -0.656   6.342 -31.663  1.00  0.00    -0.002 A 
HETATM   15  C   UNL     1      -0.994   7.253 -30.663  1.00  0.00     0.042 A 
HETATM   16  C   UNL     1       0.173   5.252 -31.325  1.00  0.00     0.014 A 
HETATM   17  C   UNL     1      -0.548   7.130 -29.342  1.00  0.00     0.030 A 
HETATM   18  N   UNL     1      -1.793   8.213 -31.239  1.00  0.00    -0.365 N 
HETATM   19  C   UNL     1       0.270   6.040 -29.033  1.00  0.00     0.002 A 
HETATM   20  C   UNL     1       0.628   5.113 -30.008  1.00  0.00     0.001 A 
HETATM   21  H   UNL     1      -2.181   9.005 -30.746  1.00  0.00     0.165 HD
HETATM   22  C   UNL     1      -1.980   7.936 -32.568  1.00  0.00     0.096 A 
ENDBRANCH  12  13
ENDBRANCH  11  12
ENDBRANCH   8  11
ENDBRANCH   5   7
BRANCH   3  23
HETATM   23  C   UNL     1      -7.168   2.334 -32.254  1.00  0.00     0.197 C 
HETATM   24  C   UNL     1      -7.036   1.921 -33.748  1.00  0.00     0.017 C 
HETATM   25  C   UNL     1      -5.960   0.835 -33.948  1.00  0.00     0.011 C 
HETATM   26  C   UNL     1      -8.393   1.346 -34.211  1.00  0.00     0.011 C 
HETATM   27  C   UNL     1      -6.301  -0.410 -33.117  1.00  0.00    -0.013 C 
HETATM   28  C   UNL     1      -6.389  -0.021 -31.633  1.00  0.00     0.011 C 
HETATM   29  C   UNL     1      -7.659  -0.967 -33.578  1.00  0.00     0.009 C 
HETATM   30  C   UNL     1      -7.476   1.053 -31.428  1.00  0.00     0.017 C 
HETATM   31  C   UNL     1      -8.828   0.479 -31.903  1.00  0.00     0.011 C 
HETATM   32  C   UNL     1      -8.752   0.097 -33.389  1.00  0.00    -0.013 C 
ENDBRANCH   3  23
BRANCH   1  33
HETATM   33  N   UNL     1      -6.183   5.854 -29.326  1.00  0.00    -0.276 N 
HETATM   34  N   UNL     1      -7.235   6.343 -28.655  1.00  0.00     0.005 NA
HETATM   35  N   UNL     1      -6.764   6.983 -27.593  1.00  0.00    -0.152 NA
HETATM   36  C   UNL     1      -5.393   6.882 -27.597  1.00  0.00     0.166 A 
HETATM   37  C   UNL     1      -5.011   6.161 -28.715  1.00  0.00     0.147 A 
BRANCH  36  38
HETATM   38  C   UNL     1      -4.519   7.435 -26.574  1.00  0.00     0.314 C 
HETATM   39  O   UNL     1      -4.943   7.878 -25.512  1.00  0.00    -0.257 OA
BRANCH  38  40
HETATM   40  O   UNL     1      -3.205   7.414 -26.936  1.00  0.00    -0.321 OA
HETATM   41  C   UNL     1      -2.362   6.689 -26.042  1.00  0.00     0.213 C 
ENDBRANCH  38  40
ENDBRANCH  36  38
ENDBRANCH   1  33
TORSDOF 8
ENDMDL
MODEL 5
REMARK VINA RESULT:      -9.6      3.710      7.924
REMARK  8 active torsions:
REMARK  status: ('A' for Active; 'I' for Inactive)
REMARK    1  A    between atoms: O_2  and  C_3 
REMARK    2  A    between atoms: C_3  and  C_4 
REMARK    3  A    between atoms: N_7  and  C_8 
REMARK    4  A    between atoms: N_10  and  C_12 
REMARK    5  A    between atoms: C_22  and  C_23 
REMARK       I    between atoms: C_23  and  N_24 
REMARK    6  A    between atoms: N_24  and  C_25 
REMARK    7  A    between atoms: C_25  and  C_26 
REMARK    8  A    between atoms: C_26  and  C_27 
ROOT
HETATM    1  C   UNL     1      -5.382   3.471 -31.961  1.00  0.00     0.134 C 
HETATM    2  C   UNL     1      -4.061   3.472 -31.208  1.00  0.00     0.263 C 
HETATM    3  N   UNL     1      -3.884   4.923 -30.778  1.00  0.00    -0.051 N 
HETATM    4  H   UNL     1      -3.443   4.904 -29.835  1.00  0.00     0.281 HD
HETATM    5  C   UNL     1      -5.341   5.413 -30.500  1.00  0.00     0.281 C 
HETATM    6  C   UNL     1      -6.267   4.352 -31.095  1.00  0.00     0.072 C 
ENDROOT
BRANCH   5   7
HETATM    7  C   UNL     1      -5.534   5.534 -28.979  1.00  0.00     0.248 C 
HETATM    8  N   UNL     1      -4.653   6.336 -28.300  1.00  0.00    -0.359 N 
HETATM    9  H   UNL     1      -3.803   6.673 -28.737  1.00  0.00     0.162 HD
HETATM   10  O   UNL     1      -6.471   4.930 -28.456  1.00  0.00    -0.271 OA
BRANCH   8  11
HETATM   11  C   UNL     1      -4.778   6.514 -26.857  1.00  0.00     0.127 C 
BRANCH  11  12
HETATM   12  C   UNL     1      -3.776   7.529 -26.306  1.00  0.00     0.060 C 
BRANCH  12  13
HETATM   13  C   UNL     1      -2.382   6.995 -26.290  1.00  0.00    -0.029 A 
HETATM   14  C   UNL     1      -1.194   7.688 -26.692  1.00  0.00    -0.002 A 
HETATM   15  C   UNL     1      -0.122   6.811 -26.522  1.00  0.00     0.042 A 
HETATM   16  C   UNL     1      -0.930   8.981 -27.189  1.00  0.00     0.014 A 
HETATM   17  C   UNL     1       1.198   7.159 -26.825  1.00  0.00     0.030 A 
HETATM   18  N   UNL     1      -0.634   5.634 -26.028  1.00  0.00    -0.365 N 
HETATM   19  C   UNL     1       1.433   8.446 -27.317  1.00  0.00     0.002 A 
HETATM   20  C   UNL     1       0.387   9.347 -27.497  1.00  0.00     0.001 A 
HETATM   21  H   UNL     1      -0.079   4.820 -25.802  1.00  0.00     0.165 HD
HETATM   22  C   UNL     1      -1.994   5.733 -25.887  1.00  0.00     0.096 A 
ENDBRANCH  12  13
ENDBRANCH  11  12
ENDBRANCH   8  11
ENDBRANCH   5   7
BRANCH   3  23
HETATM   23  C   UNL     1      -3.038   5.809 -31.685  1.00  0.00     0.197 C 
HETATM   24  C   UNL     1      -2.556   7.098 -30.961  1.00  0.00     0.017 C 
HETATM   25  C   UNL     1      -1.558   6.781 -29.830  1.00  0.00     0.011 C 
HETATM   26  C   UNL     1      -1.842   7.994 -31.997  1.00  0.00     0.011 C 
HETATM   27  C   UNL     1      -0.336   6.041 -30.392  1.00  0.00    -0.013 C 
HETATM   28  C   UNL     1      -0.797   4.741 -31.070  1.00  0.00     0.011 C 
HETATM   29  C   UNL     1       0.360   6.937 -31.431  1.00  0.00     0.009 C 
HETATM   30  C   UNL     1      -1.783   5.058 -32.212  1.00  0.00     0.017 C 
HETATM   31  C   UNL     1      -1.068   5.963 -33.239  1.00  0.00     0.011 C 
HETATM   32  C   UNL     1      -0.614   7.269 -32.572  1.00  0.00    -0.013 C 
ENDBRANCH   3  23
BRANCH   1  33
HETATM   33  N   UNL     1      -5.932   2.159 -32.176  1.00  0.00    -0.276 N 
HETATM   34  N   UNL     1      -7.036   1.778 -31.520  1.00  0.00     0.005 NA
HETATM   35  N   UNL     1      -7.359   0.569 -31.958  1.00  0.00    -0.152 NA
HETATM   36  C   UNL     1      -6.444   0.193 -32.912  1.00  0.00     0.166 A 
HETATM   37  C   UNL     1      -5.517   1.210 -33.053  1.00  0.00     0.147 A 
BRANCH  36  38
HETATM   38  C   UNL     1      -6.481  -1.063 -33.647  1.00  0.00     0.314 C 
HETATM   39  O   UNL     1      -7.483  -1.768 -33.698  1.00  0.00    -0.257 OA
BRANCH  38  40
HETATM   40  O   UNL     1      -5.293  -1.358 -34.243  1.00  0.00    -0.321 OA
HETATM   41  C   UNL     1      -4.941  -2.741 -34.195  1.00  0.00     0.213 C 
ENDBRANCH  38  40
ENDBRANCH  36  38
ENDBRANCH   1  33
TORSDOF 8
ENDMDL
MODEL 6
REMARK VINA RESULT:      -9.5      2.866      8.214
REMARK  8 active torsions:
REMARK  status: ('A' for Active; 'I' for Inactive)
REMARK    1  A    between atoms: O_2  and  C_3 
REMARK    2  A    between atoms: C_3  and  C_4 
REMARK    3  A    between atoms: N_7  and  C_8 
REMARK    4  A    between atoms: N_10  and  C_12 
REMARK    5  A    between atoms: C_22  and  C_23 
REMARK       I    between atoms: C_23  and  N_24 
REMARK    6  A    between atoms: N_24  and  C_25 
REMARK    7  A    between atoms: C_25  and  C_26 
REMARK    8  A    between atoms: C_26  and  C_27 
ROOT
HETATM    1  C   UNL     1      -5.105   0.906 -32.113  1.00  0.00     0.134 C 
HETATM    2  C   UNL     1      -6.260   1.428 -32.952  1.00  0.00     0.263 C 
HETATM    3  N   UNL     1      -6.338   2.906 -32.591  1.00  0.00    -0.051 N 
HETATM    4  H   UNL     1      -6.593   3.414 -33.463  1.00  0.00     0.281 HD
HETATM    5  C   UNL     1      -4.850   3.311 -32.344  1.00  0.00     0.281 C 
HETATM    6  C   UNL     1      -4.064   2.004 -32.248  1.00  0.00     0.072 C 
ENDROOT
BRANCH   5   7
HETATM    7  C   UNL     1      -4.372   4.165 -33.531  1.00  0.00     0.248 C 
HETATM    8  N   UNL     1      -3.034   4.459 -33.588  1.00  0.00    -0.359 N 
HETATM    9  H   UNL     1      -2.423   4.295 -32.796  1.00  0.00     0.162 HD
HETATM   10  O   UNL     1      -5.200   4.519 -34.371  1.00  0.00    -0.271 OA
BRANCH   8  11
HETATM   11  C   UNL     1      -2.500   5.252 -34.691  1.00  0.00     0.127 C 
BRANCH  11  12
HETATM   12  C   UNL     1      -1.149   5.885 -34.353  1.00  0.00     0.060 C 
BRANCH  12  13
HETATM   13  C   UNL     1      -1.195   6.670 -33.085  1.00  0.00    -0.029 A 
HETATM   14  C   UNL     1      -0.579   6.324 -31.839  1.00  0.00    -0.002 A 
HETATM   15  C   UNL     1      -0.887   7.333 -30.927  1.00  0.00     0.042 A 
HETATM   16  C   UNL     1       0.211   5.240 -31.399  1.00  0.00     0.014 A 
HETATM   17  C   UNL     1      -0.448   7.315 -29.598  1.00  0.00     0.030 A 
HETATM   18  N   UNL     1      -1.651   8.263 -31.591  1.00  0.00    -0.365 N 
HETATM   19  C   UNL     1       0.331   6.230 -29.187  1.00  0.00     0.002 A 
HETATM   20  C   UNL     1       0.658   5.207 -30.073  1.00  0.00     0.001 A 
HETATM   21  H   UNL     1      -2.012   9.110 -31.174  1.00  0.00     0.165 HD
HETATM   22  C   UNL     1      -1.845   7.873 -32.891  1.00  0.00     0.096 A 
ENDBRANCH  12  13
ENDBRANCH  11  12
ENDBRANCH   8  11
ENDBRANCH   5   7
BRANCH   3  23
HETATM   23  C   UNL     1      -7.330   3.295 -31.501  1.00  0.00     0.197 C 
HETATM   24  C   UNL     1      -7.462   4.838 -31.352  1.00  0.00     0.017 C 
HETATM   25  C   UNL     1      -8.109   5.480 -32.596  1.00  0.00     0.011 C 
HETATM   26  C   UNL     1      -8.367   5.128 -30.134  1.00  0.00     0.011 C 
HETATM   27  C   UNL     1      -9.503   4.884 -32.837  1.00  0.00    -0.013 C 
HETATM   28  C   UNL     1      -9.378   3.365 -33.032  1.00  0.00     0.011 C 
HETATM   29  C   UNL     1     -10.391   5.168 -31.614  1.00  0.00     0.009 C 
HETATM   30  C   UNL     1      -8.747   2.718 -31.783  1.00  0.00     0.017 C 
HETATM   31  C   UNL     1      -9.648   3.021 -30.566  1.00  0.00     0.011 C 
HETATM   32  C   UNL     1      -9.769   4.538 -30.358  1.00  0.00    -0.013 C 
ENDBRANCH   3  23
BRANCH   1  33
HETATM   33  N   UNL     1      -4.619  -0.384 -32.525  1.00  0.00    -0.276 N 
HETATM   34  N   UNL     1      -3.688  -1.015 -31.797  1.00  0.00     0.005 NA
HETATM   35  N   UNL     1      -3.482  -2.199 -32.359  1.00  0.00    -0.152 NA
HETATM   36  C   UNL     1      -4.309  -2.312 -33.451  1.00  0.00     0.166 A 
HETATM   37  C   UNL     1      -5.039  -1.143 -33.569  1.00  0.00     0.147 A 
BRANCH  36  38
HETATM   38  C   UNL     1      -4.391  -3.484 -34.310  1.00  0.00     0.314 C 
HETATM   39  O   UNL     1      -3.614  -4.428 -34.215  1.00  0.00    -0.257 OA
BRANCH  38  40
HETATM   40  O   UNL     1      -5.402  -3.400 -35.219  1.00  0.00    -0.321 OA
HETATM   41  C   UNL     1      -6.435  -4.369 -35.038  1.00  0.00     0.213 C 
ENDBRANCH  38  40
ENDBRANCH  36  38
ENDBRANCH   1  33
TORSDOF 8
ENDMDL
MODEL 7
REMARK VINA RESULT:      -9.3     16.372     19.262
REMARK  8 active torsions:
REMARK  status: ('A' for Active; 'I' for Inactive)
REMARK    1  A    between atoms: O_2  and  C_3 
REMARK    2  A    between atoms: C_3  and  C_4 
REMARK    3  A    between atoms: N_7  and  C_8 
REMARK    4  A    between atoms: N_10  and  C_12 
REMARK    5  A    between atoms: C_22  and  C_23 
REMARK       I    between atoms: C_23  and  N_24 
REMARK    6  A    between atoms: N_24  and  C_25 
REMARK    7  A    between atoms: C_25  and  C_26 
REMARK    8  A    between atoms: C_26  and  C_27 
ROOT
HETATM    1  C   UNL     1      -1.914 -13.876 -37.388  1.00  0.00     0.134 C 
HETATM    2  C   UNL     1      -3.064 -14.865 -37.289  1.00  0.00     0.263 C 
HETATM    3  N   UNL     1      -4.197 -14.053 -36.676  1.00  0.00    -0.051 N 
HETATM    4  H   UNL     1      -5.077 -14.380 -37.125  1.00  0.00     0.281 HD
HETATM    5  C   UNL     1      -3.990 -12.619 -37.261  1.00  0.00     0.281 C 
HETATM    6  C   UNL     1      -2.595 -12.613 -37.887  1.00  0.00     0.072 C 
ENDROOT
BRANCH   5   7
HETATM    7  C   UNL     1      -5.078 -12.360 -38.317  1.00  0.00     0.248 C 
HETATM    8  N   UNL     1      -4.655 -12.081 -39.591  1.00  0.00    -0.359 N 
HETATM    9  H   UNL     1      -3.686 -11.861 -39.789  1.00  0.00     0.162 HD
HETATM   10  O   UNL     1      -6.258 -12.436 -37.975  1.00  0.00    -0.271 OA
BRANCH   8  11
HETATM   11  C   UNL     1      -5.626 -11.837 -40.654  1.00  0.00     0.127 C 
BRANCH  11  12
HETATM   12  C   UNL     1      -5.776 -13.036 -41.592  1.00  0.00     0.060 C 
BRANCH  12  13
HETATM   13  C   UNL     1      -6.919 -13.915 -41.207  1.00  0.00    -0.029 A 
HETATM   14  C   UNL     1      -8.200 -13.493 -40.724  1.00  0.00    -0.002 A 
HETATM   15  C   UNL     1      -8.953 -14.642 -40.481  1.00  0.00     0.042 A 
HETATM   16  C   UNL     1      -8.789 -12.238 -40.465  1.00  0.00     0.014 A 
HETATM   17  C   UNL     1     -10.263 -14.601 -39.992  1.00  0.00     0.030 A 
HETATM   18  N   UNL     1      -8.167 -15.721 -40.813  1.00  0.00    -0.365 N 
HETATM   19  C   UNL     1     -10.823 -13.346 -39.743  1.00  0.00     0.002 A 
HETATM   20  C   UNL     1     -10.100 -12.179 -39.975  1.00  0.00     0.001 A 
HETATM   21  H   UNL     1      -8.462 -16.685 -40.743  1.00  0.00     0.165 HD
HETATM   22  C   UNL     1      -6.940 -15.295 -41.249  1.00  0.00     0.096 A 
ENDBRANCH  12  13
ENDBRANCH  11  12
ENDBRANCH   8  11
ENDBRANCH   5   7
BRANCH   3  23
HETATM   23  C   UNL     1      -4.367 -14.143 -35.164  1.00  0.00     0.197 C 
HETATM   24  C   UNL     1      -5.578 -13.309 -34.659  1.00  0.00     0.017 C 
HETATM   25  C   UNL     1      -6.918 -13.889 -35.151  1.00  0.00     0.011 C 
HETATM   26  C   UNL     1      -5.576 -13.343 -33.115  1.00  0.00     0.011 C 
HETATM   27  C   UNL     1      -7.079 -15.338 -34.669  1.00  0.00    -0.013 C 
HETATM   28  C   UNL     1      -5.911 -16.182 -35.201  1.00  0.00     0.011 C 
HETATM   29  C   UNL     1      -7.064 -15.361 -33.131  1.00  0.00     0.009 C 
HETATM   30  C   UNL     1      -4.570 -15.613 -34.697  1.00  0.00     0.017 C 
HETATM   31  C   UNL     1      -4.577 -15.638 -33.153  1.00  0.00     0.011 C 
HETATM   32  C   UNL     1      -5.735 -14.787 -32.612  1.00  0.00    -0.013 C 
ENDBRANCH   3  23
BRANCH   1  33
HETATM   33  N   UNL     1      -0.840 -14.310 -38.241  1.00  0.00    -0.276 N 
HETATM   34  N   UNL     1      -0.784 -13.897 -39.514  1.00  0.00     0.005 NA
HETATM   35  N   UNL     1       0.332 -14.383 -40.039  1.00  0.00    -0.152 NA
HETATM   36  C   UNL     1       0.991 -15.105 -39.072  1.00  0.00     0.166 A 
HETATM   37  C   UNL     1       0.237 -15.068 -37.912  1.00  0.00     0.147 A 
BRANCH  36  38
HETATM   38  C   UNL     1       2.271 -15.769 -39.261  1.00  0.00     0.314 C 
HETATM   39  O   UNL     1       2.982 -15.566 -40.240  1.00  0.00    -0.257 OA
BRANCH  38  40
HETATM   40  O   UNL     1       2.570 -16.633 -38.251  1.00  0.00    -0.321 OA
HETATM   41  C   UNL     1       2.408 -18.010 -38.590  1.00  0.00     0.213 C 
ENDBRANCH  38  40
ENDBRANCH  36  38
ENDBRANCH   1  33
TORSDOF 8
ENDMDL
MODEL 8
REMARK VINA RESULT:      -9.3      2.499      5.589
REMARK  8 active torsions:
REMARK  status: ('A' for Active; 'I' for Inactive)
REMARK    1  A    between atoms: O_2  and  C_3 
REMARK    2  A    between atoms: C_3  and  C_4 
REMARK    3  A    between atoms: N_7  and  C_8 
REMARK    4  A    between atoms: N_10  and  C_12 
REMARK    5  A    between atoms: C_22  and  C_23 
REMARK       I    between atoms: C_23  and  N_24 
REMARK    6  A    between atoms: N_24  and  C_25 
REMARK    7  A    between atoms: C_25  and  C_26 
REMARK    8  A    between atoms: C_26  and  C_27 
ROOT
HETATM    1  C   UNL     1      -3.455   1.586 -32.509  1.00  0.00     0.134 C 
HETATM    2  C   UNL     1      -3.084   2.209 -31.173  1.00  0.00     0.263 C 
HETATM    3  N   UNL     1      -3.386   3.690 -31.360  1.00  0.00    -0.051 N 
HETATM    4  H   UNL     1      -3.758   4.036 -30.451  1.00  0.00     0.281 HD
HETATM    5  C   UNL     1      -4.633   3.702 -32.302  1.00  0.00     0.281 C 
HETATM    6  C   UNL     1      -4.760   2.284 -32.857  1.00  0.00     0.072 C 
ENDROOT
BRANCH   5   7
HETATM    7  C   UNL     1      -5.869   4.091 -31.473  1.00  0.00     0.248 C 
HETATM    8  N   UNL     1      -6.554   3.074 -30.860  1.00  0.00    -0.359 N 
HETATM    9  H   UNL     1      -6.379   2.103 -31.096  1.00  0.00     0.162 HD
HETATM   10  O   UNL     1      -6.165   5.283 -31.385  1.00  0.00    -0.271 OA
BRANCH   8  11
HETATM   11  C   UNL     1      -7.729   3.362 -30.044  1.00  0.00     0.127 C 
BRANCH  11  12
HETATM   12  C   UNL     1      -8.991   2.687 -30.582  1.00  0.00     0.060 C 
BRANCH  12  13
HETATM   13  C   UNL     1      -8.924   2.453 -32.054  1.00  0.00    -0.029 A 
HETATM   14  C   UNL     1      -8.372   1.309 -32.716  1.00  0.00    -0.002 A 
HETATM   15  C   UNL     1      -8.510   1.514 -34.089  1.00  0.00     0.042 A 
HETATM   16  C   UNL     1      -7.763   0.115 -32.275  1.00  0.00     0.014 A 
HETATM   17  C   UNL     1      -8.070   0.590 -35.043  1.00  0.00     0.030 A 
HETATM   18  N   UNL     1      -9.130   2.730 -34.258  1.00  0.00    -0.365 N 
HETATM   19  C   UNL     1      -7.468  -0.583 -34.580  1.00  0.00     0.002 A 
HETATM   20  C   UNL     1      -7.316  -0.820 -33.216  1.00  0.00     0.001 A 
HETATM   21  H   UNL     1      -9.364   3.132 -35.155  1.00  0.00     0.165 HD
HETATM   22  C   UNL     1      -9.381   3.305 -33.040  1.00  0.00     0.096 A 
ENDBRANCH  12  13
ENDBRANCH  11  12
ENDBRANCH   8  11
ENDBRANCH   5   7
BRANCH   3  23
HETATM   23  C   UNL     1      -2.222   4.582 -31.773  1.00  0.00     0.197 C 
HETATM   24  C   UNL     1      -2.508   5.341 -33.101  1.00  0.00     0.017 C 
HETATM   25  C   UNL     1      -3.639   6.374 -32.937  1.00  0.00     0.011 C 
HETATM   26  C   UNL     1      -1.223   6.093 -33.511  1.00  0.00     0.011 C 
HETATM   27  C   UNL     1      -3.273   7.396 -31.850  1.00  0.00    -0.013 C 
HETATM   28  C   UNL     1      -3.033   6.660 -30.523  1.00  0.00     0.011 C 
HETATM   29  C   UNL     1      -1.986   8.130 -32.264  1.00  0.00     0.009 C 
HETATM   30  C   UNL     1      -1.891   5.637 -30.680  1.00  0.00     0.017 C 
HETATM   31  C   UNL     1      -0.612   6.391 -31.102  1.00  0.00     0.011 C 
HETATM   32  C   UNL     1      -0.839   7.121 -32.434  1.00  0.00    -0.013 C 
ENDBRANCH   3  23
BRANCH   1  33
HETATM   33  N   UNL     1      -3.576   0.153 -32.473  1.00  0.00    -0.276 N 
HETATM   34  N   UNL     1      -3.643  -0.487 -31.298  1.00  0.00     0.005 NA
HETATM   35  N   UNL     1      -3.822  -1.775 -31.558  1.00  0.00    -0.152 NA
HETATM   36  C   UNL     1      -3.878  -1.940 -32.922  1.00  0.00     0.166 A 
HETATM   37  C   UNL     1      -3.713  -0.702 -33.518  1.00  0.00     0.147 A 
BRANCH  36  38
HETATM   38  C   UNL     1      -4.093  -3.212 -33.594  1.00  0.00     0.314 C 
HETATM   39  O   UNL     1      -3.502  -4.237 -33.273  1.00  0.00    -0.257 OA
BRANCH  38  40
HETATM   40  O   UNL     1      -5.000  -3.124 -34.608  1.00  0.00    -0.321 OA
HETATM   41  C   UNL     1      -5.719  -4.332 -34.857  1.00  0.00     0.213 C 
ENDBRANCH  38  40
ENDBRANCH  36  38
ENDBRANCH   1  33
TORSDOF 8
ENDMDL
MODEL 9
REMARK VINA RESULT:      -9.3      3.293      7.627
REMARK  8 active torsions:
REMARK  status: ('A' for Active; 'I' for Inactive)
REMARK    1  A    between atoms: O_2  and  C_3 
REMARK    2  A    between atoms: C_3  and  C_4 
REMARK    3  A    between atoms: N_7  and  C_8 
REMARK    4  A    between atoms: N_10  and  C_12 
REMARK    5  A    between atoms: C_22  and  C_23 
REMARK       I    between atoms: C_23  and  N_24 
REMARK    6  A    between atoms: N_24  and  C_25 
REMARK    7  A    between atoms: C_25  and  C_26 
REMARK    8  A    between atoms: C_26  and  C_27 
ROOT
HETATM    1  C   UNL     1      -5.259   1.557 -31.836  1.00  0.00     0.134 C 
HETATM    2  C   UNL     1      -6.266   2.641 -32.187  1.00  0.00     0.263 C 
HETATM    3  N   UNL     1      -5.604   3.926 -31.705  1.00  0.00    -0.051 N 
HETATM    4  H   UNL     1      -5.850   4.666 -32.396  1.00  0.00     0.281 HD
HETATM    5  C   UNL     1      -4.081   3.679 -31.950  1.00  0.00     0.281 C 
HETATM    6  C   UNL     1      -3.933   2.184 -32.230  1.00  0.00     0.072 C 
ENDROOT
BRANCH   5   7
HETATM    7  C   UNL     1      -3.636   4.521 -33.158  1.00  0.00     0.248 C 
HETATM    8  N   UNL     1      -2.349   4.350 -33.597  1.00  0.00    -0.359 N 
HETATM    9  H   UNL     1      -1.665   3.847 -33.043  1.00  0.00     0.162 HD
HETATM   10  O   UNL     1      -4.455   5.282 -33.676  1.00  0.00    -0.271 OA
BRANCH   8  11
HETATM   11  C   UNL     1      -1.856   5.102 -34.746  1.00  0.00     0.127 C 
BRANCH  11  12
HETATM   12  C   UNL     1      -0.769   6.106 -34.362  1.00  0.00     0.060 C 
BRANCH  12  13
HETATM   13  C   UNL     1      -1.050   6.771 -33.056  1.00  0.00    -0.029 A 
HETATM   14  C   UNL     1      -0.549   6.383 -31.771  1.00  0.00    -0.002 A 
HETATM   15  C   UNL     1      -1.072   7.273 -30.833  1.00  0.00     0.042 A 
HETATM   16  C   UNL     1       0.299   5.351 -31.316  1.00  0.00     0.014 A 
HETATM   17  C   UNL     1      -0.792   7.185 -29.465  1.00  0.00     0.030 A 
HETATM   18  N   UNL     1      -1.851   8.175 -31.519  1.00  0.00    -0.365 N 
HETATM   19  C   UNL     1       0.050   6.154 -29.040  1.00  0.00     0.002 A 
HETATM   20  C   UNL     1       0.589   5.249 -29.950  1.00  0.00     0.001 A 
HETATM   21  H   UNL     1      -2.350   8.942 -31.089  1.00  0.00     0.165 HD
HETATM   22  C   UNL     1      -1.848   7.880 -32.857  1.00  0.00     0.096 A 
ENDBRANCH  12  13
ENDBRANCH  11  12
ENDBRANCH   8  11
ENDBRANCH   5   7
BRANCH   3  23
HETATM   23  C   UNL     1      -5.991   4.418 -30.316  1.00  0.00     0.197 C 
HETATM   24  C   UNL     1      -5.027   5.522 -29.796  1.00  0.00     0.017 C 
HETATM   25  C   UNL     1      -5.144   6.819 -30.622  1.00  0.00     0.011 C 
HETATM   26  C   UNL     1      -5.409   5.845 -28.335  1.00  0.00     0.011 C 
HETATM   27  C   UNL     1      -6.582   7.353 -30.572  1.00  0.00    -0.013 C 
HETATM   28  C   UNL     1      -7.539   6.286 -31.127  1.00  0.00     0.011 C 
HETATM   29  C   UNL     1      -6.955   7.660 -29.112  1.00  0.00     0.009 C 
HETATM   30  C   UNL     1      -7.436   4.993 -30.293  1.00  0.00     0.017 C 
HETATM   31  C   UNL     1      -7.807   5.323 -28.831  1.00  0.00     0.011 C 
HETATM   32  C   UNL     1      -6.848   6.382 -28.265  1.00  0.00    -0.013 C 
ENDBRANCH   3  23
BRANCH   1  33
HETATM   33  N   UNL     1      -5.503   0.298 -32.489  1.00  0.00    -0.276 N 
HETATM   34  N   UNL     1      -6.758  -0.090 -32.753  1.00  0.00     0.005 NA
HETATM   35  N   UNL     1      -6.687  -1.236 -33.416  1.00  0.00    -0.152 NA
HETATM   36  C   UNL     1      -5.362  -1.564 -33.577  1.00  0.00     0.166 A 
HETATM   37  C   UNL     1      -4.593  -0.583 -32.976  1.00  0.00     0.147 A 
BRANCH  36  38
HETATM   38  C   UNL     1      -4.880  -2.742 -34.282  1.00  0.00     0.314 C 
HETATM   39  O   UNL     1      -5.348  -3.107 -35.355  1.00  0.00    -0.257 OA
BRANCH  38  40
HETATM   40  O   UNL     1      -3.879  -3.382 -33.614  1.00  0.00    -0.321 OA
HETATM   41  C   UNL     1      -3.761  -4.770 -33.925  1.00  0.00     0.213 C 
ENDBRANCH  38  40
ENDBRANCH  36  38
ENDBRANCH   1  33
TORSDOF 8
ENDMDL
MODEL 10
REMARK VINA RESULT:      -9.2      3.554      8.161
REMARK  8 active torsions:
REMARK  status: ('A' for Active; 'I' for Inactive)
REMARK    1  A    between atoms: O_2  and  C_3 
REMARK    2  A    between atoms: C_3  and  C_4 
REMARK    3  A    between atoms: N_7  and  C_8 
REMARK    4  A    between atoms: N_10  and  C_12 
REMARK    5  A    between atoms: C_22  and  C_23 
REMARK       I    between atoms: C_23  and  N_24 
REMARK    6  A    between atoms: N_24  and  C_25 
REMARK    7  A    between atoms: C_25  and  C_26 
REMARK    8  A    between atoms: C_26  and  C_27 
ROOT
HETATM    1  C   UNL     1      -4.964   1.452 -31.883  1.00  0.00     0.134 C 
HETATM    2  C   UNL     1      -5.547   2.762 -32.387  1.00  0.00     0.263 C 
HETATM    3  N   UNL     1      -4.870   3.821 -31.527  1.00  0.00    -0.051 N 
HETATM    4  H   UNL     1      -4.703   4.645 -32.142  1.00  0.00     0.281 HD
HETATM    5  C   UNL     1      -3.440   3.245 -31.278  1.00  0.00     0.281 C 
HETATM    6  C   UNL     1      -3.491   1.780 -31.711  1.00  0.00     0.072 C 
ENDROOT
BRANCH   5   7
HETATM    7  C   UNL     1      -2.436   4.044 -32.126  1.00  0.00     0.248 C 
HETATM    8  N   UNL     1      -1.577   4.876 -31.456  1.00  0.00    -0.359 N 
HETATM    9  H   UNL     1      -1.720   5.107 -30.479  1.00  0.00     0.162 HD
HETATM   10  O   UNL     1      -2.440   3.882 -33.347  1.00  0.00    -0.271 OA
BRANCH   8  11
HETATM   11  C   UNL     1      -0.585   5.658 -32.188  1.00  0.00     0.127 C 
BRANCH  11  12
HETATM   12  C   UNL     1       0.004   6.788 -31.344  1.00  0.00     0.060 C 
BRANCH  12  13
HETATM   13  C   UNL     1      -0.203   6.570 -29.883  1.00  0.00    -0.029 A 
HETATM   14  C   UNL     1      -1.108   7.281 -29.029  1.00  0.00    -0.002 A 
HETATM   15  C   UNL     1      -0.967   6.758 -27.744  1.00  0.00     0.042 A 
HETATM   16  C   UNL     1      -2.033   8.328 -29.230  1.00  0.00     0.014 A 
HETATM   17  C   UNL     1      -1.702   7.227 -26.649  1.00  0.00     0.030 A 
HETATM   18  N   UNL     1      -0.023   5.761 -27.812  1.00  0.00    -0.365 N 
HETATM   19  C   UNL     1      -2.610   8.265 -26.874  1.00  0.00     0.002 A 
HETATM   20  C   UNL     1      -2.776   8.809 -28.145  1.00  0.00     0.001 A 
HETATM   21  H   UNL     1       0.275   5.201 -27.024  1.00  0.00     0.165 HD
HETATM   22  C   UNL     1       0.446   5.641 -29.094  1.00  0.00     0.096 A 
ENDBRANCH  12  13
ENDBRANCH  11  12
ENDBRANCH   8  11
ENDBRANCH   5   7
BRANCH   3  23
HETATM   23  C   UNL     1      -5.630   4.290 -30.292  1.00  0.00     0.197 C 
HETATM   24  C   UNL     1      -4.931   5.493 -29.595  1.00  0.00     0.017 C 
HETATM   25  C   UNL     1      -4.964   6.760 -30.472  1.00  0.00     0.011 C 
HETATM   26  C   UNL     1      -5.688   5.795 -28.283  1.00  0.00     0.011 C 
HETATM   27  C   UNL     1      -6.415   7.147 -30.793  1.00  0.00    -0.013 C 
HETATM   28  C   UNL     1      -7.101   5.982 -31.523  1.00  0.00     0.011 C 
HETATM   29  C   UNL     1      -7.161   7.434 -29.479  1.00  0.00     0.009 C 
HETATM   30  C   UNL     1      -7.084   4.718 -30.641  1.00  0.00     0.017 C 
HETATM   31  C   UNL     1      -7.831   5.028 -29.326  1.00  0.00     0.011 C 
HETATM   32  C   UNL     1      -7.145   6.185 -28.584  1.00  0.00    -0.013 C 
ENDBRANCH   3  23
BRANCH   1  33
HETATM   33  N   UNL     1      -5.193   0.334 -32.760  1.00  0.00    -0.276 N 
HETATM   34  N   UNL     1      -6.037   0.453 -33.794  1.00  0.00     0.005 NA
HETATM   35  N   UNL     1      -6.002  -0.689 -34.467  1.00  0.00    -0.152 NA
HETATM   36  C   UNL     1      -5.111  -1.532 -33.847  1.00  0.00     0.166 A 
HETATM   37  C   UNL     1      -4.591  -0.882 -32.741  1.00  0.00     0.147 A 
BRANCH  36  38
HETATM   38  C   UNL     1      -4.778  -2.871 -34.309  1.00  0.00     0.314 C 
HETATM   39  O   UNL     1      -3.926  -3.565 -33.764  1.00  0.00    -0.257 OA
BRANCH  38  40
HETATM   40  O   UNL     1      -5.501  -3.245 -35.401  1.00  0.00    -0.321 OA
HETATM   41  C   UNL     1      -6.355  -4.368 -35.182  1.00  0.00     0.213 C 
ENDBRANCH  38  40
ENDBRANCH  36  38
ENDBRANCH   1  33
TORSDOF 8
ENDMDL
