MODEL 1
REMARK VINA RESULT:      -9.2      0.000      0.000
REMARK  6 active torsions:
REMARK  status: ('A' for Active; 'I' for Inactive)
REMARK    1  A    between atoms: C_4  and  C_5 
REMARK    2  A    between atoms: C_5  and  N_6 
REMARK    3  A    between atoms: N_10  and  N_11 
REMARK       I    between atoms: N_11  and  C_12 
REMARK    4  A    between atoms: C_12  and  C_13 
REMARK       I    between atoms: C_13  and  N_14 
REMARK    5  A    between atoms: N_14  and  C_15 
REMARK    6  A    between atoms: C_18  and  O_19 
ROOT
HETATM    1  N   UNL     1      -7.355   1.457 -32.606  1.00  0.00    -0.307 N 
HETATM    2  C   UNL     1      -6.460   2.512 -32.642  1.00  0.00     0.280 A 
HETATM    3  O   UNL     1      -5.329   2.604 -32.208  1.00  0.00    -0.265 OA
HETATM    4  C   UNL     1      -7.177   3.635 -33.387  1.00  0.00     0.157 A 
HETATM    5  N   UNL     1      -6.751   4.825 -33.669  1.00  0.00    -0.165 NA
HETATM    6  C   UNL     1      -8.488   3.111 -33.742  1.00  0.00     0.027 A 
HETATM    7  C   UNL     1      -8.557   1.808 -33.248  1.00  0.00     0.050 A 
HETATM    8  C   UNL     1      -9.524   3.713 -34.430  1.00  0.00     0.016 A 
HETATM    9  C   UNL     1     -10.680   2.957 -34.625  1.00  0.00     0.001 A 
HETATM   10  C   UNL     1     -10.766   1.640 -34.132  1.00  0.00     0.002 A 
HETATM   11  C   UNL     1      -9.699   1.054 -33.438  1.00  0.00     0.031 A 
ENDROOT
BRANCH   5  12
HETATM   12  N   UNL     1      -5.496   5.150 -33.243  1.00  0.00    -0.238 N 
HETATM   13  C   UNL     1      -4.467   5.297 -34.152  1.00  0.00     0.329 C 
HETATM   14  O   UNL     1      -4.502   5.134 -35.367  1.00  0.00    -0.261 OA
HETATM   15  H   UNL     1      -5.309   5.333 -32.250  1.00  0.00     0.192 HD
BRANCH  13  16
HETATM   16  C   UNL     1      -3.146   5.747 -33.503  1.00  0.00     0.315 C 
HETATM   17  N   UNL     1      -3.126   5.470 -32.151  1.00  0.00    -0.319 N 
HETATM   18  H   UNL     1      -3.981   5.038 -31.804  1.00  0.00     0.169 HD
HETATM   19  O   UNL     1      -2.283   6.260 -34.198  1.00  0.00    -0.262 OA
BRANCH  17  20
HETATM   20  C   UNL     1      -2.085   5.689 -31.236  1.00  0.00     0.035 A 
HETATM   21  C   UNL     1      -0.866   5.008 -31.270  1.00  0.00     0.032 A 
HETATM   22  C   UNL     1       0.121   5.272 -30.313  1.00  0.00     0.039 A 
HETATM   23  C   UNL     1      -0.117   6.219 -29.323  1.00  0.00     0.065 A 
HETATM   24  C   UNL     1      -1.321   6.907 -29.277  1.00  0.00     0.039 A 
HETATM   25  C   UNL     1      -2.305   6.642 -30.233  1.00  0.00     0.032 A 
BRANCH  23  26
HETATM   26  O   UNL     1       0.815   6.502 -28.371  1.00  0.00    -0.361 OA
HETATM   27  H   UNL     1       1.645   6.057 -28.609  1.00  0.00     0.217 HD
ENDBRANCH  23  26
ENDBRANCH  17  20
ENDBRANCH  13  16
ENDBRANCH   5  12
BRANCH   1  28
HETATM   28  C   UNL     1      -7.077   0.193 -31.968  1.00  0.00     0.171 C 
BRANCH  28  29
HETATM   29  C   UNL     1      -6.382  -0.784 -32.884  1.00  0.00    -0.040 A 
HETATM   30  C   UNL     1      -4.995  -0.984 -32.811  1.00  0.00     0.009 A 
HETATM   31  C   UNL     1      -4.364  -1.895 -33.660  1.00  0.00     0.001 A 
HETATM   32  C   UNL     1      -5.108  -2.615 -34.593  1.00  0.00     0.000 A 
HETATM   33  C   UNL     1      -6.485  -2.424 -34.678  1.00  0.00     0.001 A 
HETATM   34  C   UNL     1      -7.118  -1.513 -33.832  1.00  0.00     0.009 A 
ENDBRANCH  28  29
ENDBRANCH   1  28
TORSDOF 6
ENDMDL
MODEL 2
REMARK VINA RESULT:      -9.1      2.798      7.990
REMARK  6 active torsions:
REMARK  status: ('A' for Active; 'I' for Inactive)
REMARK    1  A    between atoms: C_4  and  C_5 
REMARK    2  A    between atoms: C_5  and  N_6 
REMARK    3  A    between atoms: N_10  and  N_11 
REMARK       I    between atoms: N_11  and  C_12 
REMARK    4  A    between atoms: C_12  and  C_13 
REMARK       I    between atoms: C_13  and  N_14 
REMARK    5  A    between atoms: N_14  and  C_15 
REMARK    6  A    between atoms: C_18  and  O_19 
ROOT
HETATM    1  N   UNL     1      -4.120   3.734 -31.244  1.00  0.00    -0.307 N 
HETATM    2  C   UNL     1      -4.935   2.761 -31.795  1.00  0.00     0.280 A 
HETATM    3  O   UNL     1      -4.657   1.748 -32.405  1.00  0.00    -0.265 OA
HETATM    4  C   UNL     1      -6.365   3.195 -31.480  1.00  0.00     0.157 A 
HETATM    5  N   UNL     1      -7.479   2.612 -31.793  1.00  0.00    -0.165 NA
HETATM    6  C   UNL     1      -6.254   4.439 -30.732  1.00  0.00     0.027 A 
HETATM    7  C   UNL     1      -4.893   4.730 -30.620  1.00  0.00     0.050 A 
HETATM    8  C   UNL     1      -7.244   5.242 -30.200  1.00  0.00     0.016 A 
HETATM    9  C   UNL     1      -6.833   6.390 -29.523  1.00  0.00     0.001 A 
HETATM   10  C   UNL     1      -5.465   6.700 -29.401  1.00  0.00     0.002 A 
HETATM   11  C   UNL     1      -4.481   5.867 -29.952  1.00  0.00     0.031 A 
ENDROOT
BRANCH   5  12
HETATM   12  N   UNL     1      -7.392   1.456 -32.513  1.00  0.00    -0.238 N 
HETATM   13  C   UNL     1      -7.687   1.452 -33.862  1.00  0.00     0.329 C 
HETATM   14  O   UNL     1      -8.077   2.386 -34.555  1.00  0.00    -0.261 OA
HETATM   15  H   UNL     1      -7.066   0.588 -32.074  1.00  0.00     0.192 HD
BRANCH  13  16
HETATM   16  C   UNL     1      -7.453   0.083 -34.526  1.00  0.00     0.315 C 
HETATM   17  N   UNL     1      -6.547  -0.677 -33.816  1.00  0.00    -0.319 N 
HETATM   18  H   UNL     1      -6.172  -0.212 -32.991  1.00  0.00     0.169 HD
HETATM   19  O   UNL     1      -8.062  -0.196 -35.548  1.00  0.00    -0.262 OA
BRANCH  17  20
HETATM   20  C   UNL     1      -6.118  -1.987 -34.081  1.00  0.00     0.035 A 
HETATM   21  C   UNL     1      -6.962  -3.006 -34.527  1.00  0.00     0.032 A 
HETATM   22  C   UNL     1      -6.461  -4.293 -34.757  1.00  0.00     0.039 A 
HETATM   23  C   UNL     1      -5.114  -4.555 -34.538  1.00  0.00     0.065 A 
HETATM   24  C   UNL     1      -4.260  -3.553 -34.098  1.00  0.00     0.039 A 
HETATM   25  C   UNL     1      -4.762  -2.269 -33.870  1.00  0.00     0.032 A 
BRANCH  23  26
HETATM   26  O   UNL     1      -4.587  -5.794 -34.745  1.00  0.00    -0.361 OA
HETATM   27  H   UNL     1      -3.617  -5.725 -34.724  1.00  0.00     0.217 HD
ENDBRANCH  23  26
ENDBRANCH  17  20
ENDBRANCH  13  16
ENDBRANCH   5  12
BRANCH   1  28
HETATM   28  C   UNL     1      -2.680   3.716 -31.334  1.00  0.00     0.171 C 
BRANCH  28  29
HETATM   29  C   UNL     1      -2.148   4.652 -32.392  1.00  0.00    -0.040 A 
HETATM   30  C   UNL     1      -1.444   5.814 -32.042  1.00  0.00     0.009 A 
HETATM   31  C   UNL     1      -0.952   6.669 -33.030  1.00  0.00     0.001 A 
HETATM   32  C   UNL     1      -1.159   6.376 -34.377  1.00  0.00     0.000 A 
HETATM   33  C   UNL     1      -1.859   5.228 -34.737  1.00  0.00     0.001 A 
HETATM   34  C   UNL     1      -2.353   4.372 -33.752  1.00  0.00     0.009 A 
ENDBRANCH  28  29
ENDBRANCH   1  28
TORSDOF 6
ENDMDL
MODEL 3
REMARK VINA RESULT:      -9.0      4.014      9.283
REMARK  6 active torsions:
REMARK  status: ('A' for Active; 'I' for Inactive)
REMARK    1  A    between atoms: C_4  and  C_5 
REMARK    2  A    between atoms: C_5  and  N_6 
REMARK    3  A    between atoms: N_10  and  N_11 
REMARK       I    between atoms: N_11  and  C_12 
REMARK    4  A    between atoms: C_12  and  C_13 
REMARK       I    between atoms: C_13  and  N_14 
REMARK    5  A    between atoms: N_14  and  C_15 
REMARK    6  A    between atoms: C_18  and  O_19 
ROOT
HETATM    1  N   UNL     1      -6.028   2.066 -32.893  1.00  0.00    -0.307 N 
HETATM    2  C   UNL     1      -7.345   2.129 -33.311  1.00  0.00     0.280 A 
HETATM    3  O   UNL     1      -8.155   3.031 -33.241  1.00  0.00    -0.265 OA
HETATM    4  C   UNL     1      -7.644   0.768 -33.936  1.00  0.00     0.157 A 
HETATM    5  N   UNL     1      -8.747   0.341 -34.465  1.00  0.00    -0.165 NA
HETATM    6  C   UNL     1      -6.415  -0.004 -33.829  1.00  0.00     0.027 A 
HETATM    7  C   UNL     1      -5.475   0.807 -33.191  1.00  0.00     0.050 A 
HETATM    8  C   UNL     1      -6.140  -1.292 -34.247  1.00  0.00     0.016 A 
HETATM    9  C   UNL     1      -4.854  -1.776 -34.007  1.00  0.00     0.001 A 
HETATM   10  C   UNL     1      -3.894  -0.971 -33.364  1.00  0.00     0.002 A 
HETATM   11  C   UNL     1      -4.200   0.333 -32.950  1.00  0.00     0.031 A 
ENDROOT
BRANCH   5  12
HETATM   12  N   UNL     1      -9.807   1.201 -34.465  1.00  0.00    -0.238 N 
HETATM   13  C   UNL     1     -10.948   0.900 -33.748  1.00  0.00     0.329 C 
HETATM   14  O   UNL     1     -11.187  -0.109 -33.093  1.00  0.00    -0.261 OA
HETATM   15  H   UNL     1      -9.754   2.098 -34.960  1.00  0.00     0.192 HD
BRANCH  13  16
HETATM   16  C   UNL     1     -12.003   2.019 -33.795  1.00  0.00     0.315 C 
HETATM   17  N   UNL     1     -12.974   1.842 -32.832  1.00  0.00    -0.319 N 
HETATM   18  H   UNL     1     -12.847   1.004 -32.266  1.00  0.00     0.169 HD
HETATM   19  O   UNL     1     -11.887   2.916 -34.618  1.00  0.00    -0.262 OA
BRANCH  17  20
HETATM   20  C   UNL     1     -14.066   2.673 -32.536  1.00  0.00     0.035 A 
HETATM   21  C   UNL     1     -13.954   4.043 -32.287  1.00  0.00     0.032 A 
HETATM   22  C   UNL     1     -15.091   4.803 -31.986  1.00  0.00     0.039 A 
HETATM   23  C   UNL     1     -16.336   4.188 -31.936  1.00  0.00     0.065 A 
HETATM   24  C   UNL     1     -16.465   2.829 -32.184  1.00  0.00     0.039 A 
HETATM   25  C   UNL     1     -15.330   2.072 -32.485  1.00  0.00     0.032 A 
BRANCH  23  26
HETATM   26  O   UNL     1     -17.466   4.891 -31.642  1.00  0.00    -0.361 OA
HETATM   27  H   UNL     1     -18.175   4.262 -31.430  1.00  0.00     0.217 HD
ENDBRANCH  23  26
ENDBRANCH  17  20
ENDBRANCH  13  16
ENDBRANCH   5  12
BRANCH   1  28
HETATM   28  C   UNL     1      -5.348   3.149 -32.225  1.00  0.00     0.171 C 
BRANCH  28  29
HETATM   29  C   UNL     1      -4.376   3.874 -33.124  1.00  0.00    -0.040 A 
HETATM   30  C   UNL     1      -4.823   4.576 -34.255  1.00  0.00     0.009 A 
HETATM   31  C   UNL     1      -3.916   5.248 -35.076  1.00  0.00     0.001 A 
HETATM   32  C   UNL     1      -2.554   5.226 -34.781  1.00  0.00     0.000 A 
HETATM   33  C   UNL     1      -2.097   4.531 -33.664  1.00  0.00     0.001 A 
HETATM   34  C   UNL     1      -3.002   3.858 -32.842  1.00  0.00     0.009 A 
ENDBRANCH  28  29
ENDBRANCH   1  28
TORSDOF 6
ENDMDL
MODEL 4
REMARK VINA RESULT:      -9.0      3.595      8.134
REMARK  6 active torsions:
REMARK  status: ('A' for Active; 'I' for Inactive)
REMARK    1  A    between atoms: C_4  and  C_5 
REMARK    2  A    between atoms: C_5  and  N_6 
REMARK    3  A    between atoms: N_10  and  N_11 
REMARK       I    between atoms: N_11  and  C_12 
REMARK    4  A    between atoms: C_12  and  C_13 
REMARK       I    between atoms: C_13  and  N_14 
REMARK    5  A    between atoms: N_14  and  C_15 
REMARK    6  A    between atoms: C_18  and  O_19 
ROOT
HETATM    1  N   UNL     1      -6.332   1.747 -32.432  1.00  0.00    -0.307 N 
HETATM    2  C   UNL     1      -7.525   2.323 -32.832  1.00  0.00     0.280 A 
HETATM    3  O   UNL     1      -8.666   1.916 -32.752  1.00  0.00    -0.265 OA
HETATM    4  C   UNL     1      -7.147   3.675 -33.435  1.00  0.00     0.157 A 
HETATM    5  N   UNL     1      -7.918   4.578 -33.952  1.00  0.00    -0.165 NA
HETATM    6  C   UNL     1      -5.699   3.775 -33.324  1.00  0.00     0.027 A 
HETATM    7  C   UNL     1      -5.250   2.597 -32.725  1.00  0.00     0.050 A 
HETATM    8  C   UNL     1      -4.852   4.797 -33.708  1.00  0.00     0.016 A 
HETATM    9  C   UNL     1      -3.490   4.613 -33.472  1.00  0.00     0.001 A 
HETATM   10  C   UNL     1      -3.019   3.430 -32.870  1.00  0.00     0.002 A 
HETATM   11  C   UNL     1      -3.902   2.409 -32.490  1.00  0.00     0.031 A 
ENDROOT
BRANCH   5  12
HETATM   12  N   UNL     1      -9.254   4.305 -33.986  1.00  0.00    -0.238 N 
HETATM   13  C   UNL     1     -10.071   4.933 -34.906  1.00  0.00     0.329 C 
HETATM   14  O   UNL     1      -9.764   5.787 -35.732  1.00  0.00    -0.261 OA
HETATM   15  H   UNL     1      -9.663   3.600 -33.362  1.00  0.00     0.192 HD
BRANCH  13  16
HETATM   16  C   UNL     1     -11.528   4.442 -34.855  1.00  0.00     0.315 C 
HETATM   17  N   UNL     1     -11.815   3.830 -33.653  1.00  0.00    -0.319 N 
HETATM   18  H   UNL     1     -11.025   3.786 -33.011  1.00  0.00     0.169 HD
HETATM   19  O   UNL     1     -12.259   4.639 -35.815  1.00  0.00    -0.262 OA
BRANCH  17  20
HETATM   20  C   UNL     1     -13.040   3.300 -33.219  1.00  0.00     0.035 A 
HETATM   21  C   UNL     1     -13.478   2.008 -33.522  1.00  0.00     0.032 A 
HETATM   22  C   UNL     1     -14.720   1.555 -33.063  1.00  0.00     0.039 A 
HETATM   23  C   UNL     1     -15.521   2.397 -32.301  1.00  0.00     0.065 A 
HETATM   24  C   UNL     1     -15.100   3.682 -31.988  1.00  0.00     0.039 A 
HETATM   25  C   UNL     1     -13.860   4.133 -32.447  1.00  0.00     0.032 A 
BRANCH  23  26
HETATM   26  O   UNL     1     -16.739   1.997 -31.839  1.00  0.00    -0.361 OA
HETATM   27  H   UNL     1     -17.000   2.583 -31.110  1.00  0.00     0.217 HD
ENDBRANCH  23  26
ENDBRANCH  17  20
ENDBRANCH  13  16
ENDBRANCH   5  12
BRANCH   1  28
HETATM   28  C   UNL     1      -6.239   0.441 -31.823  1.00  0.00     0.171 C 
BRANCH  28  29
HETATM   29  C   UNL     1      -5.954  -0.652 -32.825  1.00  0.00    -0.040 A 
HETATM   30  C   UNL     1      -4.667  -1.196 -32.954  1.00  0.00     0.009 A 
HETATM   31  C   UNL     1      -4.417  -2.211 -33.880  1.00  0.00     0.001 A 
HETATM   32  C   UNL     1      -5.445  -2.692 -34.688  1.00  0.00     0.000 A 
HETATM   33  C   UNL     1      -6.726  -2.158 -34.572  1.00  0.00     0.001 A 
HETATM   34  C   UNL     1      -6.979  -1.143 -33.648  1.00  0.00     0.009 A 
ENDBRANCH  28  29
ENDBRANCH   1  28
TORSDOF 6
ENDMDL
MODEL 5
REMARK VINA RESULT:      -8.7      1.881      2.512
REMARK  6 active torsions:
REMARK  status: ('A' for Active; 'I' for Inactive)
REMARK    1  A    between atoms: C_4  and  C_5 
REMARK    2  A    between atoms: C_5  and  N_6 
REMARK    3  A    between atoms: N_10  and  N_11 
REMARK       I    between atoms: N_11  and  C_12 
REMARK    4  A    between atoms: C_12  and  C_13 
REMARK       I    between atoms: C_13  and  N_14 
REMARK    5  A    between atoms: N_14  and  C_15 
REMARK    6  A    between atoms: C_18  and  O_19 
ROOT
HETATM    1  N   UNL     1      -8.941   1.775 -33.160  1.00  0.00    -0.307 N 
HETATM    2  C   UNL     1      -8.106   2.878 -33.149  1.00  0.00     0.280 A 
HETATM    3  O   UNL     1      -7.032   3.052 -32.609  1.00  0.00    -0.265 OA
HETATM    4  C   UNL     1      -8.805   3.933 -34.004  1.00  0.00     0.157 A 
HETATM    5  N   UNL     1      -8.418   5.136 -34.288  1.00  0.00    -0.165 NA
HETATM    6  C   UNL     1     -10.043   3.322 -34.466  1.00  0.00     0.027 A 
HETATM    7  C   UNL     1     -10.089   2.033 -33.932  1.00  0.00     0.050 A 
HETATM    8  C   UNL     1     -11.035   3.838 -35.276  1.00  0.00     0.016 A 
HETATM    9  C   UNL     1     -12.122   3.010 -35.555  1.00  0.00     0.001 A 
HETATM   10  C   UNL     1     -12.185   1.707 -35.023  1.00  0.00     0.002 A 
HETATM   11  C   UNL     1     -11.163   1.208 -34.204  1.00  0.00     0.031 A 
ENDROOT
BRANCH   5  12
HETATM   12  N   UNL     1      -7.233   5.548 -33.753  1.00  0.00    -0.238 N 
HETATM   13  C   UNL     1      -7.217   6.382 -32.653  1.00  0.00     0.329 C 
HETATM   14  O   UNL     1      -8.173   6.875 -32.063  1.00  0.00    -0.261 OA
HETATM   15  H   UNL     1      -6.340   5.209 -34.131  1.00  0.00     0.192 HD
BRANCH  13  16
HETATM   16  C   UNL     1      -5.797   6.674 -32.136  1.00  0.00     0.315 C 
HETATM   17  N   UNL     1      -4.967   5.584 -32.293  1.00  0.00    -0.319 N 
HETATM   18  H   UNL     1      -5.424   4.771 -32.703  1.00  0.00     0.169 HD
HETATM   19  O   UNL     1      -5.544   7.778 -31.676  1.00  0.00    -0.262 OA
BRANCH  17  20
HETATM   20  C   UNL     1      -3.601   5.482 -31.986  1.00  0.00     0.035 A 
HETATM   21  C   UNL     1      -3.044   5.905 -30.777  1.00  0.00     0.032 A 
HETATM   22  C   UNL     1      -1.668   5.781 -30.549  1.00  0.00     0.039 A 
HETATM   23  C   UNL     1      -0.854   5.234 -31.534  1.00  0.00     0.065 A 
HETATM   24  C   UNL     1      -1.392   4.806 -32.739  1.00  0.00     0.039 A 
HETATM   25  C   UNL     1      -2.765   4.929 -32.965  1.00  0.00     0.032 A 
BRANCH  23  26
HETATM   26  O   UNL     1       0.490   5.101 -31.353  1.00  0.00    -0.361 OA
HETATM   27  H   UNL     1       0.940   5.798 -31.859  1.00  0.00     0.217 HD
ENDBRANCH  23  26
ENDBRANCH  17  20
ENDBRANCH  13  16
ENDBRANCH   5  12
BRANCH   1  28
HETATM   28  C   UNL     1      -8.659   0.551 -32.449  1.00  0.00     0.171 C 
BRANCH  28  29
HETATM   29  C   UNL     1      -7.507  -0.220 -33.045  1.00  0.00    -0.040 A 
HETATM   30  C   UNL     1      -7.567  -0.709 -34.359  1.00  0.00     0.009 A 
HETATM   31  C   UNL     1      -6.492  -1.416 -34.902  1.00  0.00     0.001 A 
HETATM   32  C   UNL     1      -5.348  -1.645 -34.141  1.00  0.00     0.000 A 
HETATM   33  C   UNL     1      -5.277  -1.168 -32.835  1.00  0.00     0.001 A 
HETATM   34  C   UNL     1      -6.350  -0.462 -32.289  1.00  0.00     0.009 A 
ENDBRANCH  28  29
ENDBRANCH   1  28
TORSDOF 6
ENDMDL
MODEL 6
REMARK VINA RESULT:      -8.7      1.818      4.271
REMARK  6 active torsions:
REMARK  status: ('A' for Active; 'I' for Inactive)
REMARK    1  A    between atoms: C_4  and  C_5 
REMARK    2  A    between atoms: C_5  and  N_6 
REMARK    3  A    between atoms: N_10  and  N_11 
REMARK       I    between atoms: N_11  and  C_12 
REMARK    4  A    between atoms: C_12  and  C_13 
REMARK       I    between atoms: C_13  and  N_14 
REMARK    5  A    between atoms: N_14  and  C_15 
REMARK    6  A    between atoms: C_18  and  O_19 
ROOT
HETATM    1  N   UNL     1      -7.204   0.708 -32.075  1.00  0.00    -0.307 N 
HETATM    2  C   UNL     1      -6.155   1.519 -31.681  1.00  0.00     0.280 A 
HETATM    3  O   UNL     1      -6.137   2.495 -30.959  1.00  0.00    -0.265 OA
HETATM    4  C   UNL     1      -4.911   0.935 -32.348  1.00  0.00     0.157 A 
HETATM    5  N   UNL     1      -3.685   1.349 -32.286  1.00  0.00    -0.165 NA
HETATM    6  C   UNL     1      -5.365  -0.223 -33.104  1.00  0.00     0.027 A 
HETATM    7  C   UNL     1      -6.745  -0.319 -32.920  1.00  0.00     0.050 A 
HETATM    8  C   UNL     1      -4.644  -1.111 -33.880  1.00  0.00     0.016 A 
HETATM    9  C   UNL     1      -5.357  -2.140 -34.494  1.00  0.00     0.001 A 
HETATM   10  C   UNL     1      -6.750  -2.250 -34.320  1.00  0.00     0.002 A 
HETATM   11  C   UNL     1      -7.457  -1.336 -33.527  1.00  0.00     0.031 A 
ENDROOT
BRANCH   5  12
HETATM   12  N   UNL     1      -3.446   2.465 -31.538  1.00  0.00    -0.238 N 
HETATM   13  C   UNL     1      -2.917   3.597 -32.126  1.00  0.00     0.329 C 
HETATM   14  O   UNL     1      -2.571   3.754 -33.292  1.00  0.00    -0.261 OA
HETATM   15  H   UNL     1      -3.695   2.493 -30.543  1.00  0.00     0.192 HD
BRANCH  13  16
HETATM   16  C   UNL     1      -2.794   4.782 -31.151  1.00  0.00     0.315 C 
HETATM   17  N   UNL     1      -1.476   5.064 -30.860  1.00  0.00    -0.319 N 
HETATM   18  H   UNL     1      -0.809   4.442 -31.314  1.00  0.00     0.169 HD
HETATM   19  O   UNL     1      -3.808   5.341 -30.760  1.00  0.00    -0.262 OA
BRANCH  17  20
HETATM   20  C   UNL     1      -0.966   6.093 -30.053  1.00  0.00     0.035 A 
HETATM   21  C   UNL     1      -1.474   7.394 -30.041  1.00  0.00     0.032 A 
HETATM   22  C   UNL     1      -0.902   8.371 -29.217  1.00  0.00     0.039 A 
HETATM   23  C   UNL     1       0.178   8.041 -28.407  1.00  0.00     0.065 A 
HETATM   24  C   UNL     1       0.693   6.752 -28.405  1.00  0.00     0.039 A 
HETATM   25  C   UNL     1       0.121   5.778 -29.227  1.00  0.00     0.032 A 
BRANCH  23  26
HETATM   26  O   UNL     1       0.766   8.963 -27.595  1.00  0.00    -0.361 OA
HETATM   27  H   UNL     1       1.207   8.495 -26.865  1.00  0.00     0.217 HD
ENDBRANCH  23  26
ENDBRANCH  17  20
ENDBRANCH  13  16
ENDBRANCH   5  12
BRANCH   1  28
HETATM   28  C   UNL     1      -8.575   0.925 -31.678  1.00  0.00     0.171 C 
BRANCH  28  29
HETATM   29  C   UNL     1      -9.399   1.583 -32.758  1.00  0.00    -0.040 A 
HETATM   30  C   UNL     1     -10.467   0.906 -33.367  1.00  0.00     0.009 A 
HETATM   31  C   UNL     1     -11.226   1.528 -34.360  1.00  0.00     0.001 A 
HETATM   32  C   UNL     1     -10.927   2.829 -34.758  1.00  0.00     0.000 A 
HETATM   33  C   UNL     1      -9.869   3.511 -34.165  1.00  0.00     0.001 A 
HETATM   34  C   UNL     1      -9.108   2.892 -33.172  1.00  0.00     0.009 A 
ENDBRANCH  28  29
ENDBRANCH   1  28
TORSDOF 6
ENDMDL
MODEL 7
REMARK VINA RESULT:      -8.5      2.359      4.680
REMARK  6 active torsions:
REMARK  status: ('A' for Active; 'I' for Inactive)
REMARK    1  A    between atoms: C_4  and  C_5 
REMARK    2  A    between atoms: C_5  and  N_6 
REMARK    3  A    between atoms: N_10  and  N_11 
REMARK       I    between atoms: N_11  and  C_12 
REMARK    4  A    between atoms: C_12  and  C_13 
REMARK       I    between atoms: C_13  and  N_14 
REMARK    5  A    between atoms: N_14  and  C_15 
REMARK    6  A    between atoms: C_18  and  O_19 
ROOT
HETATM    1  N   UNL     1      -5.895   0.707 -33.824  1.00  0.00    -0.307 N 
HETATM    2  C   UNL     1      -5.443   1.710 -32.985  1.00  0.00     0.280 A 
HETATM    3  O   UNL     1      -5.791   2.869 -32.878  1.00  0.00    -0.265 OA
HETATM    4  C   UNL     1      -4.348   1.071 -32.133  1.00  0.00     0.157 A 
HETATM    5  N   UNL     1      -3.622   1.610 -31.206  1.00  0.00    -0.165 NA
HETATM    6  C   UNL     1      -4.257  -0.315 -32.566  1.00  0.00     0.027 A 
HETATM    7  C   UNL     1      -5.195  -0.489 -33.586  1.00  0.00     0.050 A 
HETATM    8  C   UNL     1      -3.435  -1.330 -32.116  1.00  0.00     0.016 A 
HETATM    9  C   UNL     1      -3.572  -2.576 -32.727  1.00  0.00     0.001 A 
HETATM   10  C   UNL     1      -4.513  -2.769 -33.758  1.00  0.00     0.002 A 
HETATM   11  C   UNL     1      -5.335  -1.721 -34.195  1.00  0.00     0.031 A 
ENDROOT
BRANCH   5  12
HETATM   12  N   UNL     1      -3.835   2.932 -30.942  1.00  0.00    -0.238 N 
HETATM   13  C   UNL     1      -2.980   3.891 -31.447  1.00  0.00     0.329 C 
HETATM   14  O   UNL     1      -1.964   3.723 -32.115  1.00  0.00    -0.261 OA
HETATM   15  H   UNL     1      -4.655   3.234 -30.403  1.00  0.00     0.192 HD
BRANCH  13  16
HETATM   16  C   UNL     1      -3.422   5.328 -31.120  1.00  0.00     0.315 C 
HETATM   17  N   UNL     1      -2.381   6.074 -30.606  1.00  0.00    -0.319 N 
HETATM   18  H   UNL     1      -1.508   5.557 -30.511  1.00  0.00     0.169 HD
HETATM   19  O   UNL     1      -4.575   5.664 -31.343  1.00  0.00    -0.262 OA
BRANCH  17  20
HETATM   20  C   UNL     1      -2.384   7.427 -30.234  1.00  0.00     0.035 A 
HETATM   21  C   UNL     1      -2.394   8.483 -31.148  1.00  0.00     0.032 A 
HETATM   22  C   UNL     1      -2.383   9.809 -30.700  1.00  0.00     0.039 A 
HETATM   23  C   UNL     1      -2.361  10.073 -29.335  1.00  0.00     0.065 A 
HETATM   24  C   UNL     1      -2.354   9.036 -28.413  1.00  0.00     0.039 A 
HETATM   25  C   UNL     1      -2.366   7.713 -28.863  1.00  0.00     0.032 A 
BRANCH  23  26
HETATM   26  O   UNL     1      -2.344  11.349 -28.858  1.00  0.00    -0.361 OA
HETATM   27  H   UNL     1      -2.545  11.326 -27.907  1.00  0.00     0.217 HD
ENDBRANCH  23  26
ENDBRANCH  17  20
ENDBRANCH  13  16
ENDBRANCH   5  12
BRANCH   1  28
HETATM   28  C   UNL     1      -6.927   0.898 -34.815  1.00  0.00     0.171 C 
BRANCH  28  29
HETATM   29  C   UNL     1      -8.318   0.833 -34.231  1.00  0.00    -0.040 A 
HETATM   30  C   UNL     1      -9.280   1.806 -34.543  1.00  0.00     0.009 A 
HETATM   31  C   UNL     1     -10.564   1.732 -34.001  1.00  0.00     0.001 A 
HETATM   32  C   UNL     1     -10.903   0.689 -33.141  1.00  0.00     0.000 A 
HETATM   33  C   UNL     1      -9.957  -0.281 -32.820  1.00  0.00     0.001 A 
HETATM   34  C   UNL     1      -8.672  -0.209 -33.359  1.00  0.00     0.009 A 
ENDBRANCH  28  29
ENDBRANCH   1  28
TORSDOF 6
ENDMDL
MODEL 8
REMARK VINA RESULT:      -8.4      1.944      4.531
REMARK  6 active torsions:
REMARK  status: ('A' for Active; 'I' for Inactive)
REMARK    1  A    between atoms: C_4  and  C_5 
REMARK    2  A    between atoms: C_5  and  N_6 
REMARK    3  A    between atoms: N_10  and  N_11 
REMARK       I    between atoms: N_11  and  C_12 
REMARK    4  A    between atoms: C_12  and  C_13 
REMARK       I    between atoms: C_13  and  N_14 
REMARK    5  A    between atoms: N_14  and  C_15 
REMARK    6  A    between atoms: C_18  and  O_19 
ROOT
HETATM    1  N   UNL     1      -6.622   2.078 -31.604  1.00  0.00    -0.307 N 
HETATM    2  C   UNL     1      -5.530   2.856 -31.262  1.00  0.00     0.280 A 
HETATM    3  O   UNL     1      -5.469   3.923 -30.684  1.00  0.00    -0.265 OA
HETATM    4  C   UNL     1      -4.306   2.090 -31.760  1.00  0.00     0.157 A 
HETATM    5  N   UNL     1      -3.055   2.416 -31.679  1.00  0.00    -0.165 NA
HETATM    6  C   UNL     1      -4.815   0.873 -32.375  1.00  0.00     0.027 A 
HETATM    7  C   UNL     1      -6.206   0.909 -32.267  1.00  0.00     0.050 A 
HETATM    8  C   UNL     1      -4.131  -0.169 -32.971  1.00  0.00     0.016 A 
HETATM    9  C   UNL     1      -4.894  -1.220 -33.479  1.00  0.00     0.001 A 
HETATM   10  C   UNL     1      -6.299  -1.199 -33.380  1.00  0.00     0.002 A 
HETATM   11  C   UNL     1      -6.967  -0.129 -32.769  1.00  0.00     0.031 A 
ENDROOT
BRANCH   5  12
HETATM   12  N   UNL     1      -2.763   3.607 -31.081  1.00  0.00    -0.238 N 
HETATM   13  C   UNL     1      -2.111   4.600 -31.786  1.00  0.00     0.329 C 
HETATM   14  O   UNL     1      -1.691   4.559 -32.938  1.00  0.00    -0.261 OA
HETATM   15  H   UNL     1      -3.062   3.798 -30.118  1.00  0.00     0.192 HD
BRANCH  13  16
HETATM   16  C   UNL     1      -1.941   5.900 -30.981  1.00  0.00     0.315 C 
HETATM   17  N   UNL     1      -1.029   5.747 -29.957  1.00  0.00    -0.319 N 
HETATM   18  H   UNL     1      -0.636   4.810 -29.889  1.00  0.00     0.169 HD
HETATM   19  O   UNL     1      -2.575   6.892 -31.308  1.00  0.00    -0.262 OA
BRANCH  17  20
HETATM   20  C   UNL     1      -0.579   6.713 -29.044  1.00  0.00     0.035 A 
HETATM   21  C   UNL     1       0.669   7.336 -29.125  1.00  0.00     0.032 A 
HETATM   22  C   UNL     1       1.052   8.283 -28.167  1.00  0.00     0.039 A 
HETATM   23  C   UNL     1       0.184   8.602 -27.130  1.00  0.00     0.065 A 
HETATM   24  C   UNL     1      -1.060   7.994 -27.036  1.00  0.00     0.039 A 
HETATM   25  C   UNL     1      -1.442   7.051 -27.993  1.00  0.00     0.032 A 
BRANCH  23  26
HETATM   26  O   UNL     1       0.521   9.513 -26.175  1.00  0.00    -0.361 OA
HETATM   27  H   UNL     1       0.607   9.052 -25.324  1.00  0.00     0.217 HD
ENDBRANCH  23  26
ENDBRANCH  17  20
ENDBRANCH  13  16
ENDBRANCH   5  12
BRANCH   1  28
HETATM   28  C   UNL     1      -7.989   2.452 -31.329  1.00  0.00     0.171 C 
BRANCH  28  29
HETATM   29  C   UNL     1      -8.673   3.082 -32.518  1.00  0.00    -0.040 A 
HETATM   30  C   UNL     1      -9.688   2.406 -33.211  1.00  0.00     0.009 A 
HETATM   31  C   UNL     1     -10.318   3.002 -34.305  1.00  0.00     0.001 A 
HETATM   32  C   UNL     1      -9.940   4.277 -34.722  1.00  0.00     0.000 A 
HETATM   33  C   UNL     1      -8.932   4.958 -34.045  1.00  0.00     0.001 A 
HETATM   34  C   UNL     1      -8.300   4.364 -32.952  1.00  0.00     0.009 A 
ENDBRANCH  28  29
ENDBRANCH   1  28
TORSDOF 6
ENDMDL
MODEL 9
REMARK VINA RESULT:      -8.3      4.557      7.994
REMARK  6 active torsions:
REMARK  status: ('A' for Active; 'I' for Inactive)
REMARK    1  A    between atoms: C_4  and  C_5 
REMARK    2  A    between atoms: C_5  and  N_6 
REMARK    3  A    between atoms: N_10  and  N_11 
REMARK       I    between atoms: N_11  and  C_12 
REMARK    4  A    between atoms: C_12  and  C_13 
REMARK       I    between atoms: C_13  and  N_14 
REMARK    5  A    between atoms: N_14  and  C_15 
REMARK    6  A    between atoms: C_18  and  O_19 
ROOT
HETATM    1  N   UNL     1     -10.880   3.928 -32.949  1.00  0.00    -0.307 N 
HETATM    2  C   UNL     1      -9.991   2.956 -32.526  1.00  0.00     0.280 A 
HETATM    3  O   UNL     1      -9.751   1.853 -32.976  1.00  0.00    -0.265 OA
HETATM    4  C   UNL     1      -9.289   3.544 -31.303  1.00  0.00     0.157 A 
HETATM    5  N   UNL     1      -8.376   3.011 -30.555  1.00  0.00    -0.165 NA
HETATM    6  C   UNL     1      -9.854   4.873 -31.115  1.00  0.00     0.027 A 
HETATM    7  C   UNL     1     -10.809   5.059 -32.116  1.00  0.00     0.050 A 
HETATM    8  C   UNL     1      -9.565   5.829 -30.161  1.00  0.00     0.016 A 
HETATM    9  C   UNL     1     -10.275   7.027 -30.228  1.00  0.00     0.001 A 
HETATM   10  C   UNL     1     -11.243   7.232 -31.231  1.00  0.00     0.002 A 
HETATM   11  C   UNL     1     -11.516   6.243 -32.187  1.00  0.00     0.031 A 
ENDROOT
BRANCH   5  12
HETATM   12  N   UNL     1      -7.976   1.746 -30.874  1.00  0.00    -0.238 N 
HETATM   13  C   UNL     1      -6.812   1.542 -31.588  1.00  0.00     0.329 C 
HETATM   14  O   UNL     1      -6.046   2.385 -32.043  1.00  0.00    -0.261 OA
HETATM   15  H   UNL     1      -8.508   0.930 -30.551  1.00  0.00     0.192 HD
BRANCH  13  16
HETATM   16  C   UNL     1      -6.475   0.054 -31.782  1.00  0.00     0.315 C 
HETATM   17  N   UNL     1      -6.528  -0.309 -33.111  1.00  0.00    -0.319 N 
HETATM   18  H   UNL     1      -6.795   0.449 -33.737  1.00  0.00     0.169 HD
HETATM   19  O   UNL     1      -6.193  -0.627 -30.807  1.00  0.00    -0.262 OA
BRANCH  17  20
HETATM   20  C   UNL     1      -6.241  -1.559 -33.682  1.00  0.00     0.035 A 
HETATM   21  C   UNL     1      -7.209  -2.399 -34.238  1.00  0.00     0.032 A 
HETATM   22  C   UNL     1      -6.846  -3.639 -34.778  1.00  0.00     0.039 A 
HETATM   23  C   UNL     1      -5.514  -4.033 -34.760  1.00  0.00     0.065 A 
HETATM   24  C   UNL     1      -4.539  -3.209 -34.215  1.00  0.00     0.039 A 
HETATM   25  C   UNL     1      -4.903  -1.972 -33.677  1.00  0.00     0.032 A 
BRANCH  23  26
HETATM   26  O   UNL     1      -5.120  -5.233 -35.271  1.00  0.00    -0.361 OA
HETATM   27  H   UNL     1      -4.247  -5.454 -34.904  1.00  0.00     0.217 HD
ENDBRANCH  23  26
ENDBRANCH  17  20
ENDBRANCH  13  16
ENDBRANCH   5  12
BRANCH   1  28
HETATM   28  C   UNL     1     -11.765   3.765 -34.078  1.00  0.00     0.171 C 
BRANCH  28  29
HETATM   29  C   UNL     1     -12.947   2.878 -33.771  1.00  0.00    -0.040 A 
HETATM   30  C   UNL     1     -13.247   1.769 -34.577  1.00  0.00     0.009 A 
HETATM   31  C   UNL     1     -14.340   0.952 -34.280  1.00  0.00     0.001 A 
HETATM   32  C   UNL     1     -15.145   1.232 -33.178  1.00  0.00     0.000 A 
HETATM   33  C   UNL     1     -14.861   2.331 -32.372  1.00  0.00     0.001 A 
HETATM   34  C   UNL     1     -13.770   3.150 -32.667  1.00  0.00     0.009 A 
ENDBRANCH  28  29
ENDBRANCH   1  28
TORSDOF 6
ENDMDL
MODEL 10
REMARK VINA RESULT:      -8.0      2.793      5.377
REMARK  6 active torsions:
REMARK  status: ('A' for Active; 'I' for Inactive)
REMARK    1  A    between atoms: C_4  and  C_5 
REMARK    2  A    between atoms: C_5  and  N_6 
REMARK    3  A    between atoms: N_10  and  N_11 
REMARK       I    between atoms: N_11  and  C_12 
REMARK    4  A    between atoms: C_12  and  C_13 
REMARK       I    between atoms: C_13  and  N_14 
REMARK    5  A    between atoms: N_14  and  C_15 
REMARK    6  A    between atoms: C_18  and  O_19 
ROOT
HETATM    1  N   UNL     1      -6.506  -0.951 -34.587  1.00  0.00    -0.307 N 
HETATM    2  C   UNL     1      -5.627  -0.072 -33.979  1.00  0.00     0.280 A 
HETATM    3  O   UNL     1      -5.703   1.127 -33.803  1.00  0.00    -0.265 OA
HETATM    4  C   UNL     1      -4.448  -0.925 -33.514  1.00  0.00     0.157 A 
HETATM    5  N   UNL     1      -3.371  -0.554 -32.897  1.00  0.00    -0.165 NA
HETATM    6  C   UNL     1      -4.759  -2.292 -33.906  1.00  0.00     0.027 A 
HETATM    7  C   UNL     1      -5.996  -2.262 -34.553  1.00  0.00     0.050 A 
HETATM    8  C   UNL     1      -4.033  -3.452 -33.718  1.00  0.00     0.016 A 
HETATM    9  C   UNL     1      -4.589  -4.634 -34.207  1.00  0.00     0.001 A 
HETATM   10  C   UNL     1      -5.836  -4.622 -34.863  1.00  0.00     0.002 A 
HETATM   11  C   UNL     1      -6.551  -3.429 -35.040  1.00  0.00     0.031 A 
ENDROOT
BRANCH   5  12
HETATM   12  N   UNL     1      -3.241   0.776 -32.623  1.00  0.00    -0.238 N 
HETATM   13  C   UNL     1      -3.653   1.280 -31.405  1.00  0.00     0.329 C 
HETATM   14  O   UNL     1      -4.189   0.679 -30.480  1.00  0.00    -0.261 OA
HETATM   15  H   UNL     1      -2.796   1.410 -33.296  1.00  0.00     0.192 HD
BRANCH  13  16
HETATM   16  C   UNL     1      -3.353   2.779 -31.239  1.00  0.00     0.315 C 
HETATM   17  N   UNL     1      -4.511   3.516 -31.098  1.00  0.00    -0.319 N 
HETATM   18  H   UNL     1      -5.363   2.960 -31.145  1.00  0.00     0.169 HD
HETATM   19  O   UNL     1      -2.191   3.159 -31.230  1.00  0.00    -0.262 OA
BRANCH  17  20
HETATM   20  C   UNL     1      -4.641   4.896 -30.882  1.00  0.00     0.035 A 
HETATM   21  C   UNL     1      -5.144   5.453 -29.703  1.00  0.00     0.032 A 
HETATM   22  C   UNL     1      -5.256   6.842 -29.567  1.00  0.00     0.039 A 
HETATM   23  C   UNL     1      -4.862   7.669 -30.612  1.00  0.00     0.065 A 
HETATM   24  C   UNL     1      -4.357   7.133 -31.788  1.00  0.00     0.039 A 
HETATM   25  C   UNL     1      -4.246   5.747 -31.922  1.00  0.00     0.032 A 
BRANCH  23  26
HETATM   26  O   UNL     1      -4.959   9.025 -30.521  1.00  0.00    -0.361 OA
HETATM   27  H   UNL     1      -4.447   9.421 -31.246  1.00  0.00     0.217 HD
ENDBRANCH  23  26
ENDBRANCH  17  20
ENDBRANCH  13  16
ENDBRANCH   5  12
BRANCH   1  28
HETATM   28  C   UNL     1      -7.754  -0.547 -35.188  1.00  0.00     0.171 C 
BRANCH  28  29
HETATM   29  C   UNL     1      -8.595   0.307 -34.270  1.00  0.00    -0.040 A 
HETATM   30  C   UNL     1      -9.005   1.593 -34.653  1.00  0.00     0.009 A 
HETATM   31  C   UNL     1      -9.788   2.371 -33.798  1.00  0.00     0.001 A 
HETATM   32  C   UNL     1     -10.168   1.877 -32.552  1.00  0.00     0.000 A 
HETATM   33  C   UNL     1      -9.766   0.604 -32.158  1.00  0.00     0.001 A 
HETATM   34  C   UNL     1      -8.982  -0.176 -33.010  1.00  0.00     0.009 A 
ENDBRANCH  28  29
ENDBRANCH   1  28
TORSDOF 6
ENDMDL
