MODEL 1
REMARK VINA RESULT:      -8.4      0.000      0.000
REMARK  8 active torsions:
REMARK  status: ('A' for Active; 'I' for Inactive)
REMARK    1  A    between atoms: O_2  and  C_3 
REMARK    2  A    between atoms: C_4  and  O_5 
REMARK    3  A    between atoms: C_6  and  C_7 
REMARK    4  A    between atoms: C_7  and  C_8 
REMARK    5  A    between atoms: C_11  and  C_12 
REMARK    6  A    between atoms: C_12  and  N_13 
REMARK    7  A    between atoms: C_16  and  N_17 
REMARK       I    between atoms: N_17  and  C_18 
REMARK       I    between atoms: C_18  and  N_19 
REMARK    8  A    between atoms: N_19  and  C_20 
ROOT
HETATM    1  N   UNL     1      -8.505   1.720 -34.597  1.00  0.00    -0.065 N 
HETATM    2  H   UNL     1      -8.788   1.665 -35.586  1.00  0.00     0.280 HD
HETATM    3  C   UNL     1      -7.071   2.232 -34.609  1.00  0.00     0.260 C 
HETATM    4  C   UNL     1      -7.096   3.491 -33.729  1.00  0.00     0.113 C 
HETATM    5  C   UNL     1      -8.501   4.035 -33.945  1.00  0.00     0.054 C 
HETATM    6  C   UNL     1      -9.354   2.782 -33.933  1.00  0.00     0.237 C 
ENDROOT
BRANCH   1   7
HETATM    7  C   UNL     1      -8.698   0.351 -34.006  1.00  0.00     0.273 C 
BRANCH   7   8
HETATM    8  C   UNL     1      -7.421  -0.274 -33.512  1.00  0.00    -0.029 A 
HETATM    9  C   UNL     1      -6.751  -1.223 -34.301  1.00  0.00     0.019 A 
HETATM   10  C   UNL     1      -5.544  -1.799 -33.872  1.00  0.00    -0.018 A 
HETATM   11  C   UNL     1      -5.016  -1.389 -32.646  1.00  0.00     0.105 A 
HETATM   12  C   UNL     1      -5.672  -0.455 -31.833  1.00  0.00     0.102 A 
HETATM   13  C   UNL     1      -6.875   0.098 -32.269  1.00  0.00     0.048 A 
BRANCH  10  14
HETATM   14  C   UNL     1      -4.842  -2.813 -34.745  1.00  0.00     0.068 C 
BRANCH  14  15
HETATM   15  C   UNL     1      -5.475  -4.173 -34.650  1.00  0.00    -0.032 C 
HETATM   16  C   UNL     1      -6.480  -4.600 -35.424  1.00  0.00     0.007 C 
ENDBRANCH  14  15
ENDBRANCH  10  14
BRANCH  11  17
HETATM   17  O   UNL     1      -3.825  -1.917 -32.222  1.00  0.00    -0.357 OA
HETATM   18  H   UNL     1      -3.408  -2.310 -33.014  1.00  0.00     0.218 HD
ENDBRANCH  11  17
BRANCH  12  19
HETATM   19  O   UNL     1      -5.029  -0.162 -30.658  1.00  0.00    -0.353 OA
HETATM   20  C   UNL     1      -5.745   0.596 -29.691  1.00  0.00     0.210 C 
ENDBRANCH  12  19
ENDBRANCH   7   8
ENDBRANCH   1   7
BRANCH   4  21
HETATM   21  N   UNL     1      -6.030   4.449 -33.954  1.00  0.00    -0.337 N 
HETATM   22  C   UNL     1      -4.989   4.618 -33.061  1.00  0.00     0.321 C 
HETATM   23  N   UNL     1      -4.099   5.559 -33.516  1.00  0.00    -0.309 N 
HETATM   24  O   UNL     1      -4.945   3.992 -32.011  1.00  0.00    -0.247 OA
HETATM   25  H   UNL     1      -4.438   6.182 -34.234  1.00  0.00     0.170 HD
HETATM   26  H   UNL     1      -5.791   4.658 -34.916  1.00  0.00     0.164 HD
BRANCH  23  27
HETATM   27  C   UNL     1      -2.844   5.886 -32.964  1.00  0.00     0.036 A 
HETATM   28  C   UNL     1      -1.859   4.939 -32.665  1.00  0.00     0.032 A 
HETATM   29  C   UNL     1      -0.625   5.346 -32.148  1.00  0.00     0.044 A 
HETATM   30  C   UNL     1      -0.379   6.695 -31.929  1.00  0.00     0.116 A 
HETATM   31  F   UNL     1       0.803   7.081 -31.435  1.00  0.00    -0.206 F 
HETATM   32  C   UNL     1      -1.344   7.649 -32.221  1.00  0.00     0.044 A 
HETATM   33  C   UNL     1      -2.575   7.244 -32.743  1.00  0.00     0.032 A 
ENDBRANCH  23  27
ENDBRANCH   4  21
TORSDOF 8
ENDMDL
MODEL 2
REMARK VINA RESULT:      -8.2      3.568      4.925
REMARK  8 active torsions:
REMARK  status: ('A' for Active; 'I' for Inactive)
REMARK    1  A    between atoms: O_2  and  C_3 
REMARK    2  A    between atoms: C_4  and  O_5 
REMARK    3  A    between atoms: C_6  and  C_7 
REMARK    4  A    between atoms: C_7  and  C_8 
REMARK    5  A    between atoms: C_11  and  C_12 
REMARK    6  A    between atoms: C_12  and  N_13 
REMARK    7  A    between atoms: C_16  and  N_17 
REMARK       I    between atoms: N_17  and  C_18 
REMARK       I    between atoms: C_18  and  N_19 
REMARK    8  A    between atoms: N_19  and  C_20 
ROOT
HETATM    1  N   UNL     1      -3.866   3.188 -32.678  1.00  0.00    -0.065 N 
HETATM    2  H   UNL     1      -3.499   2.361 -33.171  1.00  0.00     0.280 HD
HETATM    3  C   UNL     1      -3.015   3.326 -31.422  1.00  0.00     0.260 C 
HETATM    4  C   UNL     1      -2.442   4.750 -31.492  1.00  0.00     0.113 C 
HETATM    5  C   UNL     1      -2.311   4.996 -32.989  1.00  0.00     0.054 C 
HETATM    6  C   UNL     1      -3.589   4.398 -33.542  1.00  0.00     0.237 C 
ENDROOT
BRANCH   1   7
HETATM    7  C   UNL     1      -5.332   2.949 -32.444  1.00  0.00     0.273 C 
BRANCH   7   8
HETATM    8  C   UNL     1      -5.790   1.578 -32.863  1.00  0.00    -0.029 A 
HETATM    9  C   UNL     1      -4.853   0.549 -33.052  1.00  0.00     0.019 A 
HETATM   10  C   UNL     1      -5.262  -0.744 -33.416  1.00  0.00    -0.018 A 
HETATM   11  C   UNL     1      -6.628  -0.987 -33.568  1.00  0.00     0.105 A 
HETATM   12  C   UNL     1      -7.584   0.025 -33.400  1.00  0.00     0.102 A 
HETATM   13  C   UNL     1      -7.159   1.307 -33.050  1.00  0.00     0.048 A 
BRANCH  10  14
HETATM   14  C   UNL     1      -4.231  -1.833 -33.606  1.00  0.00     0.068 C 
BRANCH  14  15
HETATM   15  C   UNL     1      -3.522  -2.167 -32.323  1.00  0.00    -0.032 C 
HETATM   16  C   UNL     1      -3.097  -3.391 -31.986  1.00  0.00     0.007 C 
ENDBRANCH  14  15
ENDBRANCH  10  14
BRANCH  11  17
HETATM   17  O   UNL     1      -7.050  -2.249 -33.895  1.00  0.00    -0.357 OA
HETATM   18  H   UNL     1      -7.950  -2.336 -33.525  1.00  0.00     0.218 HD
ENDBRANCH  11  17
BRANCH  12  19
HETATM   19  O   UNL     1      -8.882  -0.371 -33.591  1.00  0.00    -0.353 OA
HETATM   20  C   UNL     1      -9.888   0.305 -32.846  1.00  0.00     0.210 C 
ENDBRANCH  12  19
ENDBRANCH   7   8
ENDBRANCH   1   7
BRANCH   4  21
HETATM   21  N   UNL     1      -1.233   4.989 -30.727  1.00  0.00    -0.337 N 
HETATM   22  C   UNL     1      -1.091   6.081 -29.893  1.00  0.00     0.321 C 
HETATM   23  N   UNL     1       0.129   6.063 -29.262  1.00  0.00    -0.309 N 
HETATM   24  O   UNL     1      -1.971   6.926 -29.797  1.00  0.00    -0.247 OA
HETATM   25  H   UNL     1       0.836   5.475 -29.678  1.00  0.00     0.170 HD
HETATM   26  H   UNL     1      -0.695   4.177 -30.445  1.00  0.00     0.164 HD
BRANCH  23  27
HETATM   27  C   UNL     1       0.569   6.915 -28.229  1.00  0.00     0.036 A 
HETATM   28  C   UNL     1       0.423   6.623 -26.870  1.00  0.00     0.032 A 
HETATM   29  C   UNL     1       0.915   7.506 -25.903  1.00  0.00     0.044 A 
HETATM   30  C   UNL     1       1.550   8.677 -26.296  1.00  0.00     0.116 A 
HETATM   31  F   UNL     1       2.022   9.518 -25.369  1.00  0.00    -0.206 F 
HETATM   32  C   UNL     1       1.706   8.982 -27.641  1.00  0.00     0.044 A 
HETATM   33  C   UNL     1       1.220   8.098 -28.608  1.00  0.00     0.032 A 
ENDBRANCH  23  27
ENDBRANCH   4  21
TORSDOF 8
ENDMDL
MODEL 3
REMARK VINA RESULT:      -8.2      1.136      2.940
REMARK  8 active torsions:
REMARK  status: ('A' for Active; 'I' for Inactive)
REMARK    1  A    between atoms: O_2  and  C_3 
REMARK    2  A    between atoms: C_4  and  O_5 
REMARK    3  A    between atoms: C_6  and  C_7 
REMARK    4  A    between atoms: C_7  and  C_8 
REMARK    5  A    between atoms: C_11  and  C_12 
REMARK    6  A    between atoms: C_12  and  N_13 
REMARK    7  A    between atoms: C_16  and  N_17 
REMARK       I    between atoms: N_17  and  C_18 
REMARK       I    between atoms: C_18  and  N_19 
REMARK    8  A    between atoms: N_19  and  C_20 
ROOT
HETATM    1  N   UNL     1      -8.311   1.623 -34.337  1.00  0.00    -0.065 N 
HETATM    2  H   UNL     1      -8.598   1.492 -35.318  1.00  0.00     0.280 HD
HETATM    3  C   UNL     1      -6.882   2.147 -34.395  1.00  0.00     0.260 C 
HETATM    4  C   UNL     1      -6.916   3.468 -33.611  1.00  0.00     0.113 C 
HETATM    5  C   UNL     1      -8.327   3.981 -33.860  1.00  0.00     0.054 C 
HETATM    6  C   UNL     1      -9.168   2.723 -33.750  1.00  0.00     0.237 C 
ENDROOT
BRANCH   1   7
HETATM    7  C   UNL     1      -8.489   0.301 -33.644  1.00  0.00     0.273 C 
BRANCH   7   8
HETATM    8  C   UNL     1      -7.233  -0.529 -33.607  1.00  0.00    -0.029 A 
HETATM    9  C   UNL     1      -6.289  -0.333 -32.586  1.00  0.00     0.019 A 
HETATM   10  C   UNL     1      -5.125  -1.115 -32.517  1.00  0.00    -0.018 A 
HETATM   11  C   UNL     1      -4.938  -2.108 -33.481  1.00  0.00     0.105 A 
HETATM   12  C   UNL     1      -5.857  -2.315 -34.519  1.00  0.00     0.102 A 
HETATM   13  C   UNL     1      -7.002  -1.522 -34.579  1.00  0.00     0.048 A 
BRANCH  10  14
HETATM   14  C   UNL     1      -4.129  -0.886 -31.403  1.00  0.00     0.068 C 
BRANCH  14  15
HETATM   15  C   UNL     1      -3.723   0.558 -31.299  1.00  0.00    -0.032 C 
HETATM   16  C   UNL     1      -3.291   1.302 -32.324  1.00  0.00     0.007 C 
ENDBRANCH  14  15
ENDBRANCH  10  14
BRANCH  11  17
HETATM   17  O   UNL     1      -3.822  -2.901 -33.415  1.00  0.00    -0.357 OA
HETATM   18  H   UNL     1      -3.903  -3.541 -34.150  1.00  0.00     0.218 HD
ENDBRANCH  11  17
BRANCH  12  19
HETATM   19  O   UNL     1      -5.527  -3.322 -35.388  1.00  0.00    -0.353 OA
HETATM   20  C   UNL     1      -6.319  -4.504 -35.351  1.00  0.00     0.210 C 
ENDBRANCH  12  19
ENDBRANCH   7   8
ENDBRANCH   1   7
BRANCH   4  21
HETATM   21  N   UNL     1      -5.860   4.416 -33.913  1.00  0.00    -0.337 N 
HETATM   22  C   UNL     1      -4.869   4.730 -33.003  1.00  0.00     0.321 C 
HETATM   23  N   UNL     1      -3.977   5.626 -33.538  1.00  0.00    -0.309 N 
HETATM   24  O   UNL     1      -4.864   4.250 -31.878  1.00  0.00    -0.247 OA
HETATM   25  H   UNL     1      -4.293   6.140 -34.348  1.00  0.00     0.170 HD
HETATM   26  H   UNL     1      -5.579   4.502 -34.882  1.00  0.00     0.164 HD
BRANCH  23  27
HETATM   27  C   UNL     1      -2.758   6.058 -32.977  1.00  0.00     0.036 A 
HETATM   28  C   UNL     1      -2.494   7.384 -32.626  1.00  0.00     0.032 A 
HETATM   29  C   UNL     1      -1.269   7.729 -32.044  1.00  0.00     0.044 A 
HETATM   30  C   UNL     1      -0.313   6.748 -31.817  1.00  0.00     0.116 A 
HETATM   31  F   UNL     1       0.856   7.080 -31.257  1.00  0.00    -0.206 F 
HETATM   32  C   UNL     1      -0.558   5.425 -32.157  1.00  0.00     0.044 A 
HETATM   33  C   UNL     1      -1.783   5.079 -32.734  1.00  0.00     0.032 A 
ENDBRANCH  23  27
ENDBRANCH   4  21
TORSDOF 8
ENDMDL
MODEL 4
REMARK VINA RESULT:      -8.1      4.552      8.718
REMARK  8 active torsions:
REMARK  status: ('A' for Active; 'I' for Inactive)
REMARK    1  A    between atoms: O_2  and  C_3 
REMARK    2  A    between atoms: C_4  and  O_5 
REMARK    3  A    between atoms: C_6  and  C_7 
REMARK    4  A    between atoms: C_7  and  C_8 
REMARK    5  A    between atoms: C_11  and  C_12 
REMARK    6  A    between atoms: C_12  and  N_13 
REMARK    7  A    between atoms: C_16  and  N_17 
REMARK       I    between atoms: N_17  and  C_18 
REMARK       I    between atoms: C_18  and  N_19 
REMARK    8  A    between atoms: N_19  and  C_20 
ROOT
HETATM    1  N   UNL     1      -5.317   0.010 -33.696  1.00  0.00    -0.065 N 
HETATM    2  H   UNL     1      -4.745   0.250 -34.519  1.00  0.00     0.280 HD
HETATM    3  C   UNL     1      -6.473   1.002 -33.697  1.00  0.00     0.260 C 
HETATM    4  C   UNL     1      -7.738   0.130 -33.697  1.00  0.00     0.113 C 
HETATM    5  C   UNL     1      -7.303  -1.110 -34.464  1.00  0.00     0.054 C 
HETATM    6  C   UNL     1      -5.906  -1.364 -33.930  1.00  0.00     0.237 C 
ENDROOT
BRANCH   1   7
HETATM    7  C   UNL     1      -4.413   0.070 -32.496  1.00  0.00     0.273 C 
BRANCH   7   8
HETATM    8  C   UNL     1      -4.247   1.459 -31.941  1.00  0.00    -0.029 A 
HETATM    9  C   UNL     1      -3.246   2.305 -32.446  1.00  0.00     0.019 A 
HETATM   10  C   UNL     1      -3.091   3.613 -31.961  1.00  0.00    -0.018 A 
HETATM   11  C   UNL     1      -3.971   4.061 -30.974  1.00  0.00     0.105 A 
HETATM   12  C   UNL     1      -4.969   3.233 -30.442  1.00  0.00     0.102 A 
HETATM   13  C   UNL     1      -5.101   1.933 -30.927  1.00  0.00     0.048 A 
BRANCH  10  14
HETATM   14  C   UNL     1      -2.008   4.503 -32.529  1.00  0.00     0.068 C 
BRANCH  14  15
HETATM   15  C   UNL     1      -2.310   4.928 -33.939  1.00  0.00    -0.032 C 
HETATM   16  C   UNL     1      -1.388   5.302 -34.835  1.00  0.00     0.007 C 
ENDBRANCH  14  15
ENDBRANCH  10  14
BRANCH  11  17
HETATM   17  O   UNL     1      -3.855   5.344 -30.508  1.00  0.00    -0.357 OA
HETATM   18  H   UNL     1      -4.578   5.850 -30.929  1.00  0.00     0.218 HD
ENDBRANCH  11  17
BRANCH  12  19
HETATM   19  O   UNL     1      -5.747   3.817 -29.476  1.00  0.00    -0.353 OA
HETATM   20  C   UNL     1      -7.151   3.850 -29.698  1.00  0.00     0.210 C 
ENDBRANCH  12  19
ENDBRANCH   7   8
ENDBRANCH   1   7
BRANCH   4  21
HETATM   21  N   UNL     1      -8.947   0.761 -34.193  1.00  0.00    -0.337 N 
HETATM   22  C   UNL     1     -10.179   0.564 -33.601  1.00  0.00     0.321 C 
HETATM   23  N   UNL     1     -11.154   1.292 -34.238  1.00  0.00    -0.309 N 
HETATM   24  O   UNL     1     -10.312  -0.193 -32.648  1.00  0.00    -0.247 OA
HETATM   25  H   UNL     1     -10.932   1.613 -35.169  1.00  0.00     0.170 HD
HETATM   26  H   UNL     1      -8.845   1.658 -34.655  1.00  0.00     0.164 HD
BRANCH  23  27
HETATM   27  C   UNL     1     -12.491   1.471 -33.830  1.00  0.00     0.036 A 
HETATM   28  C   UNL     1     -12.912   2.504 -32.988  1.00  0.00     0.032 A 
HETATM   29  C   UNL     1     -14.264   2.634 -32.653  1.00  0.00     0.044 A 
HETATM   30  C   UNL     1     -15.190   1.731 -33.159  1.00  0.00     0.116 A 
HETATM   31  F   UNL     1     -16.483   1.859 -32.839  1.00  0.00    -0.206 F 
HETATM   32  C   UNL     1     -14.791   0.700 -33.998  1.00  0.00     0.044 A 
HETATM   33  C   UNL     1     -13.441   0.573 -34.337  1.00  0.00     0.032 A 
ENDBRANCH  23  27
ENDBRANCH   4  21
TORSDOF 8
ENDMDL
MODEL 5
REMARK VINA RESULT:      -8.0      5.661      8.978
REMARK  8 active torsions:
REMARK  status: ('A' for Active; 'I' for Inactive)
REMARK    1  A    between atoms: O_2  and  C_3 
REMARK    2  A    between atoms: C_4  and  O_5 
REMARK    3  A    between atoms: C_6  and  C_7 
REMARK    4  A    between atoms: C_7  and  C_8 
REMARK    5  A    between atoms: C_11  and  C_12 
REMARK    6  A    between atoms: C_12  and  N_13 
REMARK    7  A    between atoms: C_16  and  N_17 
REMARK       I    between atoms: N_17  and  C_18 
REMARK       I    between atoms: C_18  and  N_19 
REMARK    8  A    between atoms: N_19  and  C_20 
ROOT
HETATM    1  N   UNL     1      -8.175   1.572 -33.535  1.00  0.00    -0.065 N 
HETATM    2  H   UNL     1      -7.504   1.432 -32.765  1.00  0.00     0.280 HD
HETATM    3  C   UNL     1      -9.537   1.196 -32.964  1.00  0.00     0.260 C 
HETATM    4  C   UNL     1     -10.412   2.440 -33.187  1.00  0.00     0.113 C 
HETATM    5  C   UNL     1      -9.415   3.586 -33.092  1.00  0.00     0.054 C 
HETATM    6  C   UNL     1      -8.214   3.051 -33.848  1.00  0.00     0.237 C 
ENDROOT
BRANCH   1   7
HETATM    7  C   UNL     1      -7.704   0.734 -34.690  1.00  0.00     0.273 C 
BRANCH   7   8
HETATM    8  C   UNL     1      -6.623  -0.246 -34.319  1.00  0.00    -0.029 A 
HETATM    9  C   UNL     1      -5.693   0.078 -33.317  1.00  0.00     0.019 A 
HETATM   10  C   UNL     1      -4.694  -0.832 -32.936  1.00  0.00    -0.018 A 
HETATM   11  C   UNL     1      -4.659  -2.077 -33.566  1.00  0.00     0.105 A 
HETATM   12  C   UNL     1      -5.565  -2.421 -34.579  1.00  0.00     0.102 A 
HETATM   13  C   UNL     1      -6.544  -1.500 -34.953  1.00  0.00     0.048 A 
BRANCH  10  14
HETATM   14  C   UNL     1      -3.710  -0.458 -31.850  1.00  0.00     0.068 C 
BRANCH  14  15
HETATM   15  C   UNL     1      -4.052   0.857 -31.208  1.00  0.00    -0.032 C 
HETATM   16  C   UNL     1      -3.359   1.990 -31.378  1.00  0.00     0.007 C 
ENDBRANCH  14  15
ENDBRANCH  10  14
BRANCH  11  17
HETATM   17  O   UNL     1      -3.709  -2.990 -33.189  1.00  0.00    -0.357 OA
HETATM   18  H   UNL     1      -4.198  -3.793 -32.921  1.00  0.00     0.218 HD
ENDBRANCH  11  17
BRANCH  12  19
HETATM   19  O   UNL     1      -5.396  -3.676 -35.102  1.00  0.00    -0.353 OA
HETATM   20  C   UNL     1      -6.550  -4.499 -35.214  1.00  0.00     0.210 C 
ENDBRANCH  12  19
ENDBRANCH   7   8
ENDBRANCH   1   7
BRANCH   4  21
HETATM   21  N   UNL     1     -11.571   2.566 -32.324  1.00  0.00    -0.337 N 
HETATM   22  C   UNL     1     -12.781   3.053 -32.780  1.00  0.00     0.321 C 
HETATM   23  N   UNL     1     -13.723   3.045 -31.781  1.00  0.00    -0.309 N 
HETATM   24  O   UNL     1     -12.916   3.442 -33.933  1.00  0.00    -0.247 OA
HETATM   25  H   UNL     1     -13.369   2.983 -30.837  1.00  0.00     0.170 HD
HETATM   26  H   UNL     1     -11.649   1.912 -31.554  1.00  0.00     0.164 HD
BRANCH  23  27
HETATM   27  C   UNL     1     -15.101   3.316 -31.903  1.00  0.00     0.036 A 
HETATM   28  C   UNL     1     -16.067   2.330 -32.120  1.00  0.00     0.032 A 
HETATM   29  C   UNL     1     -17.420   2.675 -32.198  1.00  0.00     0.044 A 
HETATM   30  C   UNL     1     -17.803   4.002 -32.060  1.00  0.00     0.116 A 
HETATM   31  F   UNL     1     -19.099   4.328 -32.133  1.00  0.00    -0.206 F 
HETATM   32  C   UNL     1     -16.858   4.995 -31.842  1.00  0.00     0.044 A 
HETATM   33  C   UNL     1     -15.507   4.651 -31.758  1.00  0.00     0.032 A 
ENDBRANCH  23  27
ENDBRANCH   4  21
TORSDOF 8
ENDMDL
MODEL 6
REMARK VINA RESULT:      -8.0      3.517      5.303
REMARK  8 active torsions:
REMARK  status: ('A' for Active; 'I' for Inactive)
REMARK    1  A    between atoms: O_2  and  C_3 
REMARK    2  A    between atoms: C_4  and  O_5 
REMARK    3  A    between atoms: C_6  and  C_7 
REMARK    4  A    between atoms: C_7  and  C_8 
REMARK    5  A    between atoms: C_11  and  C_12 
REMARK    6  A    between atoms: C_12  and  N_13 
REMARK    7  A    between atoms: C_16  and  N_17 
REMARK       I    between atoms: N_17  and  C_18 
REMARK       I    between atoms: C_18  and  N_19 
REMARK    8  A    between atoms: N_19  and  C_20 
ROOT
HETATM    1  N   UNL     1      -3.334   3.368 -32.715  1.00  0.00    -0.065 N 
HETATM    2  H   UNL     1      -2.894   2.538 -33.138  1.00  0.00     0.280 HD
HETATM    3  C   UNL     1      -2.456   3.736 -31.526  1.00  0.00     0.260 C 
HETATM    4  C   UNL     1      -2.054   5.199 -31.773  1.00  0.00     0.113 C 
HETATM    5  C   UNL     1      -2.012   5.293 -33.292  1.00  0.00     0.054 C 
HETATM    6  C   UNL     1      -3.233   4.500 -33.713  1.00  0.00     0.237 C 
ENDROOT
BRANCH   1   7
HETATM    7  C   UNL     1      -4.752   2.996 -32.383  1.00  0.00     0.273 C 
BRANCH   7   8
HETATM    8  C   UNL     1      -5.165   1.658 -32.934  1.00  0.00    -0.029 A 
HETATM    9  C   UNL     1      -6.366   1.532 -33.651  1.00  0.00     0.019 A 
HETATM   10  C   UNL     1      -6.757   0.299 -34.198  1.00  0.00    -0.018 A 
HETATM   11  C   UNL     1      -5.910  -0.798 -34.026  1.00  0.00     0.105 A 
HETATM   12  C   UNL     1      -4.714  -0.704 -33.302  1.00  0.00     0.102 A 
HETATM   13  C   UNL     1      -4.347   0.526 -32.756  1.00  0.00     0.048 A 
BRANCH  10  14
HETATM   14  C   UNL     1      -8.052   0.195 -34.971  1.00  0.00     0.068 C 
BRANCH  14  15
HETATM   15  C   UNL     1      -9.207   0.794 -34.218  1.00  0.00    -0.032 C 
HETATM   16  C   UNL     1      -9.786   0.240 -33.146  1.00  0.00     0.007 C 
ENDBRANCH  14  15
ENDBRANCH  10  14
BRANCH  11  17
HETATM   17  O   UNL     1      -6.260  -2.004 -34.576  1.00  0.00    -0.357 OA
HETATM   18  H   UNL     1      -6.058  -2.678 -33.897  1.00  0.00     0.218 HD
ENDBRANCH  11  17
BRANCH  12  19
HETATM   19  O   UNL     1      -3.998  -1.870 -33.217  1.00  0.00    -0.353 OA
HETATM   20  C   UNL     1      -3.280  -2.110 -32.014  1.00  0.00     0.210 C 
ENDBRANCH  12  19
ENDBRANCH   7   8
ENDBRANCH   1   7
BRANCH   4  21
HETATM   21  N   UNL     1      -0.852   5.652 -31.100  1.00  0.00    -0.337 N 
HETATM   22  C   UNL     1      -0.893   6.428 -29.958  1.00  0.00     0.321 C 
HETATM   23  N   UNL     1       0.373   6.698 -29.500  1.00  0.00    -0.309 N 
HETATM   24  O   UNL     1      -1.957   6.806 -29.485  1.00  0.00    -0.247 OA
HETATM   25  H   UNL     1       1.123   6.570 -30.164  1.00  0.00     0.170 HD
HETATM   26  H   UNL     1      -0.030   5.063 -31.174  1.00  0.00     0.164 HD
BRANCH  23  27
HETATM   27  C   UNL     1       0.728   7.320 -28.286  1.00  0.00     0.036 A 
HETATM   28  C   UNL     1       1.427   8.528 -28.211  1.00  0.00     0.032 A 
HETATM   29  C   UNL     1       1.716   9.098 -26.966  1.00  0.00     0.044 A 
HETATM   30  C   UNL     1       1.307   8.460 -25.803  1.00  0.00     0.116 A 
HETATM   31  F   UNL     1       1.583   9.010 -24.614  1.00  0.00    -0.206 F 
HETATM   32  C   UNL     1       0.612   7.261 -25.858  1.00  0.00     0.044 A 
HETATM   33  C   UNL     1       0.318   6.693 -27.100  1.00  0.00     0.032 A 
ENDBRANCH  23  27
ENDBRANCH   4  21
TORSDOF 8
ENDMDL
MODEL 7
REMARK VINA RESULT:      -7.9      3.605      5.234
REMARK  8 active torsions:
REMARK  status: ('A' for Active; 'I' for Inactive)
REMARK    1  A    between atoms: O_2  and  C_3 
REMARK    2  A    between atoms: C_4  and  O_5 
REMARK    3  A    between atoms: C_6  and  C_7 
REMARK    4  A    between atoms: C_7  and  C_8 
REMARK    5  A    between atoms: C_11  and  C_12 
REMARK    6  A    between atoms: C_12  and  N_13 
REMARK    7  A    between atoms: C_16  and  N_17 
REMARK       I    between atoms: N_17  and  C_18 
REMARK       I    between atoms: C_18  and  N_19 
REMARK    8  A    between atoms: N_19  and  C_20 
ROOT
HETATM    1  N   UNL     1      -4.193   3.766 -33.055  1.00  0.00    -0.065 N 
HETATM    2  H   UNL     1      -4.077   2.748 -33.162  1.00  0.00     0.280 HD
HETATM    3  C   UNL     1      -3.859   4.065 -31.598  1.00  0.00     0.260 C 
HETATM    4  C   UNL     1      -2.738   5.114 -31.660  1.00  0.00     0.113 C 
HETATM    5  C   UNL     1      -2.005   4.761 -32.946  1.00  0.00     0.054 C 
HETATM    6  C   UNL     1      -3.137   4.440 -33.903  1.00  0.00     0.237 C 
ENDROOT
BRANCH   1   7
HETATM    7  C   UNL     1      -5.596   4.100 -33.479  1.00  0.00     0.273 C 
BRANCH   7   8
HETATM    8  C   UNL     1      -6.632   3.171 -32.905  1.00  0.00    -0.029 A 
HETATM    9  C   UNL     1      -6.755   1.862 -33.398  1.00  0.00     0.019 A 
HETATM   10  C   UNL     1      -7.696   0.971 -32.858  1.00  0.00    -0.018 A 
HETATM   11  C   UNL     1      -8.498   1.414 -31.805  1.00  0.00     0.105 A 
HETATM   12  C   UNL     1      -8.407   2.720 -31.304  1.00  0.00     0.102 A 
HETATM   13  C   UNL     1      -7.474   3.596 -31.859  1.00  0.00     0.048 A 
BRANCH  10  14
HETATM   14  C   UNL     1      -7.801  -0.435 -33.404  1.00  0.00     0.068 C 
BRANCH  14  15
HETATM   15  C   UNL     1      -6.862  -0.664 -34.556  1.00  0.00    -0.032 C 
HETATM   16  C   UNL     1      -6.025  -1.704 -34.660  1.00  0.00     0.007 C 
ENDBRANCH  14  15
ENDBRANCH  10  14
BRANCH  11  17
HETATM   17  O   UNL     1      -9.403   0.552 -31.245  1.00  0.00    -0.357 OA
HETATM   18  H   UNL     1      -9.641   0.935 -30.378  1.00  0.00     0.218 HD
ENDBRANCH  11  17
BRANCH  12  19
HETATM   19  O   UNL     1      -9.265   3.004 -30.274  1.00  0.00    -0.353 OA
HETATM   20  C   UNL     1     -10.253   4.001 -30.502  1.00  0.00     0.210 C 
ENDBRANCH  12  19
ENDBRANCH   7   8
ENDBRANCH   1   7
BRANCH   4  21
HETATM   21  N   UNL     1      -1.894   5.214 -30.484  1.00  0.00    -0.337 N 
HETATM   22  C   UNL     1      -1.435   6.426 -30.006  1.00  0.00     0.321 C 
HETATM   23  N   UNL     1      -0.683   6.255 -28.870  1.00  0.00    -0.309 N 
HETATM   24  O   UNL     1      -1.688   7.474 -30.586  1.00  0.00    -0.247 OA
HETATM   25  H   UNL     1      -0.328   5.323 -28.708  1.00  0.00     0.170 HD
HETATM   26  H   UNL     1      -2.005   4.501 -29.773  1.00  0.00     0.164 HD
BRANCH  23  27
HETATM   27  C   UNL     1      -0.183   7.259 -28.017  1.00  0.00     0.036 A 
HETATM   28  C   UNL     1      -0.827   7.672 -26.848  1.00  0.00     0.032 A 
HETATM   29  C   UNL     1      -0.251   8.654 -26.035  1.00  0.00     0.044 A 
HETATM   30  C   UNL     1       0.966   9.219 -26.393  1.00  0.00     0.116 A 
HETATM   31  F   UNL     1       1.516  10.157 -25.613  1.00  0.00    -0.206 F 
HETATM   32  C   UNL     1       1.621   8.820 -27.549  1.00  0.00     0.044 A 
HETATM   33  C   UNL     1       1.049   7.835 -28.359  1.00  0.00     0.032 A 
ENDBRANCH  23  27
ENDBRANCH   4  21
TORSDOF 8
ENDMDL
MODEL 8
REMARK VINA RESULT:      -7.8      3.676      8.749
REMARK  8 active torsions:
REMARK  status: ('A' for Active; 'I' for Inactive)
REMARK    1  A    between atoms: O_2  and  C_3 
REMARK    2  A    between atoms: C_4  and  O_5 
REMARK    3  A    between atoms: C_6  and  C_7 
REMARK    4  A    between atoms: C_7  and  C_8 
REMARK    5  A    between atoms: C_11  and  C_12 
REMARK    6  A    between atoms: C_12  and  N_13 
REMARK    7  A    between atoms: C_16  and  N_17 
REMARK       I    between atoms: N_17  and  C_18 
REMARK       I    between atoms: C_18  and  N_19 
REMARK    8  A    between atoms: N_19  and  C_20 
ROOT
HETATM    1  N   UNL     1      -5.439   5.972 -29.769  1.00  0.00    -0.065 N 
HETATM    2  H   UNL     1      -5.259   5.943 -28.755  1.00  0.00     0.280 HD
HETATM    3  C   UNL     1      -5.187   4.555 -30.269  1.00  0.00     0.260 C 
HETATM    4  C   UNL     1      -6.494   4.148 -30.968  1.00  0.00     0.113 C 
HETATM    5  C   UNL     1      -7.555   4.906 -30.184  1.00  0.00     0.054 C 
HETATM    6  C   UNL     1      -6.911   6.261 -29.966  1.00  0.00     0.237 C 
ENDROOT
BRANCH   1   7
HETATM    7  C   UNL     1      -4.544   7.032 -30.348  1.00  0.00     0.273 C 
BRANCH   7   8
HETATM    8  C   UNL     1      -3.154   6.541 -30.653  1.00  0.00    -0.029 A 
HETATM    9  C   UNL     1      -2.136   6.667 -29.694  1.00  0.00     0.019 A 
HETATM   10  C   UNL     1      -0.840   6.192 -29.948  1.00  0.00    -0.018 A 
HETATM   11  C   UNL     1      -0.592   5.572 -31.175  1.00  0.00     0.105 A 
HETATM   12  C   UNL     1      -1.585   5.447 -32.155  1.00  0.00     0.102 A 
HETATM   13  C   UNL     1      -2.864   5.935 -31.891  1.00  0.00     0.048 A 
BRANCH  10  14
HETATM   14  C   UNL     1       0.235   6.335 -28.894  1.00  0.00     0.068 C 
BRANCH  14  15
HETATM   15  C   UNL     1       0.672   7.764 -28.726  1.00  0.00    -0.032 C 
HETATM   16  C   UNL     1       1.380   8.225 -27.688  1.00  0.00     0.007 C 
ENDBRANCH  14  15
ENDBRANCH  10  14
BRANCH  11  17
HETATM   17  O   UNL     1       0.659   5.076 -31.431  1.00  0.00    -0.357 OA
HETATM   18  H   UNL     1       1.280   5.635 -30.923  1.00  0.00     0.218 HD
ENDBRANCH  11  17
BRANCH  12  19
HETATM   19  O   UNL     1      -1.183   4.821 -33.306  1.00  0.00    -0.353 OA
HETATM   20  C   UNL     1      -1.634   5.367 -34.540  1.00  0.00     0.210 C 
ENDBRANCH  12  19
ENDBRANCH   7   8
ENDBRANCH   1   7
BRANCH   4  21
HETATM   21  N   UNL     1      -6.731   2.722 -31.095  1.00  0.00    -0.337 N 
HETATM   22  C   UNL     1      -6.321   2.001 -32.200  1.00  0.00     0.321 C 
HETATM   23  N   UNL     1      -6.637   0.672 -32.065  1.00  0.00    -0.309 N 
HETATM   24  O   UNL     1      -5.773   2.548 -33.148  1.00  0.00    -0.247 OA
HETATM   25  H   UNL     1      -7.342   0.449 -31.378  1.00  0.00     0.170 HD
HETATM   26  H   UNL     1      -6.775   2.182 -30.238  1.00  0.00     0.164 HD
BRANCH  23  27
HETATM   27  C   UNL     1      -6.244  -0.390 -32.905  1.00  0.00     0.036 A 
HETATM   28  C   UNL     1      -4.945  -0.905 -32.946  1.00  0.00     0.032 A 
HETATM   29  C   UNL     1      -4.640  -1.982 -33.784  1.00  0.00     0.044 A 
HETATM   30  C   UNL     1      -5.632  -2.539 -34.580  1.00  0.00     0.116 A 
HETATM   31  F   UNL     1      -5.338  -3.571 -35.380  1.00  0.00    -0.206 F 
HETATM   32  C   UNL     1      -6.927  -2.042 -34.552  1.00  0.00     0.044 A 
HETATM   33  C   UNL     1      -7.234  -0.970 -33.711  1.00  0.00     0.032 A 
ENDBRANCH  23  27
ENDBRANCH   4  21
TORSDOF 8
ENDMDL
MODEL 9
REMARK VINA RESULT:      -7.6      5.393      8.354
REMARK  8 active torsions:
REMARK  status: ('A' for Active; 'I' for Inactive)
REMARK    1  A    between atoms: O_2  and  C_3 
REMARK    2  A    between atoms: C_4  and  O_5 
REMARK    3  A    between atoms: C_6  and  C_7 
REMARK    4  A    between atoms: C_7  and  C_8 
REMARK    5  A    between atoms: C_11  and  C_12 
REMARK    6  A    between atoms: C_12  and  N_13 
REMARK    7  A    between atoms: C_16  and  N_17 
REMARK       I    between atoms: N_17  and  C_18 
REMARK       I    between atoms: C_18  and  N_19 
REMARK    8  A    between atoms: N_19  and  C_20 
ROOT
HETATM    1  N   UNL     1      -7.531   0.987 -33.206  1.00  0.00    -0.065 N 
HETATM    2  H   UNL     1      -6.757   1.627 -32.974  1.00  0.00     0.280 HD
HETATM    3  C   UNL     1      -8.596   1.232 -32.145  1.00  0.00     0.260 C 
HETATM    4  C   UNL     1      -9.862   1.593 -32.937  1.00  0.00     0.113 C 
HETATM    5  C   UNL     1      -9.310   2.283 -34.176  1.00  0.00     0.054 C 
HETATM    6  C   UNL     1      -8.110   1.427 -34.532  1.00  0.00     0.237 C 
ENDROOT
BRANCH   1   7
HETATM    7  C   UNL     1      -6.960  -0.403 -33.240  1.00  0.00     0.273 C 
BRANCH   7   8
HETATM    8  C   UNL     1      -5.577  -0.498 -32.655  1.00  0.00    -0.029 A 
HETATM    9  C   UNL     1      -4.948  -1.748 -32.531  1.00  0.00     0.019 A 
HETATM   10  C   UNL     1      -3.648  -1.856 -32.013  1.00  0.00    -0.018 A 
HETATM   11  C   UNL     1      -2.986  -0.684 -31.640  1.00  0.00     0.105 A 
HETATM   12  C   UNL     1      -3.595   0.574 -31.739  1.00  0.00     0.102 A 
HETATM   13  C   UNL     1      -4.891   0.662 -32.245  1.00  0.00     0.048 A 
BRANCH  10  14
HETATM   14  C   UNL     1      -2.994  -3.214 -31.897  1.00  0.00     0.068 C 
BRANCH  14  15
HETATM   15  C   UNL     1      -3.528  -4.185 -32.913  1.00  0.00    -0.032 C 
HETATM   16  C   UNL     1      -3.786  -3.883 -34.191  1.00  0.00     0.007 C 
ENDBRANCH  14  15
ENDBRANCH  10  14
BRANCH  11  17
HETATM   17  O   UNL     1      -1.705  -0.765 -31.159  1.00  0.00    -0.357 OA
HETATM   18  H   UNL     1      -1.119  -0.668 -31.935  1.00  0.00     0.218 HD
ENDBRANCH  11  17
BRANCH  12  19
HETATM   19  O   UNL     1      -2.817   1.625 -31.327  1.00  0.00    -0.353 OA
HETATM   20  C   UNL     1      -3.331   2.936 -31.525  1.00  0.00     0.210 C 
ENDBRANCH  12  19
ENDBRANCH   7   8
ENDBRANCH   1   7
BRANCH   4  21
HETATM   21  N   UNL     1     -10.871   2.348 -32.218  1.00  0.00    -0.337 N 
HETATM   22  C   UNL     1     -12.154   2.514 -32.702  1.00  0.00     0.321 C 
HETATM   23  N   UNL     1     -12.922   3.239 -31.825  1.00  0.00    -0.309 N 
HETATM   24  O   UNL     1     -12.485   2.063 -33.791  1.00  0.00    -0.247 OA
HETATM   25  H   UNL     1     -12.419   3.780 -31.136  1.00  0.00     0.170 HD
HETATM   26  H   UNL     1     -10.802   2.366 -31.207  1.00  0.00     0.164 HD
BRANCH  23  27
HETATM   27  C   UNL     1     -14.310   3.475 -31.896  1.00  0.00     0.036 A 
HETATM   28  C   UNL     1     -14.876   4.752 -31.947  1.00  0.00     0.032 A 
HETATM   29  C   UNL     1     -16.263   4.904 -32.048  1.00  0.00     0.044 A 
HETATM   30  C   UNL     1     -17.078   3.781 -32.098  1.00  0.00     0.116 A 
HETATM   31  F   UNL     1     -18.405   3.930 -32.198  1.00  0.00    -0.206 F 
HETATM   32  C   UNL     1     -16.534   2.506 -32.050  1.00  0.00     0.044 A 
HETATM   33  C   UNL     1     -15.148   2.353 -31.954  1.00  0.00     0.032 A 
ENDBRANCH  23  27
ENDBRANCH   4  21
TORSDOF 8
ENDMDL
MODEL 10
REMARK VINA RESULT:      -7.4      4.579     10.388
REMARK  8 active torsions:
REMARK  status: ('A' for Active; 'I' for Inactive)
REMARK    1  A    between atoms: O_2  and  C_3 
REMARK    2  A    between atoms: C_4  and  O_5 
REMARK    3  A    between atoms: C_6  and  C_7 
REMARK    4  A    between atoms: C_7  and  C_8 
REMARK    5  A    between atoms: C_11  and  C_12 
REMARK    6  A    between atoms: C_12  and  N_13 
REMARK    7  A    between atoms: C_16  and  N_17 
REMARK       I    between atoms: N_17  and  C_18 
REMARK       I    between atoms: C_18  and  N_19 
REMARK    8  A    between atoms: N_19  and  C_20 
ROOT
HETATM    1  N   UNL     1      -1.697   5.867 -31.543  1.00  0.00    -0.065 N 
HETATM    2  H   UNL     1      -1.803   6.883 -31.680  1.00  0.00     0.280 HD
HETATM    3  C   UNL     1      -3.110   5.299 -31.582  1.00  0.00     0.260 C 
HETATM    4  C   UNL     1      -3.075   4.236 -32.691  1.00  0.00     0.113 C 
HETATM    5  C   UNL     1      -2.043   4.786 -33.664  1.00  0.00     0.054 C 
HETATM    6  C   UNL     1      -0.961   5.316 -32.744  1.00  0.00     0.237 C 
ENDROOT
BRANCH   1   7
HETATM    7  C   UNL     1      -0.955   5.669 -30.251  1.00  0.00     0.273 C 
BRANCH   7   8
HETATM    8  C   UNL     1      -0.839   6.924 -29.428  1.00  0.00    -0.029 A 
HETATM    9  C   UNL     1       0.375   7.243 -28.798  1.00  0.00     0.019 A 
HETATM   10  C   UNL     1       0.513   8.423 -28.049  1.00  0.00    -0.018 A 
HETATM   11  C   UNL     1      -0.584   9.282 -27.961  1.00  0.00     0.105 A 
HETATM   12  C   UNL     1      -1.811   8.981 -28.568  1.00  0.00     0.102 A 
HETATM   13  C   UNL     1      -1.934   7.799 -29.299  1.00  0.00     0.048 A 
BRANCH  10  14
HETATM   14  C   UNL     1       1.833   8.744 -27.386  1.00  0.00     0.068 C 
BRANCH  14  15
HETATM   15  C   UNL     1       1.921   8.173 -25.998  1.00  0.00    -0.032 C 
HETATM   16  C   UNL     1       2.603   8.728 -24.989  1.00  0.00     0.007 C 
ENDBRANCH  14  15
ENDBRANCH  10  14
BRANCH  11  17
HETATM   17  O   UNL     1      -0.462  10.452 -27.258  1.00  0.00    -0.357 OA
HETATM   18  H   UNL     1       0.105  11.034 -27.801  1.00  0.00     0.218 HD
ENDBRANCH  11  17
BRANCH  12  19
HETATM   19  O   UNL     1      -2.791   9.921 -28.384  1.00  0.00    -0.353 OA
HETATM   20  C   UNL     1      -3.211  10.661 -29.524  1.00  0.00     0.210 C 
ENDBRANCH  12  19
ENDBRANCH   7   8
ENDBRANCH   1   7
BRANCH   4  21
HETATM   21  N   UNL     1      -4.354   3.894 -33.286  1.00  0.00    -0.337 N 
HETATM   22  C   UNL     1      -5.065   2.770 -32.911  1.00  0.00     0.321 C 
HETATM   23  N   UNL     1      -6.251   2.687 -33.598  1.00  0.00    -0.309 N 
HETATM   24  O   UNL     1      -4.622   1.985 -32.084  1.00  0.00    -0.247 OA
HETATM   25  H   UNL     1      -6.316   3.237 -34.442  1.00  0.00     0.170 HD
HETATM   26  H   UNL     1      -4.928   4.658 -33.620  1.00  0.00     0.164 HD
BRANCH  23  27
HETATM   27  C   UNL     1      -7.305   1.777 -33.377  1.00  0.00     0.036 A 
HETATM   28  C   UNL     1      -7.349   0.495 -33.931  1.00  0.00     0.032 A 
HETATM   29  C   UNL     1      -8.415  -0.362 -33.639  1.00  0.00     0.044 A 
HETATM   30  C   UNL     1      -9.433   0.065 -32.797  1.00  0.00     0.116 A 
HETATM   31  F   UNL     1     -10.451  -0.758 -32.517  1.00  0.00    -0.206 F 
HETATM   32  C   UNL     1      -9.405   1.334 -32.236  1.00  0.00     0.044 A 
HETATM   33  C   UNL     1      -8.338   2.189 -32.523  1.00  0.00     0.032 A 
ENDBRANCH  23  27
ENDBRANCH   4  21
TORSDOF 8
ENDMDL
