MODEL 1
REMARK VINA RESULT:      -9.8      0.000      0.000
REMARK  9 active torsions:
REMARK  status: ('A' for Active; 'I' for Inactive)
REMARK    1  A    between atoms: C_4  and  C_5 
REMARK    2  A    between atoms: C_16  and  C_17 
REMARK    3  A    between atoms: C_20  and  C_21 
REMARK    4  A    between atoms: C_21  and  N_22 
REMARK    5  A    between atoms: N_22  and  C_23 
REMARK    6  A    between atoms: C_23  and  N_24 
REMARK    7  A    between atoms: N_24  and  C_25 
REMARK    8  A    between atoms: C_27  and  C_28 
REMARK    9  A    between atoms: C_28  and  O_29 
ROOT
HETATM    1  C   UNL     1     -12.088   3.779 -33.905  1.00  0.00     0.067 C 
HETATM    2  C   UNL     1     -11.931   4.477 -35.267  1.00  0.00     0.001 C 
HETATM    3  C   UNL     1     -10.700   5.405 -35.295  1.00  0.00     0.040 C 
HETATM    4  C   UNL     1     -10.820   6.551 -34.277  1.00  0.00     0.206 C 
HETATM    5  N   UNL     1     -12.014   6.224 -33.384  1.00  0.00    -0.065 N 
HETATM    6  H   UNL     1     -12.060   6.906 -32.614  1.00  0.00     0.280 HD
HETATM    7  C   UNL     1     -11.912   4.823 -32.778  1.00  0.00     0.246 C 
HETATM    8  C   UNL     1     -13.164   5.408 -35.422  1.00  0.00     0.033 C 
HETATM    9  C   UNL     1     -13.294   6.336 -34.203  1.00  0.00     0.236 C 
ENDROOT
BRANCH   4  10
HETATM   10  C   UNL     1      -9.524   6.798 -33.470  1.00  0.00     0.155 C 
BRANCH  10  11
HETATM   11  N   UNL     1      -8.420   5.956 -33.928  1.00  0.00    -0.365 N 
HETATM   12  H   UNL     1      -7.968   6.222 -34.798  1.00  0.00     0.161 HD
BRANCH  11  13
HETATM   13  C   UNL     1      -7.605   5.190 -33.139  1.00  0.00     0.172 C 
HETATM   14  S   UNL     1      -7.680   5.108 -31.474  1.00  0.00    -0.041 SA
BRANCH  13  15
HETATM   15  N   UNL     1      -6.638   4.460 -33.770  1.00  0.00    -0.333 N 
HETATM   16  H   UNL     1      -6.978   4.014 -34.620  1.00  0.00     0.168 HD
BRANCH  15  17
HETATM   17  C   UNL     1      -5.249   4.336 -33.543  1.00  0.00     0.035 A 
HETATM   18  C   UNL     1      -4.282   5.118 -34.174  1.00  0.00     0.047 A 
HETATM   19  C   UNL     1      -2.914   4.932 -33.917  1.00  0.00     0.041 A 
HETATM   20  C   UNL     1      -2.508   3.925 -33.037  1.00  0.00     0.018 A 
HETATM   21  C   UNL     1      -3.466   3.115 -32.429  1.00  0.00     0.003 A 
HETATM   22  C   UNL     1      -4.826   3.317 -32.682  1.00  0.00     0.029 A 
BRANCH  19  23
HETATM   23  C   UNL     1      -1.956   5.839 -34.606  1.00  0.00     0.293 C 
HETATM   24  O   UNL     1      -1.062   5.427 -35.334  1.00  0.00    -0.259 OA
BRANCH  23  25
HETATM   25  O   UNL     1      -2.215   7.132 -34.309  1.00  0.00    -0.323 OA
HETATM   26  C   UNL     1      -1.684   7.570 -33.057  1.00  0.00     0.213 C 
ENDBRANCH  23  25
ENDBRANCH  19  23
ENDBRANCH  15  17
ENDBRANCH  13  15
ENDBRANCH  11  13
ENDBRANCH  10  11
ENDBRANCH   4  10
BRANCH   1  27
HETATM   27  C   UNL     1     -11.360   2.502 -33.585  1.00  0.00     0.038 C 
HETATM   28  N   UNL     1     -11.770   1.189 -33.550  1.00  0.00    -0.277 N 
HETATM   29  C   UNL     1     -13.081   0.592 -33.639  1.00  0.00     0.179 C 
HETATM   30  N   UNL     1     -10.747   0.324 -33.438  1.00  0.00    -0.172 NA
HETATM   31  C   UNL     1      -9.660   1.067 -33.219  1.00  0.00     0.089 C 
HETATM   32  C   UNL     1     -10.007   2.435 -33.276  1.00  0.00     0.061 C 
BRANCH  31  33
HETATM   33  C   UNL     1      -8.329   0.489 -33.038  1.00  0.00    -0.005 A 
HETATM   34  C   UNL     1      -7.812  -0.422 -33.971  1.00  0.00     0.026 A 
HETATM   35  C   UNL     1      -6.576  -1.057 -33.761  1.00  0.00    -0.025 A 
HETATM   36  C   UNL     1      -5.836  -0.764 -32.594  1.00  0.00    -0.026 A 
HETATM   37  C   UNL     1      -6.066  -1.987 -34.682  1.00  0.00     0.012 A 
HETATM   38  C   UNL     1      -6.340   0.173 -31.680  1.00  0.00     0.013 A 
HETATM   39  C   UNL     1      -4.616  -1.419 -32.372  1.00  0.00     0.012 A 
HETATM   40  C   UNL     1      -7.573   0.794 -31.901  1.00  0.00     0.014 A 
HETATM   41  C   UNL     1      -4.129  -2.350 -33.292  1.00  0.00     0.001 A 
HETATM   42  C   UNL     1      -4.851  -2.631 -34.447  1.00  0.00     0.001 A 
ENDBRANCH  31  33
ENDBRANCH   1  27
TORSDOF 9
ENDMDL
MODEL 2
REMARK VINA RESULT:      -9.8      2.598      4.077
REMARK  9 active torsions:
REMARK  status: ('A' for Active; 'I' for Inactive)
REMARK    1  A    between atoms: C_4  and  C_5 
REMARK    2  A    between atoms: C_16  and  C_17 
REMARK    3  A    between atoms: C_20  and  C_21 
REMARK    4  A    between atoms: C_21  and  N_22 
REMARK    5  A    between atoms: N_22  and  C_23 
REMARK    6  A    between atoms: C_23  and  N_24 
REMARK    7  A    between atoms: N_24  and  C_25 
REMARK    8  A    between atoms: C_27  and  C_28 
REMARK    9  A    between atoms: C_28  and  O_29 
ROOT
HETATM    1  C   UNL     1      -8.485   4.354 -32.549  1.00  0.00     0.067 C 
HETATM    2  C   UNL     1      -7.769   5.536 -33.227  1.00  0.00     0.001 C 
HETATM    3  C   UNL     1      -6.303   5.656 -32.765  1.00  0.00     0.040 C 
HETATM    4  C   UNL     1      -6.196   5.945 -31.258  1.00  0.00     0.206 C 
HETATM    5  N   UNL     1      -7.591   5.746 -30.671  1.00  0.00    -0.065 N 
HETATM    6  H   UNL     1      -7.543   5.815 -29.645  1.00  0.00     0.280 HD
HETATM    7  C   UNL     1      -8.177   4.379 -31.033  1.00  0.00     0.246 C 
HETATM    8  C   UNL     1      -8.478   6.821 -32.721  1.00  0.00     0.033 C 
HETATM    9  C   UNL     1      -8.509   6.849 -31.184  1.00  0.00     0.236 C 
ENDROOT
BRANCH   4  10
HETATM   10  C   UNL     1      -5.123   5.094 -30.541  1.00  0.00     0.155 C 
BRANCH  10  11
HETATM   11  N   UNL     1      -4.800   5.617 -29.214  1.00  0.00    -0.365 N 
HETATM   12  H   UNL     1      -4.705   4.939 -28.463  1.00  0.00     0.161 HD
BRANCH  11  13
HETATM   13  C   UNL     1      -4.135   6.781 -28.942  1.00  0.00     0.172 C 
HETATM   14  S   UNL     1      -4.850   8.279 -28.769  1.00  0.00    -0.041 SA
BRANCH  13  15
HETATM   15  N   UNL     1      -2.775   6.709 -28.832  1.00  0.00    -0.333 N 
HETATM   16  H   UNL     1      -2.471   6.509 -27.881  1.00  0.00     0.168 HD
BRANCH  15  17
HETATM   17  C   UNL     1      -1.747   6.713 -29.800  1.00  0.00     0.035 A 
HETATM   18  C   UNL     1      -1.955   6.949 -31.159  1.00  0.00     0.047 A 
HETATM   19  C   UNL     1      -0.891   6.922 -32.075  1.00  0.00     0.041 A 
HETATM   20  C   UNL     1       0.398   6.624 -31.625  1.00  0.00     0.018 A 
HETATM   21  C   UNL     1       0.611   6.352 -30.274  1.00  0.00     0.003 A 
HETATM   22  C   UNL     1      -0.455   6.394 -29.369  1.00  0.00     0.029 A 
BRANCH  19  23
HETATM   23  C   UNL     1      -1.201   7.224 -33.498  1.00  0.00     0.293 C 
HETATM   24  O   UNL     1      -1.799   8.234 -33.845  1.00  0.00    -0.259 OA
BRANCH  23  25
HETATM   25  O   UNL     1      -0.743   6.245 -34.311  1.00  0.00    -0.323 OA
HETATM   26  C   UNL     1      -1.727   5.279 -34.687  1.00  0.00     0.213 C 
ENDBRANCH  23  25
ENDBRANCH  19  23
ENDBRANCH  15  17
ENDBRANCH  13  15
ENDBRANCH  11  13
ENDBRANCH  10  11
ENDBRANCH   4  10
BRANCH   1  27
HETATM   27  C   UNL     1      -8.398   2.958 -33.101  1.00  0.00     0.038 C 
HETATM   28  N   UNL     1      -9.209   2.253 -33.960  1.00  0.00    -0.277 N 
HETATM   29  C   UNL     1     -10.516   2.543 -34.498  1.00  0.00     0.179 C 
HETATM   30  N   UNL     1      -8.652   1.103 -34.380  1.00  0.00    -0.172 NA
HETATM   31  C   UNL     1      -7.537   0.951 -33.662  1.00  0.00     0.089 C 
HETATM   32  C   UNL     1      -7.358   2.078 -32.829  1.00  0.00     0.061 C 
BRANCH  31  33
HETATM   33  C   UNL     1      -6.642  -0.194 -33.824  1.00  0.00    -0.005 A 
HETATM   34  C   UNL     1      -7.110  -1.398 -34.370  1.00  0.00     0.026 A 
HETATM   35  C   UNL     1      -6.287  -2.533 -34.444  1.00  0.00    -0.025 A 
HETATM   36  C   UNL     1      -4.958  -2.458 -33.969  1.00  0.00    -0.026 A 
HETATM   37  C   UNL     1      -6.760  -3.747 -34.969  1.00  0.00     0.012 A 
HETATM   38  C   UNL     1      -4.482  -1.242 -33.455  1.00  0.00     0.013 A 
HETATM   39  C   UNL     1      -4.145  -3.600 -34.017  1.00  0.00     0.012 A 
HETATM   40  C   UNL     1      -5.315  -0.122 -33.385  1.00  0.00     0.014 A 
HETATM   41  C   UNL     1      -4.636  -4.802 -34.532  1.00  0.00     0.001 A 
HETATM   42  C   UNL     1      -5.939  -4.874 -35.011  1.00  0.00     0.001 A 
ENDBRANCH  31  33
ENDBRANCH   1  27
TORSDOF 9
ENDMDL
MODEL 3
REMARK VINA RESULT:      -9.7      4.129      5.715
REMARK  9 active torsions:
REMARK  status: ('A' for Active; 'I' for Inactive)
REMARK    1  A    between atoms: C_4  and  C_5 
REMARK    2  A    between atoms: C_16  and  C_17 
REMARK    3  A    between atoms: C_20  and  C_21 
REMARK    4  A    between atoms: C_21  and  N_22 
REMARK    5  A    between atoms: N_22  and  C_23 
REMARK    6  A    between atoms: C_23  and  N_24 
REMARK    7  A    between atoms: N_24  and  C_25 
REMARK    8  A    between atoms: C_27  and  C_28 
REMARK    9  A    between atoms: C_28  and  O_29 
ROOT
HETATM    1  C   UNL     1      -6.270   4.806 -31.801  1.00  0.00     0.067 C 
HETATM    2  C   UNL     1      -5.740   6.199 -32.182  1.00  0.00     0.001 C 
HETATM    3  C   UNL     1      -4.735   6.732 -31.141  1.00  0.00     0.040 C 
HETATM    4  C   UNL     1      -5.384   6.923 -29.760  1.00  0.00     0.206 C 
HETATM    5  N   UNL     1      -6.756   6.257 -29.822  1.00  0.00    -0.065 N 
HETATM    6  H   UNL     1      -7.178   6.258 -28.883  1.00  0.00     0.280 HD
HETATM    7  C   UNL     1      -6.670   4.808 -30.307  1.00  0.00     0.246 C 
HETATM    8  C   UNL     1      -6.959   7.159 -32.122  1.00  0.00     0.033 C 
HETATM    9  C   UNL     1      -7.656   7.057 -30.755  1.00  0.00     0.236 C 
ENDROOT
BRANCH   4  10
HETATM   10  C   UNL     1      -4.519   6.395 -28.593  1.00  0.00     0.155 C 
BRANCH  10  11
HETATM   11  N   UNL     1      -3.567   7.396 -28.114  1.00  0.00    -0.365 N 
HETATM   12  H   UNL     1      -3.893   8.357 -28.072  1.00  0.00     0.161 HD
BRANCH  11  13
HETATM   13  C   UNL     1      -2.514   7.175 -27.270  1.00  0.00     0.172 C 
HETATM   14  S   UNL     1      -2.463   7.615 -25.661  1.00  0.00    -0.041 SA
BRANCH  13  15
HETATM   15  N   UNL     1      -1.410   6.569 -27.800  1.00  0.00    -0.333 N 
HETATM   16  H   UNL     1      -0.952   5.945 -27.138  1.00  0.00     0.168 HD
BRANCH  15  17
HETATM   17  C   UNL     1      -0.887   6.538 -29.112  1.00  0.00     0.035 A 
HETATM   18  C   UNL     1      -1.406   7.274 -30.176  1.00  0.00     0.047 A 
HETATM   19  C   UNL     1      -0.850   7.186 -31.463  1.00  0.00     0.041 A 
HETATM   20  C   UNL     1       0.224   6.322 -31.692  1.00  0.00     0.018 A 
HETATM   21  C   UNL     1       0.728   5.555 -30.641  1.00  0.00     0.003 A 
HETATM   22  C   UNL     1       0.174   5.661 -29.361  1.00  0.00     0.029 A 
BRANCH  19  23
HETATM   23  C   UNL     1      -1.444   8.037 -32.528  1.00  0.00     0.293 C 
HETATM   24  O   UNL     1      -2.018   9.091 -32.290  1.00  0.00    -0.259 OA
BRANCH  23  25
HETATM   25  O   UNL     1      -1.261   7.484 -33.748  1.00  0.00    -0.323 OA
HETATM   26  C   UNL     1      -2.326   6.633 -34.177  1.00  0.00     0.213 C 
ENDBRANCH  23  25
ENDBRANCH  19  23
ENDBRANCH  15  17
ENDBRANCH  13  15
ENDBRANCH  11  13
ENDBRANCH  10  11
ENDBRANCH   4  10
BRANCH   1  27
HETATM   27  C   UNL     1      -5.524   3.552 -32.164  1.00  0.00     0.038 C 
HETATM   28  N   UNL     1      -4.223   3.155 -31.951  1.00  0.00    -0.277 N 
HETATM   29  C   UNL     1      -3.072   3.873 -31.457  1.00  0.00     0.179 C 
HETATM   30  N   UNL     1      -4.017   1.858 -32.237  1.00  0.00    -0.172 NA
HETATM   31  C   UNL     1      -5.142   1.425 -32.813  1.00  0.00     0.089 C 
HETATM   32  C   UNL     1      -6.099   2.464 -32.811  1.00  0.00     0.061 C 
BRANCH  31  33
HETATM   33  C   UNL     1      -5.315   0.049 -33.276  1.00  0.00    -0.005 A 
HETATM   34  C   UNL     1      -4.414  -0.954 -32.890  1.00  0.00     0.026 A 
HETATM   35  C   UNL     1      -4.514  -2.258 -33.402  1.00  0.00    -0.025 A 
HETATM   36  C   UNL     1      -5.548  -2.567 -34.315  1.00  0.00    -0.026 A 
HETATM   37  C   UNL     1      -3.600  -3.260 -33.036  1.00  0.00     0.012 A 
HETATM   38  C   UNL     1      -6.467  -1.570 -34.672  1.00  0.00     0.013 A 
HETATM   39  C   UNL     1      -5.630  -3.863 -34.847  1.00  0.00     0.012 A 
HETATM   40  C   UNL     1      -6.353  -0.276 -34.156  1.00  0.00     0.014 A 
HETATM   41  C   UNL     1      -4.705  -4.843 -34.482  1.00  0.00     0.001 A 
HETATM   42  C   UNL     1      -3.695  -4.544 -33.574  1.00  0.00     0.001 A 
ENDBRANCH  31  33
ENDBRANCH   1  27
TORSDOF 9
ENDMDL
MODEL 4
REMARK VINA RESULT:      -9.7      3.759      7.000
REMARK  9 active torsions:
REMARK  status: ('A' for Active; 'I' for Inactive)
REMARK    1  A    between atoms: C_4  and  C_5 
REMARK    2  A    between atoms: C_16  and  C_17 
REMARK    3  A    between atoms: C_20  and  C_21 
REMARK    4  A    between atoms: C_21  and  N_22 
REMARK    5  A    between atoms: N_22  and  C_23 
REMARK    6  A    between atoms: C_23  and  N_24 
REMARK    7  A    between atoms: N_24  and  C_25 
REMARK    8  A    between atoms: C_27  and  C_28 
REMARK    9  A    between atoms: C_28  and  O_29 
ROOT
HETATM    1  C   UNL     1      -5.710   4.243 -30.603  1.00  0.00     0.067 C 
HETATM    2  C   UNL     1      -7.085   4.060 -29.936  1.00  0.00     0.001 C 
HETATM    3  C   UNL     1      -8.238   4.367 -30.912  1.00  0.00     0.040 C 
HETATM    4  C   UNL     1      -8.221   5.832 -31.381  1.00  0.00     0.206 C 
HETATM    5  N   UNL     1      -6.891   6.425 -30.923  1.00  0.00    -0.065 N 
HETATM    6  H   UNL     1      -6.787   7.371 -31.317  1.00  0.00     0.280 HD
HETATM    7  C   UNL     1      -5.699   5.582 -31.378  1.00  0.00     0.246 C 
HETATM    8  C   UNL     1      -7.175   5.139 -28.823  1.00  0.00     0.033 C 
HETATM    9  C   UNL     1      -6.892   6.534 -29.403  1.00  0.00     0.236 C 
ENDROOT
BRANCH   4  10
HETATM   10  C   UNL     1      -8.454   5.997 -32.900  1.00  0.00     0.155 C 
BRANCH  10  11
HETATM   11  N   UNL     1      -9.875   6.093 -33.233  1.00  0.00    -0.365 N 
HETATM   12  H   UNL     1     -10.342   6.967 -33.009  1.00  0.00     0.161 HD
BRANCH  11  13
HETATM   13  C   UNL     1     -10.524   5.402 -34.220  1.00  0.00     0.172 C 
HETATM   14  S   UNL     1     -11.931   5.894 -34.972  1.00  0.00    -0.041 SA
BRANCH  13  15
HETATM   15  N   UNL     1      -9.988   4.202 -34.594  1.00  0.00    -0.333 N 
HETATM   16  H   UNL     1      -9.231   4.307 -35.267  1.00  0.00     0.168 HD
BRANCH  15  17
HETATM   17  C   UNL     1     -10.189   2.888 -34.118  1.00  0.00     0.035 A 
HETATM   18  C   UNL     1     -11.419   2.232 -34.131  1.00  0.00     0.047 A 
HETATM   19  C   UNL     1     -11.556   0.929 -33.626  1.00  0.00     0.041 A 
HETATM   20  C   UNL     1     -10.447   0.285 -33.070  1.00  0.00     0.018 A 
HETATM   21  C   UNL     1      -9.220   0.946 -33.021  1.00  0.00     0.003 A 
HETATM   22  C   UNL     1      -9.093   2.239 -33.539  1.00  0.00     0.029 A 
BRANCH  19  23
HETATM   23  C   UNL     1     -12.898   0.294 -33.716  1.00  0.00     0.293 C 
HETATM   24  O   UNL     1     -13.102  -0.870 -33.397  1.00  0.00    -0.259 OA
BRANCH  23  25
HETATM   25  O   UNL     1     -13.815   1.166 -34.191  1.00  0.00    -0.323 OA
HETATM   26  C   UNL     1     -15.132   0.626 -34.322  1.00  0.00     0.213 C 
ENDBRANCH  23  25
ENDBRANCH  19  23
ENDBRANCH  15  17
ENDBRANCH  13  15
ENDBRANCH  11  13
ENDBRANCH  10  11
ENDBRANCH   4  10
BRANCH   1  27
HETATM   27  C   UNL     1      -5.068   3.144 -31.403  1.00  0.00     0.038 C 
HETATM   28  N   UNL     1      -3.760   2.892 -31.744  1.00  0.00    -0.277 N 
HETATM   29  C   UNL     1      -2.563   3.686 -31.601  1.00  0.00     0.179 C 
HETATM   30  N   UNL     1      -3.584   1.672 -32.282  1.00  0.00    -0.172 NA
HETATM   31  C   UNL     1      -4.808   1.172 -32.466  1.00  0.00     0.089 C 
HETATM   32  C   UNL     1      -5.765   2.075 -31.954  1.00  0.00     0.061 C 
BRANCH  31  33
HETATM   33  C   UNL     1      -5.043  -0.152 -33.040  1.00  0.00    -0.005 A 
HETATM   34  C   UNL     1      -4.234  -1.241 -32.683  1.00  0.00     0.026 A 
HETATM   35  C   UNL     1      -4.389  -2.495 -33.297  1.00  0.00    -0.025 A 
HETATM   36  C   UNL     1      -5.385  -2.666 -34.285  1.00  0.00    -0.026 A 
HETATM   37  C   UNL     1      -3.566  -3.582 -32.958  1.00  0.00     0.012 A 
HETATM   38  C   UNL     1      -6.215  -1.583 -34.614  1.00  0.00     0.013 A 
HETATM   39  C   UNL     1      -5.520  -3.910 -34.916  1.00  0.00     0.012 A 
HETATM   40  C   UNL     1      -6.047  -0.341 -33.997  1.00  0.00     0.014 A 
HETATM   41  C   UNL     1      -4.685  -4.977 -34.577  1.00  0.00     0.001 A 
HETATM   42  C   UNL     1      -3.712  -4.814 -33.596  1.00  0.00     0.001 A 
ENDBRANCH  31  33
ENDBRANCH   1  27
TORSDOF 9
ENDMDL
MODEL 5
REMARK VINA RESULT:      -9.6      2.285      3.194
REMARK  9 active torsions:
REMARK  status: ('A' for Active; 'I' for Inactive)
REMARK    1  A    between atoms: C_4  and  C_5 
REMARK    2  A    between atoms: C_16  and  C_17 
REMARK    3  A    between atoms: C_20  and  C_21 
REMARK    4  A    between atoms: C_21  and  N_22 
REMARK    5  A    between atoms: N_22  and  C_23 
REMARK    6  A    between atoms: C_23  and  N_24 
REMARK    7  A    between atoms: N_24  and  C_25 
REMARK    8  A    between atoms: C_27  and  C_28 
REMARK    9  A    between atoms: C_28  and  O_29 
ROOT
HETATM    1  C   UNL     1      -9.930   3.695 -32.106  1.00  0.00     0.067 C 
HETATM    2  C   UNL     1      -9.687   5.081 -32.727  1.00  0.00     0.001 C 
HETATM    3  C   UNL     1      -8.255   5.584 -32.458  1.00  0.00     0.040 C 
HETATM    4  C   UNL     1      -7.984   5.774 -30.956  1.00  0.00     0.206 C 
HETATM    5  N   UNL     1      -9.155   5.135 -30.214  1.00  0.00    -0.065 N 
HETATM    6  H   UNL     1      -8.959   5.136 -29.203  1.00  0.00     0.280 HD
HETATM    7  C   UNL     1      -9.396   3.690 -30.655  1.00  0.00     0.246 C 
HETATM    8  C   UNL     1     -10.627   6.064 -31.979  1.00  0.00     0.033 C 
HETATM    9  C   UNL     1     -10.411   5.962 -30.460  1.00  0.00     0.236 C 
ENDROOT
BRANCH   4  10
HETATM   10  C   UNL     1      -6.616   5.217 -30.500  1.00  0.00     0.155 C 
BRANCH  10  11
HETATM   11  N   UNL     1      -5.935   4.485 -31.567  1.00  0.00    -0.365 N 
HETATM   12  H   UNL     1      -5.670   5.015 -32.392  1.00  0.00     0.161 HD
BRANCH  11  13
HETATM   13  C   UNL     1      -5.178   3.355 -31.418  1.00  0.00     0.172 C 
HETATM   14  S   UNL     1      -5.455   2.153 -30.293  1.00  0.00    -0.041 SA
BRANCH  13  15
HETATM   15  N   UNL     1      -4.095   3.220 -32.240  1.00  0.00    -0.333 N 
HETATM   16  H   UNL     1      -4.080   2.322 -32.721  1.00  0.00     0.168 HD
BRANCH  15  17
HETATM   17  C   UNL     1      -3.098   4.133 -32.648  1.00  0.00     0.035 A 
HETATM   18  C   UNL     1      -2.000   4.490 -31.866  1.00  0.00     0.047 A 
HETATM   19  C   UNL     1      -1.051   5.419 -32.324  1.00  0.00     0.041 A 
HETATM   20  C   UNL     1      -1.224   6.023 -33.572  1.00  0.00     0.018 A 
HETATM   21  C   UNL     1      -2.338   5.699 -34.346  1.00  0.00     0.003 A 
HETATM   22  C   UNL     1      -3.269   4.763 -33.886  1.00  0.00     0.029 A 
BRANCH  19  23
HETATM   23  C   UNL     1       0.108   5.710 -31.439  1.00  0.00     0.293 C 
HETATM   24  O   UNL     1       0.603   6.826 -31.341  1.00  0.00    -0.259 OA
BRANCH  23  25
HETATM   25  O   UNL     1       0.514   4.595 -30.790  1.00  0.00    -0.323 OA
HETATM   26  C   UNL     1       0.931   4.815 -29.441  1.00  0.00     0.213 C 
ENDBRANCH  23  25
ENDBRANCH  19  23
ENDBRANCH  15  17
ENDBRANCH  13  15
ENDBRANCH  11  13
ENDBRANCH  10  11
ENDBRANCH   4  10
BRANCH   1  27
HETATM   27  C   UNL     1      -9.557   2.430 -32.830  1.00  0.00     0.038 C 
HETATM   28  N   UNL     1     -10.146   1.755 -33.874  1.00  0.00    -0.277 N 
HETATM   29  C   UNL     1     -11.421   1.928 -34.529  1.00  0.00     0.179 C 
HETATM   30  N   UNL     1      -9.367   0.781 -34.374  1.00  0.00    -0.172 NA
HETATM   31  C   UNL     1      -8.322   0.685 -33.547  1.00  0.00     0.089 C 
HETATM   32  C   UNL     1      -8.420   1.683 -32.552  1.00  0.00     0.061 C 
BRANCH  31  33
HETATM   33  C   UNL     1      -7.238  -0.274 -33.750  1.00  0.00    -0.005 A 
HETATM   34  C   UNL     1      -7.505  -1.567 -34.226  1.00  0.00     0.026 A 
HETATM   35  C   UNL     1      -6.486  -2.527 -34.335  1.00  0.00    -0.025 A 
HETATM   36  C   UNL     1      -5.166  -2.182 -33.969  1.00  0.00    -0.026 A 
HETATM   37  C   UNL     1      -6.755  -3.829 -34.789  1.00  0.00     0.012 A 
HETATM   38  C   UNL     1      -4.896  -0.879 -33.527  1.00  0.00     0.013 A 
HETATM   39  C   UNL     1      -4.154  -3.151 -34.053  1.00  0.00     0.012 A 
HETATM   40  C   UNL     1      -5.921   0.065 -33.420  1.00  0.00     0.014 A 
HETATM   41  C   UNL     1      -4.441  -4.444 -34.494  1.00  0.00     0.001 A 
HETATM   42  C   UNL     1      -5.738  -4.782 -34.866  1.00  0.00     0.001 A 
ENDBRANCH  31  33
ENDBRANCH   1  27
TORSDOF 9
ENDMDL
MODEL 6
REMARK VINA RESULT:      -9.6      4.720      6.851
REMARK  9 active torsions:
REMARK  status: ('A' for Active; 'I' for Inactive)
REMARK    1  A    between atoms: C_4  and  C_5 
REMARK    2  A    between atoms: C_16  and  C_17 
REMARK    3  A    between atoms: C_20  and  C_21 
REMARK    4  A    between atoms: C_21  and  N_22 
REMARK    5  A    between atoms: N_22  and  C_23 
REMARK    6  A    between atoms: C_23  and  N_24 
REMARK    7  A    between atoms: N_24  and  C_25 
REMARK    8  A    between atoms: C_27  and  C_28 
REMARK    9  A    between atoms: C_28  and  O_29 
ROOT
HETATM    1  C   UNL     1      -5.923   4.599 -31.751  1.00  0.00     0.067 C 
HETATM    2  C   UNL     1      -5.566   5.860 -32.557  1.00  0.00     0.001 C 
HETATM    3  C   UNL     1      -4.078   5.879 -32.958  1.00  0.00     0.040 C 
HETATM    4  C   UNL     1      -3.152   5.922 -31.732  1.00  0.00     0.206 C 
HETATM    5  N   UNL     1      -4.027   5.657 -30.509  1.00  0.00    -0.065 N 
HETATM    6  H   UNL     1      -3.428   5.561 -29.677  1.00  0.00     0.280 HD
HETATM    7  C   UNL     1      -4.850   4.376 -30.659  1.00  0.00     0.246 C 
HETATM    8  C   UNL     1      -5.759   7.061 -31.592  1.00  0.00     0.033 C 
HETATM    9  C   UNL     1      -4.958   6.844 -30.297  1.00  0.00     0.236 C 
ENDROOT
BRANCH   4  10
HETATM   10  C   UNL     1      -1.954   4.949 -31.828  1.00  0.00     0.155 C 
BRANCH  10  11
HETATM   11  N   UNL     1      -1.249   4.813 -30.554  1.00  0.00    -0.365 N 
HETATM   12  H   UNL     1      -1.168   3.876 -30.171  1.00  0.00     0.161 HD
BRANCH  11  13
HETATM   13  C   UNL     1      -0.283   5.651 -30.069  1.00  0.00     0.172 C 
HETATM   14  S   UNL     1       0.588   6.744 -30.983  1.00  0.00    -0.041 SA
BRANCH  13  15
HETATM   15  N   UNL     1       0.007   5.561 -28.737  1.00  0.00    -0.333 N 
HETATM   16  H   UNL     1       0.434   4.671 -28.490  1.00  0.00     0.168 HD
BRANCH  15  17
HETATM   17  C   UNL     1      -0.042   6.512 -27.694  1.00  0.00     0.035 A 
HETATM   18  C   UNL     1      -1.218   6.925 -27.068  1.00  0.00     0.047 A 
HETATM   19  C   UNL     1      -1.200   7.889 -26.047  1.00  0.00     0.041 A 
HETATM   20  C   UNL     1       0.013   8.470 -25.668  1.00  0.00     0.018 A 
HETATM   21  C   UNL     1       1.190   8.089 -26.312  1.00  0.00     0.003 A 
HETATM   22  C   UNL     1       1.162   7.119 -27.319  1.00  0.00     0.029 A 
BRANCH  19  23
HETATM   23  C   UNL     1      -2.498   8.240 -25.410  1.00  0.00     0.293 C 
HETATM   24  O   UNL     1      -2.709   8.091 -24.213  1.00  0.00    -0.259 OA
BRANCH  23  25
HETATM   25  O   UNL     1      -3.370   8.723 -26.323  1.00  0.00    -0.323 OA
HETATM   26  C   UNL     1      -3.708  10.100 -26.146  1.00  0.00     0.213 C 
ENDBRANCH  23  25
ENDBRANCH  19  23
ENDBRANCH  15  17
ENDBRANCH  13  15
ENDBRANCH  11  13
ENDBRANCH  10  11
ENDBRANCH   4  10
BRANCH   1  27
HETATM   27  C   UNL     1      -6.289   3.307 -32.429  1.00  0.00     0.038 C 
HETATM   28  N   UNL     1      -7.304   2.973 -33.295  1.00  0.00    -0.277 N 
HETATM   29  C   UNL     1      -8.475   3.700 -33.723  1.00  0.00     0.179 C 
HETATM   30  N   UNL     1      -7.142   1.759 -33.849  1.00  0.00    -0.172 NA
HETATM   31  C   UNL     1      -6.106   1.202 -33.217  1.00  0.00     0.089 C 
HETATM   32  C   UNL     1      -5.562   2.130 -32.301  1.00  0.00     0.061 C 
BRANCH  31  33
HETATM   33  C   UNL     1      -5.612  -0.137 -33.535  1.00  0.00    -0.005 A 
HETATM   34  C   UNL     1      -6.452  -1.086 -34.136  1.00  0.00     0.026 A 
HETATM   35  C   UNL     1      -6.020  -2.403 -34.360  1.00  0.00    -0.025 A 
HETATM   36  C   UNL     1      -4.710  -2.776 -33.983  1.00  0.00    -0.026 A 
HETATM   37  C   UNL     1      -6.866  -3.362 -34.940  1.00  0.00     0.012 A 
HETATM   38  C   UNL     1      -3.861  -1.815 -33.414  1.00  0.00     0.013 A 
HETATM   39  C   UNL     1      -4.289  -4.099 -34.182  1.00  0.00     0.012 A 
HETATM   40  C   UNL     1      -4.307  -0.509 -33.195  1.00  0.00     0.014 A 
HETATM   41  C   UNL     1      -5.147  -5.044 -34.749  1.00  0.00     0.001 A 
HETATM   42  C   UNL     1      -6.433  -4.674 -35.131  1.00  0.00     0.001 A 
ENDBRANCH  31  33
ENDBRANCH   1  27
TORSDOF 9
ENDMDL
MODEL 7
REMARK VINA RESULT:      -9.6      2.315      3.237
REMARK  9 active torsions:
REMARK  status: ('A' for Active; 'I' for Inactive)
REMARK    1  A    between atoms: C_4  and  C_5 
REMARK    2  A    between atoms: C_16  and  C_17 
REMARK    3  A    between atoms: C_20  and  C_21 
REMARK    4  A    between atoms: C_21  and  N_22 
REMARK    5  A    between atoms: N_22  and  C_23 
REMARK    6  A    between atoms: C_23  and  N_24 
REMARK    7  A    between atoms: N_24  and  C_25 
REMARK    8  A    between atoms: C_27  and  C_28 
REMARK    9  A    between atoms: C_28  and  O_29 
ROOT
HETATM    1  C   UNL     1      -9.907   3.064 -32.228  1.00  0.00     0.067 C 
HETATM    2  C   UNL     1     -10.606   4.326 -32.763  1.00  0.00     0.001 C 
HETATM    3  C   UNL     1      -9.999   5.611 -32.167  1.00  0.00     0.040 C 
HETATM    4  C   UNL     1     -10.179   5.679 -30.641  1.00  0.00     0.206 C 
HETATM    5  N   UNL     1     -10.668   4.304 -30.194  1.00  0.00    -0.065 N 
HETATM    6  H   UNL     1     -10.691   4.268 -29.165  1.00  0.00     0.280 HD
HETATM    7  C   UNL     1      -9.759   3.180 -30.693  1.00  0.00     0.246 C 
HETATM    8  C   UNL     1     -12.067   4.267 -32.240  1.00  0.00     0.033 C 
HETATM    9  C   UNL     1     -12.084   4.087 -30.713  1.00  0.00     0.236 C 
ENDROOT
BRANCH   4  10
HETATM   10  C   UNL     1      -8.906   6.130 -29.889  1.00  0.00     0.155 C 
BRANCH  10  11
HETATM   11  N   UNL     1      -7.869   6.615 -30.799  1.00  0.00    -0.365 N 
HETATM   12  H   UNL     1      -8.178   7.160 -31.599  1.00  0.00     0.161 HD
BRANCH  11  13
HETATM   13  C   UNL     1      -6.563   6.868 -30.479  1.00  0.00     0.172 C 
HETATM   14  S   UNL     1      -5.769   8.311 -30.748  1.00  0.00    -0.041 SA
BRANCH  13  15
HETATM   15  N   UNL     1      -5.851   5.844 -29.920  1.00  0.00    -0.333 N 
HETATM   16  H   UNL     1      -6.071   5.709 -28.935  1.00  0.00     0.168 HD
BRANCH  15  17
HETATM   17  C   UNL     1      -4.998   4.870 -30.483  1.00  0.00     0.035 A 
HETATM   18  C   UNL     1      -3.908   5.165 -31.301  1.00  0.00     0.047 A 
HETATM   19  C   UNL     1      -3.107   4.147 -31.844  1.00  0.00     0.041 A 
HETATM   20  C   UNL     1      -3.423   2.811 -31.586  1.00  0.00     0.018 A 
HETATM   21  C   UNL     1      -4.531   2.504 -30.797  1.00  0.00     0.003 A 
HETATM   22  C   UNL     1      -5.314   3.527 -30.252  1.00  0.00     0.029 A 
BRANCH  19  23
HETATM   23  C   UNL     1      -1.943   4.557 -32.674  1.00  0.00     0.293 C 
HETATM   24  O   UNL     1      -0.820   4.709 -32.210  1.00  0.00    -0.259 OA
BRANCH  23  25
HETATM   25  O   UNL     1      -2.307   4.733 -33.964  1.00  0.00    -0.323 OA
HETATM   26  C   UNL     1      -1.301   5.329 -34.786  1.00  0.00     0.213 C 
ENDBRANCH  23  25
ENDBRANCH  19  23
ENDBRANCH  15  17
ENDBRANCH  13  15
ENDBRANCH  11  13
ENDBRANCH  10  11
ENDBRANCH   4  10
BRANCH   1  27
HETATM   27  C   UNL     1      -8.650   2.532 -32.860  1.00  0.00     0.038 C 
HETATM   28  N   UNL     1      -7.529   3.156 -33.355  1.00  0.00    -0.277 N 
HETATM   29  C   UNL     1      -7.238   4.548 -33.602  1.00  0.00     0.179 C 
HETATM   30  N   UNL     1      -6.529   2.299 -33.629  1.00  0.00    -0.172 NA
HETATM   31  C   UNL     1      -7.044   1.076 -33.482  1.00  0.00     0.089 C 
HETATM   32  C   UNL     1      -8.377   1.180 -33.029  1.00  0.00     0.061 C 
BRANCH  31  33
HETATM   33  C   UNL     1      -6.263  -0.142 -33.695  1.00  0.00    -0.005 A 
HETATM   34  C   UNL     1      -6.857  -1.285 -34.250  1.00  0.00     0.026 A 
HETATM   35  C   UNL     1      -6.144  -2.489 -34.373  1.00  0.00    -0.025 A 
HETATM   36  C   UNL     1      -4.800  -2.547 -33.939  1.00  0.00    -0.026 A 
HETATM   37  C   UNL     1      -6.742  -3.642 -34.907  1.00  0.00     0.012 A 
HETATM   38  C   UNL     1      -4.199  -1.392 -33.416  1.00  0.00     0.013 A 
HETATM   39  C   UNL     1      -4.098  -3.757 -34.036  1.00  0.00     0.012 A 
HETATM   40  C   UNL     1      -4.922  -0.202 -33.298  1.00  0.00     0.014 A 
HETATM   41  C   UNL     1      -4.712  -4.897 -34.558  1.00  0.00     0.001 A 
HETATM   42  C   UNL     1      -6.031  -4.839 -34.997  1.00  0.00     0.001 A 
ENDBRANCH  31  33
ENDBRANCH   1  27
TORSDOF 9
ENDMDL
MODEL 8
REMARK VINA RESULT:      -9.4      1.687      2.130
REMARK  9 active torsions:
REMARK  status: ('A' for Active; 'I' for Inactive)
REMARK    1  A    between atoms: C_4  and  C_5 
REMARK    2  A    between atoms: C_16  and  C_17 
REMARK    3  A    between atoms: C_20  and  C_21 
REMARK    4  A    between atoms: C_21  and  N_22 
REMARK    5  A    between atoms: N_22  and  C_23 
REMARK    6  A    between atoms: C_23  and  N_24 
REMARK    7  A    between atoms: N_24  and  C_25 
REMARK    8  A    between atoms: C_27  and  C_28 
REMARK    9  A    between atoms: C_28  and  O_29 
ROOT
HETATM    1  C   UNL     1     -10.467   4.220 -34.163  1.00  0.00     0.067 C 
HETATM    2  C   UNL     1      -9.483   5.322 -34.594  1.00  0.00     0.001 C 
HETATM    3  C   UNL     1      -8.724   5.912 -33.389  1.00  0.00     0.040 C 
HETATM    4  C   UNL     1      -9.672   6.600 -32.393  1.00  0.00     0.206 C 
HETATM    5  N   UNL     1     -11.093   6.226 -32.806  1.00  0.00    -0.065 N 
HETATM    6  H   UNL     1     -11.755   6.570 -32.097  1.00  0.00     0.280 HD
HETATM    7  C   UNL     1     -11.273   4.713 -32.939  1.00  0.00     0.246 C 
HETATM    8  C   UNL     1     -10.349   6.481 -35.157  1.00  0.00     0.033 C 
HETATM    9  C   UNL     1     -11.418   6.899 -34.134  1.00  0.00     0.236 C 
ENDROOT
BRANCH   4  10
HETATM   10  C   UNL     1      -9.372   6.254 -30.916  1.00  0.00     0.155 C 
BRANCH  10  11
HETATM   11  N   UNL     1      -8.664   4.982 -30.780  1.00  0.00    -0.365 N 
HETATM   12  H   UNL     1      -8.694   4.351 -31.576  1.00  0.00     0.161 HD
BRANCH  11  13
HETATM   13  C   UNL     1      -7.589   4.735 -29.970  1.00  0.00     0.172 C 
HETATM   14  S   UNL     1      -7.115   5.689 -28.685  1.00  0.00    -0.041 SA
BRANCH  13  15
HETATM   15  N   UNL     1      -6.832   3.635 -30.260  1.00  0.00    -0.333 N 
HETATM   16  H   UNL     1      -7.268   2.769 -29.949  1.00  0.00     0.168 HD
BRANCH  15  17
HETATM   17  C   UNL     1      -5.655   3.472 -31.024  1.00  0.00     0.035 A 
HETATM   18  C   UNL     1      -5.341   4.237 -32.147  1.00  0.00     0.047 A 
HETATM   19  C   UNL     1      -4.161   4.013 -32.874  1.00  0.00     0.041 A 
HETATM   20  C   UNL     1      -3.298   2.985 -32.488  1.00  0.00     0.018 A 
HETATM   21  C   UNL     1      -3.620   2.191 -31.387  1.00  0.00     0.003 A 
HETATM   22  C   UNL     1      -4.792   2.432 -30.663  1.00  0.00     0.029 A 
BRANCH  19  23
HETATM   23  C   UNL     1      -3.889   4.904 -34.034  1.00  0.00     0.293 C 
HETATM   24  O   UNL     1      -4.766   5.272 -34.805  1.00  0.00    -0.259 OA
BRANCH  23  25
HETATM   25  O   UNL     1      -2.578   5.224 -34.102  1.00  0.00    -0.323 OA
HETATM   26  C   UNL     1      -2.314   6.627 -34.169  1.00  0.00     0.213 C 
ENDBRANCH  23  25
ENDBRANCH  19  23
ENDBRANCH  15  17
ENDBRANCH  13  15
ENDBRANCH  11  13
ENDBRANCH  10  11
ENDBRANCH   4  10
BRANCH   1  27
HETATM   27  C   UNL     1     -10.026   2.793 -33.988  1.00  0.00     0.038 C 
HETATM   28  N   UNL     1     -10.728   1.614 -33.895  1.00  0.00    -0.277 N 
HETATM   29  C   UNL     1     -12.141   1.348 -33.760  1.00  0.00     0.179 C 
HETATM   30  N   UNL     1      -9.941   0.527 -33.972  1.00  0.00    -0.172 NA
HETATM   31  C   UNL     1      -8.685   0.981 -33.939  1.00  0.00     0.089 C 
HETATM   32  C   UNL     1      -8.697   2.393 -33.920  1.00  0.00     0.061 C 
BRANCH  31  33
HETATM   33  C   UNL     1      -7.522   0.096 -33.999  1.00  0.00    -0.005 A 
HETATM   34  C   UNL     1      -7.653  -1.228 -34.442  1.00  0.00     0.026 A 
HETATM   35  C   UNL     1      -6.564  -2.116 -34.415  1.00  0.00    -0.025 A 
HETATM   36  C   UNL     1      -5.312  -1.663 -33.943  1.00  0.00    -0.026 A 
HETATM   37  C   UNL     1      -6.697  -3.449 -34.837  1.00  0.00     0.012 A 
HETATM   38  C   UNL     1      -5.177  -0.328 -33.534  1.00  0.00     0.013 A 
HETATM   39  C   UNL     1      -4.232  -2.557 -33.891  1.00  0.00     0.012 A 
HETATM   40  C   UNL     1      -6.270   0.542 -33.563  1.00  0.00     0.014 A 
HETATM   41  C   UNL     1      -4.385  -3.883 -34.303  1.00  0.00     0.001 A 
HETATM   42  C   UNL     1      -5.614  -4.327 -34.778  1.00  0.00     0.001 A 
ENDBRANCH  31  33
ENDBRANCH   1  27
TORSDOF 9
ENDMDL
MODEL 9
REMARK VINA RESULT:      -9.2      4.668      6.947
REMARK  9 active torsions:
REMARK  status: ('A' for Active; 'I' for Inactive)
REMARK    1  A    between atoms: C_4  and  C_5 
REMARK    2  A    between atoms: C_16  and  C_17 
REMARK    3  A    between atoms: C_20  and  C_21 
REMARK    4  A    between atoms: C_21  and  N_22 
REMARK    5  A    between atoms: N_22  and  C_23 
REMARK    6  A    between atoms: C_23  and  N_24 
REMARK    7  A    between atoms: N_24  and  C_25 
REMARK    8  A    between atoms: C_27  and  C_28 
REMARK    9  A    between atoms: C_28  and  O_29 
ROOT
HETATM    1  C   UNL     1      -2.823   4.277 -32.709  1.00  0.00     0.067 C 
HETATM    2  C   UNL     1      -1.879   4.830 -31.628  1.00  0.00     0.001 C 
HETATM    3  C   UNL     1      -2.569   5.902 -30.760  1.00  0.00     0.040 C 
HETATM    4  C   UNL     1      -2.983   7.131 -31.586  1.00  0.00     0.206 C 
HETATM    5  N   UNL     1      -2.809   6.755 -33.055  1.00  0.00    -0.065 N 
HETATM    6  H   UNL     1      -3.185   7.508 -33.647  1.00  0.00     0.280 HD
HETATM    7  C   UNL     1      -3.540   5.458 -33.406  1.00  0.00     0.246 C 
HETATM    8  C   UNL     1      -0.739   5.567 -32.382  1.00  0.00     0.033 C 
HETATM    9  C   UNL     1      -1.323   6.604 -33.357  1.00  0.00     0.236 C 
ENDROOT
BRANCH   4  10
HETATM   10  C   UNL     1      -4.409   7.637 -31.267  1.00  0.00     0.155 C 
BRANCH  10  11
HETATM   11  N   UNL     1      -4.799   7.353 -29.887  1.00  0.00    -0.365 N 
HETATM   12  H   UNL     1      -4.428   6.505 -29.469  1.00  0.00     0.161 HD
BRANCH  11  13
HETATM   13  C   UNL     1      -5.164   8.274 -28.942  1.00  0.00     0.172 C 
HETATM   14  S   UNL     1      -6.696   8.912 -28.764  1.00  0.00    -0.041 SA
BRANCH  13  15
HETATM   15  N   UNL     1      -4.186   8.722 -28.101  1.00  0.00    -0.333 N 
HETATM   16  H   UNL     1      -4.390   9.645 -27.722  1.00  0.00     0.168 HD
BRANCH  15  17
HETATM   17  C   UNL     1      -3.044   8.091 -27.558  1.00  0.00     0.035 A 
HETATM   18  C   UNL     1      -1.785   8.108 -28.157  1.00  0.00     0.047 A 
HETATM   19  C   UNL     1      -0.692   7.446 -27.574  1.00  0.00     0.041 A 
HETATM   20  C   UNL     1      -0.873   6.730 -26.388  1.00  0.00     0.018 A 
HETATM   21  C   UNL     1      -2.136   6.677 -25.800  1.00  0.00     0.003 A 
HETATM   22  C   UNL     1      -3.214   7.352 -26.383  1.00  0.00     0.029 A 
BRANCH  19  23
HETATM   23  C   UNL     1       0.622   7.551 -28.263  1.00  0.00     0.293 C 
HETATM   24  O   UNL     1       1.519   8.286 -27.870  1.00  0.00    -0.259 OA
BRANCH  23  25
HETATM   25  O   UNL     1       0.666   6.745 -29.347  1.00  0.00    -0.323 OA
HETATM   26  C   UNL     1       0.786   5.353 -29.045  1.00  0.00     0.213 C 
ENDBRANCH  23  25
ENDBRANCH  19  23
ENDBRANCH  15  17
ENDBRANCH  13  15
ENDBRANCH  11  13
ENDBRANCH  10  11
ENDBRANCH   4  10
BRANCH   1  27
HETATM   27  C   UNL     1      -3.779   3.152 -32.421  1.00  0.00     0.038 C 
HETATM   28  N   UNL     1      -4.832   3.036 -31.544  1.00  0.00    -0.277 N 
HETATM   29  C   UNL     1      -5.283   3.889 -30.470  1.00  0.00     0.179 C 
HETATM   30  N   UNL     1      -5.575   1.937 -31.759  1.00  0.00    -0.172 NA
HETATM   31  C   UNL     1      -4.914   1.220 -32.672  1.00  0.00     0.089 C 
HETATM   32  C   UNL     1      -3.770   1.934 -33.090  1.00  0.00     0.061 C 
BRANCH  31  33
HETATM   33  C   UNL     1      -5.403  -0.063 -33.177  1.00  0.00    -0.005 A 
HETATM   34  C   UNL     1      -4.564  -1.187 -33.204  1.00  0.00     0.026 A 
HETATM   35  C   UNL     1      -4.990  -2.399 -33.773  1.00  0.00    -0.025 A 
HETATM   36  C   UNL     1      -6.291  -2.490 -34.317  1.00  0.00    -0.026 A 
HETATM   37  C   UNL     1      -4.145  -3.519 -33.823  1.00  0.00     0.012 A 
HETATM   38  C   UNL     1      -7.139  -1.373 -34.256  1.00  0.00     0.013 A 
HETATM   39  C   UNL     1      -6.705  -3.692 -34.910  1.00  0.00     0.012 A 
HETATM   40  C   UNL     1      -6.700  -0.174 -33.691  1.00  0.00     0.014 A 
HETATM   41  C   UNL     1      -5.848  -4.793 -34.963  1.00  0.00     0.001 A 
HETATM   42  C   UNL     1      -4.572  -4.708 -34.417  1.00  0.00     0.001 A 
ENDBRANCH  31  33
ENDBRANCH   1  27
TORSDOF 9
ENDMDL
MODEL 10
REMARK VINA RESULT:      -9.2      3.890      5.468
REMARK  9 active torsions:
REMARK  status: ('A' for Active; 'I' for Inactive)
REMARK    1  A    between atoms: C_4  and  C_5 
REMARK    2  A    between atoms: C_16  and  C_17 
REMARK    3  A    between atoms: C_20  and  C_21 
REMARK    4  A    between atoms: C_21  and  N_22 
REMARK    5  A    between atoms: N_22  and  C_23 
REMARK    6  A    between atoms: C_23  and  N_24 
REMARK    7  A    between atoms: N_24  and  C_25 
REMARK    8  A    between atoms: C_27  and  C_28 
REMARK    9  A    between atoms: C_28  and  O_29 
ROOT
HETATM    1  C   UNL     1      -7.418   5.401 -30.302  1.00  0.00     0.067 C 
HETATM    2  C   UNL     1      -6.221   6.262 -30.740  1.00  0.00     0.001 C 
HETATM    3  C   UNL     1      -5.023   6.104 -29.783  1.00  0.00     0.040 C 
HETATM    4  C   UNL     1      -5.354   6.588 -28.361  1.00  0.00     0.206 C 
HETATM    5  N   UNL     1      -6.863   6.815 -28.314  1.00  0.00    -0.065 N 
HETATM    6  H   UNL     1      -7.145   7.028 -27.347  1.00  0.00     0.280 HD
HETATM    7  C   UNL     1      -7.644   5.586 -28.782  1.00  0.00     0.246 C 
HETATM    8  C   UNL     1      -6.676   7.741 -30.606  1.00  0.00     0.033 C 
HETATM    9  C   UNL     1      -7.214   8.011 -29.191  1.00  0.00     0.236 C 
ENDROOT
BRANCH   4  10
HETATM   10  C   UNL     1      -4.862   5.630 -27.253  1.00  0.00     0.155 C 
BRANCH  10  11
HETATM   11  N   UNL     1      -3.911   6.274 -26.348  1.00  0.00    -0.365 N 
HETATM   12  H   UNL     1      -3.668   5.770 -25.500  1.00  0.00     0.161 HD
BRANCH  11  13
HETATM   13  C   UNL     1      -2.950   7.184 -26.696  1.00  0.00     0.172 C 
HETATM   14  S   UNL     1      -3.110   8.842 -26.580  1.00  0.00    -0.041 SA
BRANCH  13  15
HETATM   15  N   UNL     1      -1.782   6.691 -27.204  1.00  0.00    -0.333 N 
HETATM   16  H   UNL     1      -1.307   6.067 -26.555  1.00  0.00     0.168 HD
BRANCH  15  17
HETATM   17  C   UNL     1      -1.203   6.770 -28.490  1.00  0.00     0.035 A 
HETATM   18  C   UNL     1      -1.838   7.326 -29.600  1.00  0.00     0.047 A 
HETATM   19  C   UNL     1      -1.213   7.359 -30.857  1.00  0.00     0.041 A 
HETATM   20  C   UNL     1       0.057   6.797 -31.010  1.00  0.00     0.018 A 
HETATM   21  C   UNL     1       0.686   6.207 -29.914  1.00  0.00     0.003 A 
HETATM   22  C   UNL     1       0.059   6.192 -28.665  1.00  0.00     0.029 A 
BRANCH  19  23
HETATM   23  C   UNL     1      -1.951   8.006 -31.975  1.00  0.00     0.293 C 
HETATM   24  O   UNL     1      -1.907   9.212 -32.186  1.00  0.00    -0.259 OA
BRANCH  23  25
HETATM   25  O   UNL     1      -2.650   7.094 -32.686  1.00  0.00    -0.323 OA
HETATM   26  C   UNL     1      -2.196   6.916 -34.029  1.00  0.00     0.213 C 
ENDBRANCH  23  25
ENDBRANCH  19  23
ENDBRANCH  15  17
ENDBRANCH  13  15
ENDBRANCH  11  13
ENDBRANCH  10  11
ENDBRANCH   4  10
BRANCH   1  27
HETATM   27  C   UNL     1      -7.538   3.956 -30.700  1.00  0.00     0.038 C 
HETATM   28  N   UNL     1      -8.624   3.121 -30.833  1.00  0.00    -0.277 N 
HETATM   29  C   UNL     1     -10.011   3.289 -30.470  1.00  0.00     0.179 C 
HETATM   30  N   UNL     1      -8.319   1.957 -31.432  1.00  0.00    -0.172 NA
HETATM   31  C   UNL     1      -6.989   1.938 -31.543  1.00  0.00     0.089 C 
HETATM   32  C   UNL     1      -6.461   3.160 -31.070  1.00  0.00     0.061 C 
BRANCH  31  33
HETATM   33  C   UNL     1      -6.261   0.823 -32.148  1.00  0.00    -0.005 A 
HETATM   34  C   UNL     1      -6.906  -0.058 -33.029  1.00  0.00     0.026 A 
HETATM   35  C   UNL     1      -6.245  -1.186 -33.543  1.00  0.00    -0.025 A 
HETATM   36  C   UNL     1      -4.904  -1.432 -33.174  1.00  0.00    -0.026 A 
HETATM   37  C   UNL     1      -6.895  -2.083 -34.407  1.00  0.00     0.012 A 
HETATM   38  C   UNL     1      -4.252  -0.530 -32.320  1.00  0.00     0.013 A 
HETATM   39  C   UNL     1      -4.254  -2.574 -33.666  1.00  0.00     0.012 A 
HETATM   40  C   UNL     1      -4.923   0.586 -31.814  1.00  0.00     0.014 A 
HETATM   41  C   UNL     1      -4.919  -3.462 -34.514  1.00  0.00     0.001 A 
HETATM   42  C   UNL     1      -6.235  -3.215 -34.888  1.00  0.00     0.001 A 
ENDBRANCH  31  33
ENDBRANCH   1  27
TORSDOF 9
ENDMDL
