MODEL 1
REMARK VINA RESULT:      -9.9      0.000      0.000
REMARK  4 active torsions:
REMARK  status: ('A' for Active; 'I' for Inactive)
REMARK    1  A    between atoms: C_10  and  C_11 
REMARK       I    between atoms: C_11  and  N_12 
REMARK    2  A    between atoms: N_12  and  C_13 
REMARK    3  A    between atoms: C_13  and  C_14 
REMARK    4  A    between atoms: C_16  and  C_17 
ROOT
HETATM    1  C   UNL     1      -6.169   2.012 -33.453  1.00  0.00     0.268 C 
HETATM    2  N   UNL     1      -5.029   2.598 -32.964  1.00  0.00    -0.351 N 
HETATM    3  O   UNL     1      -7.209   2.635 -33.644  1.00  0.00    -0.266 OA
HETATM    4  H   UNL     1      -4.188   2.051 -32.864  1.00  0.00     0.163 HD
ENDROOT
BRANCH   2   5
HETATM    5  C   UNL     1      -4.952   4.007 -32.659  1.00  0.00     0.161 C 
BRANCH   5   6
HETATM    6  C   UNL     1      -3.537   4.510 -32.786  1.00  0.00    -0.040 A 
HETATM    7  C   UNL     1      -2.711   4.623 -31.656  1.00  0.00     0.024 A 
HETATM    8  C   UNL     1      -1.397   5.105 -31.765  1.00  0.00     0.014 A 
HETATM    9  C   UNL     1      -0.913   5.470 -33.029  1.00  0.00     0.015 A 
HETATM   10  C   UNL     1      -1.725   5.362 -34.159  1.00  0.00     0.002 A 
HETATM   11  C   UNL     1      -3.030   4.888 -34.037  1.00  0.00     0.009 A 
BRANCH   8  12
HETATM   12  C   UNL     1      -0.559   5.228 -30.574  1.00  0.00     0.181 A 
HETATM   13  N   UNL     1       0.380   4.336 -30.216  1.00  0.00    -0.152 NA
HETATM   14  N   UNL     1       0.872   4.880 -29.095  1.00  0.00    -0.263 N 
HETATM   15  H   UNL     1       1.619   4.405 -28.599  1.00  0.00     0.190 HD
HETATM   16  C   UNL     1       0.249   6.053 -28.791  1.00  0.00     0.118 A 
HETATM   17  C   UNL     1       0.586   6.872 -27.609  1.00  0.00     0.093 C 
HETATM   18  N   UNL     1      -0.661   6.296 -29.707  1.00  0.00    -0.212 NA
ENDBRANCH   8  12
ENDBRANCH   5   6
ENDBRANCH   2   5
BRANCH   1  19
HETATM   19  C   UNL     1      -6.066   0.598 -33.741  1.00  0.00     0.102 A 
HETATM   20  N   UNL     1      -4.928  -0.108 -33.413  1.00  0.00    -0.351 N 
HETATM   21  C   UNL     1      -5.043  -1.430 -33.767  1.00  0.00     0.043 A 
HETATM   22  H   UNL     1      -4.122   0.310 -32.966  1.00  0.00     0.166 HD
HETATM   23  C   UNL     1      -4.140  -2.489 -33.614  1.00  0.00     0.037 A 
HETATM   24  C   UNL     1      -6.296  -1.585 -34.351  1.00  0.00    -0.007 A 
HETATM   25  C   UNL     1      -4.526  -3.755 -34.082  1.00  0.00    -0.060 A 
HETATM   26  C   UNL     1      -3.607  -4.933 -33.926  1.00  0.00     0.048 C 
HETATM   27  C   UNL     1      -5.784  -3.932 -34.667  1.00  0.00     0.007 A 
HETATM   28  C   UNL     1      -6.675  -2.860 -34.811  1.00  0.00     0.014 A 
HETATM   29  C   UNL     1      -6.929  -0.309 -34.330  1.00  0.00     0.049 A 
ENDBRANCH   1  19
TORSDOF 4
ENDMDL
MODEL 2
REMARK VINA RESULT:      -9.8      1.145      1.730
REMARK  4 active torsions:
REMARK  status: ('A' for Active; 'I' for Inactive)
REMARK    1  A    between atoms: C_10  and  C_11 
REMARK       I    between atoms: C_11  and  N_12 
REMARK    2  A    between atoms: N_12  and  C_13 
REMARK    3  A    between atoms: C_13  and  C_14 
REMARK    4  A    between atoms: C_16  and  C_17 
ROOT
HETATM    1  C   UNL     1      -4.565   1.487 -32.062  1.00  0.00     0.268 C 
HETATM    2  N   UNL     1      -4.711   2.490 -32.987  1.00  0.00    -0.351 N 
HETATM    3  O   UNL     1      -4.427   1.702 -30.862  1.00  0.00    -0.266 OA
HETATM    4  H   UNL     1      -4.863   2.259 -33.956  1.00  0.00     0.163 HD
ENDROOT
BRANCH   2   5
HETATM    5  C   UNL     1      -4.742   3.886 -32.618  1.00  0.00     0.161 C 
BRANCH   5   6
HETATM    6  C   UNL     1      -3.371   4.501 -32.722  1.00  0.00    -0.040 A 
HETATM    7  C   UNL     1      -2.528   4.570 -31.601  1.00  0.00     0.024 A 
HETATM    8  C   UNL     1      -1.254   5.156 -31.687  1.00  0.00     0.014 A 
HETATM    9  C   UNL     1      -0.828   5.671 -32.919  1.00  0.00     0.015 A 
HETATM   10  C   UNL     1      -1.658   5.607 -34.040  1.00  0.00     0.002 A 
HETATM   11  C   UNL     1      -2.922   5.029 -33.941  1.00  0.00     0.009 A 
BRANCH   8  12
HETATM   12  C   UNL     1      -0.399   5.231 -30.505  1.00  0.00     0.181 A 
HETATM   13  N   UNL     1       0.514   4.302 -30.173  1.00  0.00    -0.152 NA
HETATM   14  N   UNL     1       1.037   4.810 -29.049  1.00  0.00    -0.263 N 
HETATM   15  H   UNL     1       1.773   4.302 -28.570  1.00  0.00     0.190 HD
HETATM   16  C   UNL     1       0.457   5.998 -28.719  1.00  0.00     0.118 A 
HETATM   17  C   UNL     1       0.835   6.785 -27.527  1.00  0.00     0.093 C 
HETATM   18  N   UNL     1      -0.455   6.287 -29.619  1.00  0.00    -0.212 NA
ENDBRANCH   8  12
ENDBRANCH   5   6
ENDBRANCH   2   5
BRANCH   1  19
HETATM   19  C   UNL     1      -4.591   0.142 -32.595  1.00  0.00     0.102 A 
HETATM   20  N   UNL     1      -5.662  -0.300 -33.343  1.00  0.00    -0.351 N 
HETATM   21  C   UNL     1      -5.481  -1.598 -33.752  1.00  0.00     0.043 A 
HETATM   22  H   UNL     1      -6.468   0.274 -33.554  1.00  0.00     0.166 HD
HETATM   23  C   UNL     1      -6.305  -2.425 -34.526  1.00  0.00     0.037 A 
HETATM   24  C   UNL     1      -4.253  -2.014 -33.248  1.00  0.00    -0.007 A 
HETATM   25  C   UNL     1      -5.863  -3.731 -34.789  1.00  0.00    -0.060 A 
HETATM   26  C   UNL     1      -6.695  -4.657 -35.631  1.00  0.00     0.048 C 
HETATM   27  C   UNL     1      -4.629  -4.167 -34.294  1.00  0.00     0.007 A 
HETATM   28  C   UNL     1      -3.818  -3.324 -33.523  1.00  0.00     0.014 A 
HETATM   29  C   UNL     1      -3.704  -0.917 -32.524  1.00  0.00     0.049 A 
ENDBRANCH   1  19
TORSDOF 4
ENDMDL
MODEL 3
REMARK VINA RESULT:      -9.1      2.122      8.939
REMARK  4 active torsions:
REMARK  status: ('A' for Active; 'I' for Inactive)
REMARK    1  A    between atoms: C_10  and  C_11 
REMARK       I    between atoms: C_11  and  N_12 
REMARK    2  A    between atoms: N_12  and  C_13 
REMARK    3  A    between atoms: C_13  and  C_14 
REMARK    4  A    between atoms: C_16  and  C_17 
ROOT
HETATM    1  C   UNL     1      -4.517   2.126 -31.637  1.00  0.00     0.268 C 
HETATM    2  N   UNL     1      -5.843   2.410 -31.841  1.00  0.00    -0.351 N 
HETATM    3  O   UNL     1      -4.123   1.030 -31.248  1.00  0.00    -0.266 OA
HETATM    4  H   UNL     1      -6.112   3.312 -32.200  1.00  0.00     0.163 HD
ENDROOT
BRANCH   2   5
HETATM    5  C   UNL     1      -6.886   1.432 -31.639  1.00  0.00     0.161 C 
BRANCH   5   6
HETATM    6  C   UNL     1      -7.110   0.617 -32.886  1.00  0.00    -0.040 A 
HETATM    7  C   UNL     1      -6.498  -0.637 -33.044  1.00  0.00     0.024 A 
HETATM    8  C   UNL     1      -6.689  -1.395 -34.210  1.00  0.00     0.014 A 
HETATM    9  C   UNL     1      -7.512  -0.882 -35.223  1.00  0.00     0.015 A 
HETATM   10  C   UNL     1      -8.125   0.363 -35.077  1.00  0.00     0.002 A 
HETATM   11  C   UNL     1      -7.923   1.109 -33.917  1.00  0.00     0.009 A 
BRANCH   8  12
HETATM   12  C   UNL     1      -6.032  -2.692 -34.360  1.00  0.00     0.181 A 
HETATM   13  N   UNL     1      -6.591  -3.757 -34.958  1.00  0.00    -0.152 NA
HETATM   14  N   UNL     1      -5.620  -4.676 -34.861  1.00  0.00    -0.263 N 
HETATM   15  H   UNL     1      -5.773  -5.602 -35.244  1.00  0.00     0.190 HD
HETATM   16  C   UNL     1      -4.522  -4.179 -34.225  1.00  0.00     0.118 A 
HETATM   17  C   UNL     1      -3.299  -4.969 -33.975  1.00  0.00     0.093 C 
HETATM   18  N   UNL     1      -4.755  -2.929 -33.894  1.00  0.00    -0.212 NA
ENDBRANCH   8  12
ENDBRANCH   5   6
ENDBRANCH   2   5
BRANCH   1  19
HETATM   19  C   UNL     1      -3.599   3.207 -31.920  1.00  0.00     0.102 A 
HETATM   20  N   UNL     1      -2.703   3.641 -30.965  1.00  0.00    -0.351 N 
HETATM   21  C   UNL     1      -1.926   4.667 -31.442  1.00  0.00     0.043 A 
HETATM   22  H   UNL     1      -2.639   3.240 -30.039  1.00  0.00     0.166 HD
HETATM   23  C   UNL     1      -0.899   5.388 -30.820  1.00  0.00     0.037 A 
HETATM   24  C   UNL     1      -2.336   4.912 -32.750  1.00  0.00    -0.007 A 
HETATM   25  C   UNL     1      -0.271   6.405 -31.556  1.00  0.00    -0.060 A 
HETATM   26  C   UNL     1       0.850   7.198 -30.948  1.00  0.00     0.048 C 
HETATM   27  C   UNL     1      -0.666   6.663 -32.874  1.00  0.00     0.007 A 
HETATM   28  C   UNL     1      -1.695   5.930 -33.480  1.00  0.00     0.014 A 
HETATM   29  C   UNL     1      -3.384   3.992 -33.039  1.00  0.00     0.049 A 
ENDBRANCH   1  19
TORSDOF 4
ENDMDL
MODEL 4
REMARK VINA RESULT:      -8.8      2.223      8.355
REMARK  4 active torsions:
REMARK  status: ('A' for Active; 'I' for Inactive)
REMARK    1  A    between atoms: C_10  and  C_11 
REMARK       I    between atoms: C_11  and  N_12 
REMARK    2  A    between atoms: N_12  and  C_13 
REMARK    3  A    between atoms: C_13  and  C_14 
REMARK    4  A    between atoms: C_16  and  C_17 
ROOT
HETATM    1  C   UNL     1      -5.164   4.695 -31.870  1.00  0.00     0.268 C 
HETATM    2  N   UNL     1      -5.381   4.157 -33.113  1.00  0.00    -0.351 N 
HETATM    3  O   UNL     1      -6.026   4.726 -30.997  1.00  0.00    -0.266 OA
HETATM    4  H   UNL     1      -4.628   4.118 -33.780  1.00  0.00     0.163 HD
ENDROOT
BRANCH   2   5
HETATM    5  C   UNL     1      -6.640   3.556 -33.488  1.00  0.00     0.161 C 
BRANCH   5   6
HETATM    6  C   UNL     1      -6.470   2.089 -33.784  1.00  0.00    -0.040 A 
HETATM    7  C   UNL     1      -5.481   1.335 -33.133  1.00  0.00     0.024 A 
HETATM    8  C   UNL     1      -5.306  -0.030 -33.414  1.00  0.00     0.014 A 
HETATM    9  C   UNL     1      -6.145  -0.638 -34.359  1.00  0.00     0.015 A 
HETATM   10  C   UNL     1      -7.132   0.102 -35.013  1.00  0.00     0.002 A 
HETATM   11  C   UNL     1      -7.292   1.457 -34.729  1.00  0.00     0.009 A 
BRANCH   8  12
HETATM   12  C   UNL     1      -4.261  -0.793 -32.736  1.00  0.00     0.181 A 
HETATM   13  N   UNL     1      -3.202  -0.241 -32.120  1.00  0.00    -0.152 NA
HETATM   14  N   UNL     1      -2.556  -1.317 -31.653  1.00  0.00    -0.263 N 
HETATM   15  H   UNL     1      -1.697  -1.191 -31.129  1.00  0.00     0.190 HD
HETATM   16  C   UNL     1      -3.202  -2.472 -31.979  1.00  0.00     0.118 A 
HETATM   17  C   UNL     1      -2.717  -3.813 -31.596  1.00  0.00     0.093 C 
HETATM   18  N   UNL     1      -4.281  -2.171 -32.666  1.00  0.00    -0.212 NA
ENDBRANCH   8  12
ENDBRANCH   5   6
ENDBRANCH   2   5
BRANCH   1  19
HETATM   19  C   UNL     1      -3.836   5.223 -31.645  1.00  0.00     0.102 A 
HETATM   20  N   UNL     1      -3.495   5.783 -30.432  1.00  0.00    -0.351 N 
HETATM   21  C   UNL     1      -2.191   6.214 -30.432  1.00  0.00     0.043 A 
HETATM   22  H   UNL     1      -4.135   5.855 -29.652  1.00  0.00     0.166 HD
HETATM   23  C   UNL     1      -1.441   6.827 -29.420  1.00  0.00     0.037 A 
HETATM   24  C   UNL     1      -1.671   5.930 -31.691  1.00  0.00    -0.007 A 
HETATM   25  C   UNL     1      -0.111   7.171 -29.705  1.00  0.00    -0.060 A 
HETATM   26  C   UNL     1       0.748   7.811 -28.652  1.00  0.00     0.048 C 
HETATM   27  C   UNL     1       0.432   6.889 -30.964  1.00  0.00     0.007 A 
HETATM   28  C   UNL     1      -0.334   6.275 -31.963  1.00  0.00     0.014 A 
HETATM   29  C   UNL     1      -2.709   5.310 -32.443  1.00  0.00     0.049 A 
ENDBRANCH   1  19
TORSDOF 4
ENDMDL
MODEL 5
REMARK VINA RESULT:      -8.8      1.995      2.658
REMARK  4 active torsions:
REMARK  status: ('A' for Active; 'I' for Inactive)
REMARK    1  A    between atoms: C_10  and  C_11 
REMARK       I    between atoms: C_11  and  N_12 
REMARK    2  A    between atoms: N_12  and  C_13 
REMARK    3  A    between atoms: C_13  and  C_14 
REMARK    4  A    between atoms: C_16  and  C_17 
ROOT
HETATM    1  C   UNL     1      -5.977   2.429 -32.945  1.00  0.00     0.268 C 
HETATM    2  N   UNL     1      -5.408   3.346 -33.792  1.00  0.00    -0.351 N 
HETATM    3  O   UNL     1      -6.683   2.749 -31.994  1.00  0.00    -0.266 OA
HETATM    4  H   UNL     1      -4.870   3.030 -34.583  1.00  0.00     0.163 HD
ENDROOT
BRANCH   2   5
HETATM    5  C   UNL     1      -5.616   4.768 -33.648  1.00  0.00     0.161 C 
BRANCH   5   6
HETATM    6  C   UNL     1      -4.303   5.505 -33.626  1.00  0.00    -0.040 A 
HETATM    7  C   UNL     1      -4.000   6.402 -32.590  1.00  0.00     0.024 A 
HETATM    8  C   UNL     1      -2.784   7.105 -32.571  1.00  0.00     0.014 A 
HETATM    9  C   UNL     1      -1.864   6.893 -33.608  1.00  0.00     0.015 A 
HETATM   10  C   UNL     1      -2.155   6.003 -34.643  1.00  0.00     0.002 A 
HETATM   11  C   UNL     1      -3.367   5.316 -34.654  1.00  0.00     0.009 A 
BRANCH   8  12
HETATM   12  C   UNL     1      -2.495   8.045 -31.491  1.00  0.00     0.181 A 
HETATM   13  N   UNL     1      -2.917   9.321 -31.466  1.00  0.00    -0.152 NA
HETATM   14  N   UNL     1      -2.423   9.758 -30.300  1.00  0.00    -0.263 N 
HETATM   15  H   UNL     1      -2.597  10.716 -30.015  1.00  0.00     0.190 HD
HETATM   16  C   UNL     1      -1.729   8.781 -29.651  1.00  0.00     0.118 A 
HETATM   17  C   UNL     1      -1.074   8.980 -28.342  1.00  0.00     0.093 C 
HETATM   18  N   UNL     1      -1.756   7.689 -30.381  1.00  0.00    -0.212 NA
ENDBRANCH   8  12
ENDBRANCH   5   6
ENDBRANCH   2   5
BRANCH   1  19
HETATM   19  C   UNL     1      -5.697   1.043 -33.251  1.00  0.00     0.102 A 
HETATM   20  N   UNL     1      -6.628   0.262 -33.903  1.00  0.00    -0.351 N 
HETATM   21  C   UNL     1      -6.158  -1.014 -34.098  1.00  0.00     0.043 A 
HETATM   22  H   UNL     1      -7.534   0.603 -34.195  1.00  0.00     0.166 HD
HETATM   23  C   UNL     1      -6.762  -2.115 -34.716  1.00  0.00     0.037 A 
HETATM   24  C   UNL     1      -4.881  -1.063 -33.547  1.00  0.00    -0.007 A 
HETATM   25  C   UNL     1      -6.040  -3.318 -34.768  1.00  0.00    -0.060 A 
HETATM   26  C   UNL     1      -6.629  -4.527 -35.437  1.00  0.00     0.048 C 
HETATM   27  C   UNL     1      -4.752  -3.386 -34.224  1.00  0.00     0.007 A 
HETATM   28  C   UNL     1      -4.164  -2.273 -33.611  1.00  0.00     0.014 A 
HETATM   29  C   UNL     1      -4.601   0.230 -33.019  1.00  0.00     0.049 A 
ENDBRANCH   1  19
TORSDOF 4
ENDMDL
MODEL 6
REMARK VINA RESULT:      -8.7      4.663      8.387
REMARK  4 active torsions:
REMARK  status: ('A' for Active; 'I' for Inactive)
REMARK    1  A    between atoms: C_10  and  C_11 
REMARK       I    between atoms: C_11  and  N_12 
REMARK    2  A    between atoms: N_12  and  C_13 
REMARK    3  A    between atoms: C_13  and  C_14 
REMARK    4  A    between atoms: C_16  and  C_17 
ROOT
HETATM    1  C   UNL     1      -8.736   2.732 -32.723  1.00  0.00     0.268 C 
HETATM    2  N   UNL     1      -7.776   2.345 -33.623  1.00  0.00    -0.351 N 
HETATM    3  O   UNL     1      -8.496   3.462 -31.766  1.00  0.00    -0.266 OA
HETATM    4  H   UNL     1      -8.033   1.778 -34.416  1.00  0.00     0.163 HD
ENDROOT
BRANCH   2   5
HETATM    5  C   UNL     1      -6.405   2.789 -33.533  1.00  0.00     0.161 C 
BRANCH   5   6
HETATM    6  C   UNL     1      -5.512   1.682 -33.035  1.00  0.00    -0.040 A 
HETATM    7  C   UNL     1      -5.597   0.391 -33.581  1.00  0.00     0.024 A 
HETATM    8  C   UNL     1      -4.779  -0.649 -33.112  1.00  0.00     0.014 A 
HETATM    9  C   UNL     1      -3.862  -0.379 -32.086  1.00  0.00     0.015 A 
HETATM   10  C   UNL     1      -3.769   0.901 -31.536  1.00  0.00     0.002 A 
HETATM   11  C   UNL     1      -4.591   1.924 -32.006  1.00  0.00     0.009 A 
BRANCH   8  12
HETATM   12  C   UNL     1      -4.893  -1.989 -33.683  1.00  0.00     0.181 A 
HETATM   13  N   UNL     1      -3.952  -2.941 -33.571  1.00  0.00    -0.152 NA
HETATM   14  N   UNL     1      -4.508  -3.966 -34.231  1.00  0.00    -0.263 N 
HETATM   15  H   UNL     1      -4.003  -4.842 -34.303  1.00  0.00     0.190 HD
HETATM   16  C   UNL     1      -5.736  -3.639 -34.722  1.00  0.00     0.118 A 
HETATM   17  C   UNL     1      -6.580  -4.574 -35.494  1.00  0.00     0.093 C 
HETATM   18  N   UNL     1      -6.004  -2.395 -34.395  1.00  0.00    -0.212 NA
ENDBRANCH   8  12
ENDBRANCH   5   6
ENDBRANCH   2   5
BRANCH   1  19
HETATM   19  C   UNL     1     -10.067   2.227 -32.979  1.00  0.00     0.102 A 
HETATM   20  N   UNL     1     -11.177   2.879 -32.483  1.00  0.00    -0.351 N 
HETATM   21  C   UNL     1     -12.335   2.237 -32.847  1.00  0.00     0.043 A 
HETATM   22  H   UNL     1     -11.125   3.723 -31.928  1.00  0.00     0.166 HD
HETATM   23  C   UNL     1     -13.671   2.555 -32.570  1.00  0.00     0.037 A 
HETATM   24  C   UNL     1     -11.964   1.126 -33.598  1.00  0.00    -0.007 A 
HETATM   25  C   UNL     1     -14.667   1.703 -33.072  1.00  0.00    -0.060 A 
HETATM   26  C   UNL     1     -16.117   2.005 -32.825  1.00  0.00     0.048 C 
HETATM   27  C   UNL     1     -14.313   0.584 -33.834  1.00  0.00     0.007 A 
HETATM   28  C   UNL     1     -12.971   0.283 -34.102  1.00  0.00     0.014 A 
HETATM   29  C   UNL     1     -10.541   1.129 -33.675  1.00  0.00     0.049 A 
ENDBRANCH   1  19
TORSDOF 4
ENDMDL
MODEL 7
REMARK VINA RESULT:      -8.7      1.698      2.616
REMARK  4 active torsions:
REMARK  status: ('A' for Active; 'I' for Inactive)
REMARK    1  A    between atoms: C_10  and  C_11 
REMARK       I    between atoms: C_11  and  N_12 
REMARK    2  A    between atoms: N_12  and  C_13 
REMARK    3  A    between atoms: C_13  and  C_14 
REMARK    4  A    between atoms: C_16  and  C_17 
ROOT
HETATM    1  C   UNL     1      -7.263   1.409 -33.795  1.00  0.00     0.268 C 
HETATM    2  N   UNL     1      -6.349   2.361 -34.168  1.00  0.00    -0.351 N 
HETATM    3  O   UNL     1      -8.353   1.689 -33.305  1.00  0.00    -0.266 OA
HETATM    4  H   UNL     1      -5.485   2.081 -34.605  1.00  0.00     0.163 HD
ENDROOT
BRANCH   2   5
HETATM    5  C   UNL     1      -6.605   3.776 -34.038  1.00  0.00     0.161 C 
BRANCH   5   6
HETATM    6  C   UNL     1      -5.867   4.351 -32.858  1.00  0.00    -0.040 A 
HETATM    7  C   UNL     1      -4.613   4.961 -33.023  1.00  0.00     0.024 A 
HETATM    8  C   UNL     1      -3.912   5.486 -31.925  1.00  0.00     0.014 A 
HETATM    9  C   UNL     1      -4.488   5.398 -30.650  1.00  0.00     0.015 A 
HETATM   10  C   UNL     1      -5.735   4.794 -30.474  1.00  0.00     0.002 A 
HETATM   11  C   UNL     1      -6.418   4.272 -31.571  1.00  0.00     0.009 A 
BRANCH   8  12
HETATM   12  C   UNL     1      -2.602   6.103 -32.117  1.00  0.00     0.181 A 
HETATM   13  N   UNL     1      -2.257   6.824 -33.197  1.00  0.00    -0.152 NA
HETATM   14  N   UNL     1      -0.997   7.177 -32.910  1.00  0.00    -0.263 N 
HETATM   15  H   UNL     1      -0.478   7.746 -33.569  1.00  0.00     0.190 HD
HETATM   16  C   UNL     1      -0.600   6.683 -31.702  1.00  0.00     0.118 A 
HETATM   17  C   UNL     1       0.741   6.913 -31.129  1.00  0.00     0.093 C 
HETATM   18  N   UNL     1      -1.593   5.998 -31.180  1.00  0.00    -0.212 NA
ENDBRANCH   8  12
ENDBRANCH   5   6
ENDBRANCH   2   5
BRANCH   1  19
HETATM   19  C   UNL     1      -6.863   0.039 -34.026  1.00  0.00     0.102 A 
HETATM   20  N   UNL     1      -5.616  -0.407 -33.643  1.00  0.00    -0.351 N 
HETATM   21  C   UNL     1      -5.445  -1.735 -33.949  1.00  0.00     0.043 A 
HETATM   22  H   UNL     1      -4.928   0.183 -33.192  1.00  0.00     0.166 HD
HETATM   23  C   UNL     1      -4.350  -2.579 -33.733  1.00  0.00     0.037 A 
HETATM   24  C   UNL     1      -6.621  -2.164 -34.558  1.00  0.00    -0.007 A 
HETATM   25  C   UNL     1      -4.452  -3.912 -34.162  1.00  0.00    -0.060 A 
HETATM   26  C   UNL     1      -3.317  -4.869 -33.938  1.00  0.00     0.048 C 
HETATM   27  C   UNL     1      -5.628  -4.363 -34.771  1.00  0.00     0.007 A 
HETATM   28  C   UNL     1      -6.715  -3.504 -34.978  1.00  0.00     0.014 A 
HETATM   29  C   UNL     1      -7.503  -1.046 -34.601  1.00  0.00     0.049 A 
ENDBRANCH   1  19
TORSDOF 4
ENDMDL
MODEL 8
REMARK VINA RESULT:      -8.6      2.451      9.894
REMARK  4 active torsions:
REMARK  status: ('A' for Active; 'I' for Inactive)
REMARK    1  A    between atoms: C_10  and  C_11 
REMARK       I    between atoms: C_11  and  N_12 
REMARK    2  A    between atoms: N_12  and  C_13 
REMARK    3  A    between atoms: C_13  and  C_14 
REMARK    4  A    between atoms: C_16  and  C_17 
ROOT
HETATM    1  C   UNL     1      -1.307   5.503 -31.945  1.00  0.00     0.268 C 
HETATM    2  N   UNL     1      -2.169   4.470 -31.674  1.00  0.00    -0.351 N 
HETATM    3  O   UNL     1      -0.963   5.802 -33.084  1.00  0.00    -0.266 OA
HETATM    4  H   UNL     1      -2.453   4.292 -30.724  1.00  0.00     0.163 HD
ENDROOT
BRANCH   2   5
HETATM    5  C   UNL     1      -2.763   3.664 -32.714  1.00  0.00     0.161 C 
BRANCH   5   6
HETATM    6  C   UNL     1      -3.601   2.559 -32.127  1.00  0.00    -0.040 A 
HETATM    7  C   UNL     1      -3.613   1.280 -32.707  1.00  0.00     0.024 A 
HETATM    8  C   UNL     1      -4.403   0.249 -32.174  1.00  0.00     0.014 A 
HETATM    9  C   UNL     1      -5.184   0.513 -31.040  1.00  0.00     0.015 A 
HETATM   10  C   UNL     1      -5.181   1.781 -30.454  1.00  0.00     0.002 A 
HETATM   11  C   UNL     1      -4.396   2.797 -30.996  1.00  0.00     0.009 A 
BRANCH   8  12
HETATM   12  C   UNL     1      -4.412  -1.070 -32.802  1.00  0.00     0.181 A 
HETATM   13  N   UNL     1      -3.564  -2.063 -32.485  1.00  0.00    -0.152 NA
HETATM   14  N   UNL     1      -3.965  -3.047 -33.300  1.00  0.00    -0.263 N 
HETATM   15  H   UNL     1      -3.488  -3.942 -33.271  1.00  0.00     0.190 HD
HETATM   16  C   UNL     1      -5.014  -2.658 -34.078  1.00  0.00     0.118 A 
HETATM   17  C   UNL     1      -5.662  -3.538 -35.072  1.00  0.00     0.093 C 
HETATM   18  N   UNL     1      -5.315  -1.412 -33.787  1.00  0.00    -0.212 NA
ENDBRANCH   8  12
ENDBRANCH   5   6
ENDBRANCH   2   5
BRANCH   1  19
HETATM   19  C   UNL     1      -0.831   6.233 -30.791  1.00  0.00     0.102 A 
HETATM   20  N   UNL     1      -1.646   6.435 -29.696  1.00  0.00    -0.351 N 
HETATM   21  C   UNL     1      -0.997   7.143 -28.716  1.00  0.00     0.043 A 
HETATM   22  H   UNL     1      -2.597   6.095 -29.641  1.00  0.00     0.166 HD
HETATM   23  C   UNL     1      -1.441   7.557 -27.454  1.00  0.00     0.037 A 
HETATM   24  C   UNL     1       0.282   7.416 -29.192  1.00  0.00    -0.007 A 
HETATM   25  C   UNL     1      -0.551   8.285 -26.649  1.00  0.00    -0.060 A 
HETATM   26  C   UNL     1      -0.965   8.736 -25.278  1.00  0.00     0.048 C 
HETATM   27  C   UNL     1       0.741   8.564 -27.109  1.00  0.00     0.007 A 
HETATM   28  C   UNL     1       1.168   8.141 -28.374  1.00  0.00     0.014 A 
HETATM   29  C   UNL     1       0.376   6.842 -30.493  1.00  0.00     0.049 A 
ENDBRANCH   1  19
TORSDOF 4
ENDMDL
MODEL 9
REMARK VINA RESULT:      -8.5      6.463      9.633
REMARK  4 active torsions:
REMARK  status: ('A' for Active; 'I' for Inactive)
REMARK    1  A    between atoms: C_10  and  C_11 
REMARK       I    between atoms: C_11  and  N_12 
REMARK    2  A    between atoms: N_12  and  C_13 
REMARK    3  A    between atoms: C_13  and  C_14 
REMARK    4  A    between atoms: C_16  and  C_17 
ROOT
HETATM    1  C   UNL     1      -9.934   2.339 -34.539  1.00  0.00     0.268 C 
HETATM    2  N   UNL     1     -11.041   1.701 -35.039  1.00  0.00    -0.351 N 
HETATM    3  O   UNL     1      -9.878   3.555 -34.388  1.00  0.00    -0.266 OA
HETATM    4  H   UNL     1     -11.052   0.695 -35.104  1.00  0.00     0.163 HD
ENDROOT
BRANCH   2   5
HETATM    5  C   UNL     1     -12.245   2.409 -35.406  1.00  0.00     0.161 C 
BRANCH   5   6
HETATM    6  C   UNL     1     -13.260   2.359 -34.294  1.00  0.00    -0.040 A 
HETATM    7  C   UNL     1     -13.240   3.307 -33.259  1.00  0.00     0.024 A 
HETATM    8  C   UNL     1     -14.174   3.257 -32.212  1.00  0.00     0.014 A 
HETATM    9  C   UNL     1     -15.140   2.242 -32.215  1.00  0.00     0.015 A 
HETATM   10  C   UNL     1     -15.170   1.293 -33.239  1.00  0.00     0.002 A 
HETATM   11  C   UNL     1     -14.234   1.349 -34.270  1.00  0.00     0.009 A 
BRANCH   8  12
HETATM   12  C   UNL     1     -14.126   4.246 -31.137  1.00  0.00     0.181 A 
HETATM   13  N   UNL     1     -13.238   4.224 -30.129  1.00  0.00    -0.152 NA
HETATM   14  N   UNL     1     -13.581   5.313 -29.428  1.00  0.00    -0.263 N 
HETATM   15  H   UNL     1     -13.059   5.549 -28.591  1.00  0.00     0.190 HD
HETATM   16  C   UNL     1     -14.637   5.962 -29.994  1.00  0.00     0.118 A 
HETATM   17  C   UNL     1     -15.230   7.194 -29.435  1.00  0.00     0.093 C 
HETATM   18  N   UNL     1     -15.005   5.309 -31.073  1.00  0.00    -0.212 NA
ENDBRANCH   8  12
ENDBRANCH   5   6
ENDBRANCH   2   5
BRANCH   1  19
HETATM   19  C   UNL     1      -8.827   1.478 -34.187  1.00  0.00     0.102 A 
HETATM   20  N   UNL     1      -8.446   0.443 -35.016  1.00  0.00    -0.351 N 
HETATM   21  C   UNL     1      -7.375  -0.242 -34.497  1.00  0.00     0.043 A 
HETATM   22  H   UNL     1      -8.907   0.232 -35.891  1.00  0.00     0.166 HD
HETATM   23  C   UNL     1      -6.673  -1.342 -35.005  1.00  0.00     0.037 A 
HETATM   24  C   UNL     1      -7.053   0.366 -33.287  1.00  0.00    -0.007 A 
HETATM   25  C   UNL     1      -5.606  -1.848 -34.246  1.00  0.00    -0.060 A 
HETATM   26  C   UNL     1      -4.803  -3.013 -34.751  1.00  0.00     0.048 C 
HETATM   27  C   UNL     1      -5.264  -1.248 -33.030  1.00  0.00     0.007 A 
HETATM   28  C   UNL     1      -5.977  -0.147 -32.538  1.00  0.00     0.014 A 
HETATM   29  C   UNL     1      -7.968   1.441 -33.102  1.00  0.00     0.049 A 
ENDBRANCH   1  19
TORSDOF 4
ENDMDL
MODEL 10
REMARK VINA RESULT:      -8.5      4.685      8.059
REMARK  4 active torsions:
REMARK  status: ('A' for Active; 'I' for Inactive)
REMARK    1  A    between atoms: C_10  and  C_11 
REMARK       I    between atoms: C_11  and  N_12 
REMARK    2  A    between atoms: N_12  and  C_13 
REMARK    3  A    between atoms: C_13  and  C_14 
REMARK    4  A    between atoms: C_16  and  C_17 
ROOT
HETATM    1  C   UNL     1      -5.970   2.190 -33.232  1.00  0.00     0.268 C 
HETATM    2  N   UNL     1      -7.078   2.849 -33.702  1.00  0.00    -0.351 N 
HETATM    3  O   UNL     1      -5.101   2.741 -32.563  1.00  0.00    -0.266 OA
HETATM    4  H   UNL     1      -7.784   2.341 -34.211  1.00  0.00     0.163 HD
ENDROOT
BRANCH   2   5
HETATM    5  C   UNL     1      -7.326   4.244 -33.424  1.00  0.00     0.161 C 
BRANCH   5   6
HETATM    6  C   UNL     1      -8.796   4.559 -33.516  1.00  0.00    -0.040 A 
HETATM    7  C   UNL     1      -9.758   3.550 -33.352  1.00  0.00     0.024 A 
HETATM    8  C   UNL     1     -11.130   3.833 -33.451  1.00  0.00     0.014 A 
HETATM    9  C   UNL     1     -11.532   5.150 -33.713  1.00  0.00     0.015 A 
HETATM   10  C   UNL     1     -10.584   6.162 -33.878  1.00  0.00     0.002 A 
HETATM   11  C   UNL     1      -9.225   5.867 -33.784  1.00  0.00     0.009 A 
BRANCH   8  12
HETATM   12  C   UNL     1     -12.115   2.765 -33.291  1.00  0.00     0.181 A 
HETATM   13  N   UNL     1     -13.316   2.925 -32.711  1.00  0.00    -0.152 NA
HETATM   14  N   UNL     1     -13.844   1.698 -32.812  1.00  0.00    -0.263 N 
HETATM   15  H   UNL     1     -14.774   1.527 -32.447  1.00  0.00     0.190 HD
HETATM   16  C   UNL     1     -12.989   0.833 -33.427  1.00  0.00     0.118 A 
HETATM   17  C   UNL     1     -13.305  -0.588 -33.673  1.00  0.00     0.093 C 
HETATM   18  N   UNL     1     -11.887   1.479 -33.738  1.00  0.00    -0.212 NA
ENDBRANCH   8  12
ENDBRANCH   5   6
ENDBRANCH   2   5
BRANCH   1  19
HETATM   19  C   UNL     1      -5.892   0.786 -33.570  1.00  0.00     0.102 A 
HETATM   20  N   UNL     1      -4.777   0.042 -33.246  1.00  0.00    -0.351 N 
HETATM   21  C   UNL     1      -4.914  -1.262 -33.652  1.00  0.00     0.043 A 
HETATM   22  H   UNL     1      -3.972   0.425 -32.768  1.00  0.00     0.166 HD
HETATM   23  C   UNL     1      -4.038  -2.347 -33.521  1.00  0.00     0.037 A 
HETATM   24  C   UNL     1      -6.158  -1.367 -34.267  1.00  0.00    -0.007 A 
HETATM   25  C   UNL     1      -4.442  -3.585 -34.043  1.00  0.00    -0.060 A 
HETATM   26  C   UNL     1      -3.552  -4.789 -33.913  1.00  0.00     0.048 C 
HETATM   27  C   UNL     1      -5.691  -3.712 -34.660  1.00  0.00     0.007 A 
HETATM   28  C   UNL     1      -6.555  -2.615 -34.781  1.00  0.00     0.014 A 
HETATM   29  C   UNL     1      -6.763  -0.079 -34.210  1.00  0.00     0.049 A 
ENDBRANCH   1  19
TORSDOF 4
ENDMDL
