MODEL 1
REMARK VINA RESULT:      -9.2      0.000      0.000
REMARK  5 active torsions:
REMARK  status: ('A' for Active; 'I' for Inactive)
REMARK    1  A    between atoms: O_2  and  C_3 
REMARK    2  A    between atoms: C_4  and  N_5 
REMARK    3  A    between atoms: N_5  and  C_6 
REMARK    4  A    between atoms: C_6  and  C_7 
REMARK    5  A    between atoms: C_15  and  C_16 
ROOT
HETATM    1  C   UNL     1      -4.785   1.618 -32.704  1.00  0.00     0.120 A 
HETATM    2  N   UNL     1      -4.157   0.486 -32.638  1.00  0.00    -0.233 NA
HETATM    3  C   UNL     1      -4.687  -0.606 -33.342  1.00  0.00     0.075 A 
HETATM    4  C   UNL     1      -5.830  -0.507 -34.135  1.00  0.00     0.061 A 
HETATM    5  C   UNL     1      -6.493   0.806 -34.207  1.00  0.00     0.259 A 
HETATM    6  O   UNL     1      -7.508   0.989 -34.868  1.00  0.00    -0.267 OA
HETATM    7  N   UNL     1      -5.910   1.803 -33.470  1.00  0.00    -0.310 N 
HETATM    8  C   UNL     1      -4.065  -1.850 -33.212  1.00  0.00     0.048 A 
HETATM    9  C   UNL     1      -4.572  -2.985 -33.867  1.00  0.00     0.050 A 
HETATM   10  C   UNL     1      -5.720  -2.855 -34.668  1.00  0.00     0.017 A 
HETATM   11  C   UNL     1      -6.350  -1.618 -34.805  1.00  0.00     0.020 A 
HETATM   12  H   UNL     1      -6.407   2.683 -33.451  1.00  0.00     0.170 HD
ENDROOT
BRANCH   1  13
HETATM   13  C   UNL     1      -4.316   2.834 -31.910  1.00  0.00     0.171 C 
BRANCH  13  14
HETATM   14  N   UNL     1      -2.848   2.997 -31.941  1.00  0.00    -0.284 NA
HETATM   15  H   UNL     1      -2.460   2.234 -32.501  1.00  0.00     0.128 HD
BRANCH  14  16
HETATM   16  C   UNL     1      -2.424   4.196 -32.570  1.00  0.00     0.042 A 
HETATM   17  C   UNL     1      -1.355   4.948 -32.043  1.00  0.00     0.089 A 
HETATM   18  C   UNL     1      -0.898   6.081 -32.721  1.00  0.00     0.038 A 
HETATM   19  C   UNL     1      -1.515   6.483 -33.909  1.00  0.00     0.003 A 
HETATM   20  C   UNL     1      -2.586   5.756 -34.423  1.00  0.00     0.002 A 
HETATM   21  C   UNL     1      -3.037   4.617 -33.756  1.00  0.00     0.026 A 
BRANCH  17  22
HETATM   22  O   UNL     1      -0.801   4.471 -30.879  1.00  0.00    -0.354 OA
HETATM   23  C   UNL     1       0.270   5.259 -30.364  1.00  0.00     0.210 C 
ENDBRANCH  17  22
ENDBRANCH  14  16
ENDBRANCH  13  14
ENDBRANCH   1  13
BRANCH   9  24
HETATM   24  C   UNL     1      -3.921  -4.336 -33.691  1.00  0.00     0.417 C 
HETATM   25  F   UNL     1      -3.346  -4.512 -32.469  1.00  0.00    -0.166 F 
HETATM   26  F   UNL     1      -4.809  -5.358 -33.839  1.00  0.00    -0.166 F 
HETATM   27  F   UNL     1      -2.936  -4.561 -34.603  1.00  0.00    -0.166 F 
ENDBRANCH   9  24
TORSDOF 5
ENDMDL
MODEL 2
REMARK VINA RESULT:      -8.8      1.581      2.425
REMARK  5 active torsions:
REMARK  status: ('A' for Active; 'I' for Inactive)
REMARK    1  A    between atoms: O_2  and  C_3 
REMARK    2  A    between atoms: C_4  and  N_5 
REMARK    3  A    between atoms: N_5  and  C_6 
REMARK    4  A    between atoms: C_6  and  C_7 
REMARK    5  A    between atoms: C_15  and  C_16 
ROOT
HETATM    1  C   UNL     1      -4.235   1.882 -32.323  1.00  0.00     0.120 A 
HETATM    2  N   UNL     1      -4.111   0.633 -32.648  1.00  0.00    -0.233 NA
HETATM    3  C   UNL     1      -5.122   0.049 -33.426  1.00  0.00     0.075 A 
HETATM    4  C   UNL     1      -6.222   0.768 -33.893  1.00  0.00     0.061 A 
HETATM    5  C   UNL     1      -6.306   2.191 -33.527  1.00  0.00     0.259 A 
HETATM    6  O   UNL     1      -7.239   2.902 -33.881  1.00  0.00    -0.267 OA
HETATM    7  N   UNL     1      -5.281   2.663 -32.750  1.00  0.00    -0.310 N 
HETATM    8  C   UNL     1      -5.039  -1.316 -33.712  1.00  0.00     0.048 A 
HETATM    9  C   UNL     1      -6.040  -1.961 -34.459  1.00  0.00     0.050 A 
HETATM   10  C   UNL     1      -7.134  -1.211 -34.925  1.00  0.00     0.017 A 
HETATM   11  C   UNL     1      -7.227   0.153 -34.646  1.00  0.00     0.020 A 
HETATM   12  H   UNL     1      -5.376   3.616 -32.429  1.00  0.00     0.170 HD
ENDROOT
BRANCH   1  13
HETATM   13  C   UNL     1      -3.218   2.572 -31.419  1.00  0.00     0.171 C 
BRANCH  13  14
HETATM   14  N   UNL     1      -3.522   4.003 -31.215  1.00  0.00    -0.284 NA
HETATM   15  H   UNL     1      -3.501   4.187 -30.209  1.00  0.00     0.128 HD
BRANCH  14  16
HETATM   16  C   UNL     1      -2.561   4.874 -31.789  1.00  0.00     0.042 A 
HETATM   17  C   UNL     1      -2.837   5.564 -32.987  1.00  0.00     0.089 A 
HETATM   18  C   UNL     1      -1.912   6.480 -33.494  1.00  0.00     0.038 A 
HETATM   19  C   UNL     1      -0.703   6.696 -32.828  1.00  0.00     0.003 A 
HETATM   20  C   UNL     1      -0.415   6.001 -31.656  1.00  0.00     0.002 A 
HETATM   21  C   UNL     1      -1.341   5.095 -31.140  1.00  0.00     0.026 A 
BRANCH  17  22
HETATM   22  O   UNL     1      -4.055   5.299 -33.566  1.00  0.00    -0.354 OA
HETATM   23  C   UNL     1      -4.021   5.152 -34.983  1.00  0.00     0.210 C 
ENDBRANCH  17  22
ENDBRANCH  14  16
ENDBRANCH  13  14
ENDBRANCH   1  13
BRANCH   9  24
HETATM   24  C   UNL     1      -5.969  -3.444 -34.731  1.00  0.00     0.417 C 
HETATM   25  F   UNL     1      -5.028  -4.092 -33.990  1.00  0.00    -0.166 F 
HETATM   26  F   UNL     1      -7.149  -4.072 -34.471  1.00  0.00    -0.166 F 
HETATM   27  F   UNL     1      -5.676  -3.721 -36.031  1.00  0.00    -0.166 F 
ENDBRANCH   9  24
TORSDOF 5
ENDMDL
MODEL 3
REMARK VINA RESULT:      -8.5      4.332      7.832
REMARK  5 active torsions:
REMARK  status: ('A' for Active; 'I' for Inactive)
REMARK    1  A    between atoms: O_2  and  C_3 
REMARK    2  A    between atoms: C_4  and  N_5 
REMARK    3  A    between atoms: N_5  and  C_6 
REMARK    4  A    between atoms: C_6  and  C_7 
REMARK    5  A    between atoms: C_15  and  C_16 
ROOT
HETATM    1  C   UNL     1      -4.880   3.339 -32.789  1.00  0.00     0.120 A 
HETATM    2  N   UNL     1      -3.914   3.579 -31.959  1.00  0.00    -0.233 NA
HETATM    3  C   UNL     1      -2.918   4.488 -32.348  1.00  0.00     0.075 A 
HETATM    4  C   UNL     1      -2.954   5.167 -33.566  1.00  0.00     0.061 A 
HETATM    5  C   UNL     1      -4.086   4.888 -34.464  1.00  0.00     0.259 A 
HETATM    6  O   UNL     1      -4.199   5.427 -35.558  1.00  0.00    -0.267 OA
HETATM    7  N   UNL     1      -4.995   3.973 -34.003  1.00  0.00    -0.310 N 
HETATM    8  C   UNL     1      -1.830   4.692 -31.496  1.00  0.00     0.048 A 
HETATM    9  C   UNL     1      -0.787   5.565 -31.849  1.00  0.00     0.050 A 
HETATM   10  C   UNL     1      -0.853   6.243 -33.078  1.00  0.00     0.017 A 
HETATM   11  C   UNL     1      -1.934   6.048 -33.937  1.00  0.00     0.020 A 
HETATM   12  H   UNL     1      -5.728   3.718 -34.649  1.00  0.00     0.170 HD
ENDROOT
BRANCH   1  13
HETATM   13  C   UNL     1      -5.962   2.311 -32.473  1.00  0.00     0.171 C 
BRANCH  13  14
HETATM   14  N   UNL     1      -5.400   1.002 -32.081  1.00  0.00    -0.284 NA
HETATM   15  H   UNL     1      -5.887   0.692 -31.238  1.00  0.00     0.128 HD
BRANCH  14  16
HETATM   16  C   UNL     1      -5.608  -0.016 -33.047  1.00  0.00     0.042 A 
HETATM   17  C   UNL     1      -4.776  -1.153 -33.087  1.00  0.00     0.089 A 
HETATM   18  C   UNL     1      -5.046  -2.184 -33.991  1.00  0.00     0.038 A 
HETATM   19  C   UNL     1      -6.126  -2.078 -34.872  1.00  0.00     0.003 A 
HETATM   20  C   UNL     1      -6.937  -0.946 -34.852  1.00  0.00     0.002 A 
HETATM   21  C   UNL     1      -6.679   0.079 -33.942  1.00  0.00     0.026 A 
BRANCH  17  22
HETATM   22  O   UNL     1      -3.747  -1.178 -32.176  1.00  0.00    -0.354 OA
HETATM   23  C   UNL     1      -3.170  -2.464 -31.966  1.00  0.00     0.210 C 
ENDBRANCH  17  22
ENDBRANCH  14  16
ENDBRANCH  13  14
ENDBRANCH   1  13
BRANCH   9  24
HETATM   24  C   UNL     1       0.407   5.750 -30.945  1.00  0.00     0.417 C 
HETATM   25  F   UNL     1       1.358   4.786 -31.087  1.00  0.00    -0.166 F 
HETATM   26  F   UNL     1       1.040   6.936 -31.165  1.00  0.00    -0.166 F 
HETATM   27  F   UNL     1       0.067   5.747 -29.627  1.00  0.00    -0.166 F 
ENDBRANCH   9  24
TORSDOF 5
ENDMDL
MODEL 4
REMARK VINA RESULT:      -8.5      3.881      7.249
REMARK  5 active torsions:
REMARK  status: ('A' for Active; 'I' for Inactive)
REMARK    1  A    between atoms: O_2  and  C_3 
REMARK    2  A    between atoms: C_4  and  N_5 
REMARK    3  A    between atoms: N_5  and  C_6 
REMARK    4  A    between atoms: C_6  and  C_7 
REMARK    5  A    between atoms: C_15  and  C_16 
ROOT
HETATM    1  C   UNL     1      -7.832   1.104 -33.125  1.00  0.00     0.120 A 
HETATM    2  N   UNL     1      -7.966  -0.117 -33.539  1.00  0.00    -0.233 NA
HETATM    3  C   UNL     1      -6.808  -0.889 -33.706  1.00  0.00     0.075 A 
HETATM    4  C   UNL     1      -5.533  -0.409 -33.404  1.00  0.00     0.061 A 
HETATM    5  C   UNL     1      -5.430   0.973 -32.906  1.00  0.00     0.259 A 
HETATM    6  O   UNL     1      -4.354   1.486 -32.624  1.00  0.00    -0.267 OA
HETATM    7  N   UNL     1      -6.615   1.650 -32.796  1.00  0.00    -0.310 N 
HETATM    8  C   UNL     1      -6.934  -2.178 -34.229  1.00  0.00     0.048 A 
HETATM    9  C   UNL     1      -5.804  -2.985 -34.449  1.00  0.00     0.050 A 
HETATM   10  C   UNL     1      -4.532  -2.479 -34.127  1.00  0.00     0.017 A 
HETATM   11  C   UNL     1      -4.393  -1.194 -33.604  1.00  0.00     0.020 A 
HETATM   12  H   UNL     1      -6.542   2.624 -32.533  1.00  0.00     0.170 HD
ENDROOT
BRANCH   1  13
HETATM   13  C   UNL     1      -9.035   2.033 -32.988  1.00  0.00     0.171 C 
BRANCH  13  14
HETATM   14  N   UNL     1      -9.740   2.239 -34.271  1.00  0.00    -0.284 NA
HETATM   15  H   UNL     1      -9.262   1.682 -34.983  1.00  0.00     0.128 HD
BRANCH  14  16
HETATM   16  C   UNL     1     -11.083   1.783 -34.258  1.00  0.00     0.042 A 
HETATM   17  C   UNL     1     -12.085   2.471 -34.971  1.00  0.00     0.089 A 
HETATM   18  C   UNL     1     -13.386   1.962 -35.015  1.00  0.00     0.038 A 
HETATM   19  C   UNL     1     -13.700   0.784 -34.332  1.00  0.00     0.003 A 
HETATM   20  C   UNL     1     -12.719   0.112 -33.607  1.00  0.00     0.002 A 
HETATM   21  C   UNL     1     -11.417   0.610 -33.572  1.00  0.00     0.026 A 
BRANCH  17  22
HETATM   22  O   UNL     1     -11.682   3.613 -35.623  1.00  0.00    -0.354 OA
HETATM   23  C   UNL     1     -12.598   4.701 -35.535  1.00  0.00     0.210 C 
ENDBRANCH  17  22
ENDBRANCH  14  16
ENDBRANCH  13  14
ENDBRANCH   1  13
BRANCH   9  24
HETATM   24  C   UNL     1      -5.941  -4.361 -35.054  1.00  0.00     0.417 C 
HETATM   25  F   UNL     1      -7.136  -4.958 -34.792  1.00  0.00    -0.166 F 
HETATM   26  F   UNL     1      -5.820  -4.342 -36.410  1.00  0.00    -0.166 F 
HETATM   27  F   UNL     1      -4.987  -5.223 -34.605  1.00  0.00    -0.166 F 
ENDBRANCH   9  24
TORSDOF 5
ENDMDL
MODEL 5
REMARK VINA RESULT:      -8.3      3.599      5.050
REMARK  5 active torsions:
REMARK  status: ('A' for Active; 'I' for Inactive)
REMARK    1  A    between atoms: O_2  and  C_3 
REMARK    2  A    between atoms: C_4  and  N_5 
REMARK    3  A    between atoms: N_5  and  C_6 
REMARK    4  A    between atoms: C_6  and  C_7 
REMARK    5  A    between atoms: C_15  and  C_16 
ROOT
HETATM    1  C   UNL     1      -7.912   0.899 -32.715  1.00  0.00     0.120 A 
HETATM    2  N   UNL     1      -8.029  -0.303 -33.186  1.00  0.00    -0.233 NA
HETATM    3  C   UNL     1      -6.858  -1.001 -33.515  1.00  0.00     0.075 A 
HETATM    4  C   UNL     1      -5.584  -0.469 -33.316  1.00  0.00     0.061 A 
HETATM    5  C   UNL     1      -5.497   0.887 -32.749  1.00  0.00     0.259 A 
HETATM    6  O   UNL     1      -4.423   1.441 -32.547  1.00  0.00    -0.267 OA
HETATM    7  N   UNL     1      -6.695   1.492 -32.479  1.00  0.00    -0.310 N 
HETATM    8  C   UNL     1      -6.976  -2.264 -34.099  1.00  0.00     0.048 A 
HETATM    9  C   UNL     1      -5.837  -2.995 -34.480  1.00  0.00     0.050 A 
HETATM   10  C   UNL     1      -4.565  -2.440 -34.260  1.00  0.00     0.017 A 
HETATM   11  C   UNL     1      -4.435  -1.179 -33.677  1.00  0.00     0.020 A 
HETATM   12  H   UNL     1      -6.642   2.452 -32.167  1.00  0.00     0.170 HD
ENDROOT
BRANCH   1  13
HETATM   13  C   UNL     1      -9.137   1.753 -32.401  1.00  0.00     0.171 C 
BRANCH  13  14
HETATM   14  N   UNL     1      -9.349   1.926 -30.949  1.00  0.00    -0.284 NA
HETATM   15  H   UNL     1      -8.587   1.449 -30.463  1.00  0.00     0.128 HD
BRANCH  14  16
HETATM   16  C   UNL     1      -9.295   3.279 -30.526  1.00  0.00     0.042 A 
HETATM   17  C   UNL     1      -8.127   3.804 -29.938  1.00  0.00     0.089 A 
HETATM   18  C   UNL     1      -8.062   5.159 -29.603  1.00  0.00     0.038 A 
HETATM   19  C   UNL     1      -9.164   5.989 -29.829  1.00  0.00     0.003 A 
HETATM   20  C   UNL     1     -10.329   5.471 -30.389  1.00  0.00     0.002 A 
HETATM   21  C   UNL     1     -10.392   4.122 -30.737  1.00  0.00     0.026 A 
BRANCH  17  22
HETATM   22  O   UNL     1      -7.089   2.918 -29.766  1.00  0.00    -0.354 OA
HETATM   23  C   UNL     1      -5.791   3.501 -29.845  1.00  0.00     0.210 C 
ENDBRANCH  17  22
ENDBRANCH  14  16
ENDBRANCH  13  14
ENDBRANCH   1  13
BRANCH   9  24
HETATM   24  C   UNL     1      -5.969  -4.342 -35.150  1.00  0.00     0.417 C 
HETATM   25  F   UNL     1      -4.995  -5.226 -34.799  1.00  0.00    -0.166 F 
HETATM   26  F   UNL     1      -7.152  -4.949 -34.855  1.00  0.00    -0.166 F 
HETATM   27  F   UNL     1      -5.922  -4.254 -36.508  1.00  0.00    -0.166 F 
ENDBRANCH   9  24
TORSDOF 5
ENDMDL
MODEL 6
REMARK VINA RESULT:      -8.1      4.487      7.872
REMARK  5 active torsions:
REMARK  status: ('A' for Active; 'I' for Inactive)
REMARK    1  A    between atoms: O_2  and  C_3 
REMARK    2  A    between atoms: C_4  and  N_5 
REMARK    3  A    between atoms: N_5  and  C_6 
REMARK    4  A    between atoms: C_6  and  C_7 
REMARK    5  A    between atoms: C_15  and  C_16 
ROOT
HETATM    1  C   UNL     1      -4.003   1.591 -31.285  1.00  0.00     0.120 A 
HETATM    2  N   UNL     1      -3.120   2.245 -31.974  1.00  0.00    -0.233 NA
HETATM    3  C   UNL     1      -3.201   3.645 -31.992  1.00  0.00     0.075 A 
HETATM    4  C   UNL     1      -4.161   4.353 -31.268  1.00  0.00     0.061 A 
HETATM    5  C   UNL     1      -5.123   3.571 -30.475  1.00  0.00     0.259 A 
HETATM    6  O   UNL     1      -6.008   4.103 -29.815  1.00  0.00    -0.267 OA
HETATM    7  N   UNL     1      -4.974   2.212 -30.537  1.00  0.00    -0.310 N 
HETATM    8  C   UNL     1      -2.306   4.355 -32.795  1.00  0.00     0.048 A 
HETATM    9  C   UNL     1      -2.361   5.757 -32.878  1.00  0.00     0.050 A 
HETATM   10  C   UNL     1      -3.333   6.446 -32.132  1.00  0.00     0.017 A 
HETATM   11  C   UNL     1      -4.232   5.748 -31.325  1.00  0.00     0.020 A 
HETATM   12  H   UNL     1      -5.681   1.670 -30.061  1.00  0.00     0.170 HD
ENDROOT
BRANCH   1  13
HETATM   13  C   UNL     1      -4.030   0.065 -31.273  1.00  0.00     0.171 C 
BRANCH  13  14
HETATM   14  N   UNL     1      -5.403  -0.475 -31.204  1.00  0.00    -0.284 NA
HETATM   15  H   UNL     1      -5.976   0.191 -30.682  1.00  0.00     0.128 HD
BRANCH  14  16
HETATM   16  C   UNL     1      -6.023  -0.610 -32.473  1.00  0.00     0.042 A 
HETATM   17  C   UNL     1      -7.113   0.207 -32.834  1.00  0.00     0.089 A 
HETATM   18  C   UNL     1      -7.658   0.117 -34.117  1.00  0.00     0.038 A 
HETATM   19  C   UNL     1      -7.139  -0.799 -35.036  1.00  0.00     0.003 A 
HETATM   20  C   UNL     1      -6.076  -1.624 -34.678  1.00  0.00     0.002 A 
HETATM   21  C   UNL     1      -5.521  -1.528 -33.402  1.00  0.00     0.026 A 
BRANCH  17  22
HETATM   22  O   UNL     1      -7.550   1.087 -31.871  1.00  0.00    -0.354 OA
HETATM   23  C   UNL     1      -8.960   1.092 -31.666  1.00  0.00     0.210 C 
ENDBRANCH  17  22
ENDBRANCH  14  16
ENDBRANCH  13  14
ENDBRANCH   1  13
BRANCH   9  24
HETATM   24  C   UNL     1      -1.420   6.518 -33.780  1.00  0.00     0.417 C 
HETATM   25  F   UNL     1      -1.978   7.623 -34.347  1.00  0.00    -0.166 F 
HETATM   26  F   UNL     1      -0.313   6.953 -33.119  1.00  0.00    -0.166 F 
HETATM   27  F   UNL     1      -0.964   5.759 -34.815  1.00  0.00    -0.166 F 
ENDBRANCH   9  24
TORSDOF 5
ENDMDL
MODEL 7
REMARK VINA RESULT:      -8.1      4.282      7.933
REMARK  5 active torsions:
REMARK  status: ('A' for Active; 'I' for Inactive)
REMARK    1  A    between atoms: O_2  and  C_3 
REMARK    2  A    between atoms: C_4  and  N_5 
REMARK    3  A    between atoms: N_5  and  C_6 
REMARK    4  A    between atoms: C_6  and  C_7 
REMARK    5  A    between atoms: C_15  and  C_16 
ROOT
HETATM    1  C   UNL     1      -5.285   3.752 -32.670  1.00  0.00     0.120 A 
HETATM    2  N   UNL     1      -4.323   3.931 -31.820  1.00  0.00    -0.233 NA
HETATM    3  C   UNL     1      -3.170   4.600 -32.259  1.00  0.00     0.075 A 
HETATM    4  C   UNL     1      -3.041   5.110 -33.551  1.00  0.00     0.061 A 
HETATM    5  C   UNL     1      -4.172   4.911 -34.473  1.00  0.00     0.259 A 
HETATM    6  O   UNL     1      -4.148   5.314 -35.629  1.00  0.00    -0.267 OA
HETATM    7  N   UNL     1      -5.243   4.232 -33.956  1.00  0.00    -0.310 N 
HETATM    8  C   UNL     1      -2.095   4.726 -31.376  1.00  0.00     0.048 A 
HETATM    9  C   UNL     1      -0.903   5.356 -31.772  1.00  0.00     0.050 A 
HETATM   10  C   UNL     1      -0.803   5.870 -33.077  1.00  0.00     0.017 A 
HETATM   11  C   UNL     1      -1.870   5.750 -33.967  1.00  0.00     0.020 A 
HETATM   12  H   UNL     1      -5.986   4.022 -34.609  1.00  0.00     0.170 HD
ENDROOT
BRANCH   1  13
HETATM   13  C   UNL     1      -6.541   2.971 -32.294  1.00  0.00     0.171 C 
BRANCH  13  14
HETATM   14  N   UNL     1      -6.233   1.705 -31.597  1.00  0.00    -0.284 NA
HETATM   15  H   UNL     1      -6.973   1.536 -30.913  1.00  0.00     0.128 HD
BRANCH  14  16
HETATM   16  C   UNL     1      -6.228   0.574 -32.454  1.00  0.00     0.042 A 
HETATM   17  C   UNL     1      -7.427  -0.094 -32.773  1.00  0.00     0.089 A 
HETATM   18  C   UNL     1      -7.415  -1.155 -33.682  1.00  0.00     0.038 A 
HETATM   19  C   UNL     1      -6.210  -1.569 -34.258  1.00  0.00     0.003 A 
HETATM   20  C   UNL     1      -5.019  -0.927 -33.929  1.00  0.00     0.002 A 
HETATM   21  C   UNL     1      -5.030   0.140 -33.032  1.00  0.00     0.026 A 
BRANCH  17  22
HETATM   22  O   UNL     1      -8.564   0.390 -32.170  1.00  0.00    -0.354 OA
HETATM   23  C   UNL     1      -9.731   0.353 -32.986  1.00  0.00     0.210 C 
ENDBRANCH  17  22
ENDBRANCH  14  16
ENDBRANCH  13  14
ENDBRANCH   1  13
BRANCH   9  24
HETATM   24  C   UNL     1       0.272   5.454 -30.829  1.00  0.00     0.417 C 
HETATM   25  F   UNL     1      -0.019   5.085 -29.551  1.00  0.00    -0.166 F 
HETATM   26  F   UNL     1       1.312   4.665 -31.219  1.00  0.00    -0.166 F 
HETATM   27  F   UNL     1       0.771   6.718 -30.749  1.00  0.00    -0.166 F 
ENDBRANCH   9  24
TORSDOF 5
ENDMDL
MODEL 8
REMARK VINA RESULT:      -8.0      3.445      4.193
REMARK  5 active torsions:
REMARK  status: ('A' for Active; 'I' for Inactive)
REMARK    1  A    between atoms: O_2  and  C_3 
REMARK    2  A    between atoms: C_4  and  N_5 
REMARK    3  A    between atoms: N_5  and  C_6 
REMARK    4  A    between atoms: C_6  and  C_7 
REMARK    5  A    between atoms: C_15  and  C_16 
ROOT
HETATM    1  C   UNL     1      -4.453   2.283 -31.843  1.00  0.00     0.120 A 
HETATM    2  N   UNL     1      -5.745   2.384 -31.860  1.00  0.00    -0.233 NA
HETATM    3  C   UNL     1      -6.482   1.355 -32.463  1.00  0.00     0.075 A 
HETATM    4  C   UNL     1      -5.882   0.217 -33.003  1.00  0.00     0.061 A 
HETATM    5  C   UNL     1      -4.414   0.128 -32.934  1.00  0.00     0.259 A 
HETATM    6  O   UNL     1      -3.796  -0.827 -33.389  1.00  0.00    -0.267 OA
HETATM    7  N   UNL     1      -3.785   1.191 -32.343  1.00  0.00    -0.310 N 
HETATM    8  C   UNL     1      -7.868   1.493 -32.559  1.00  0.00     0.048 A 
HETATM    9  C   UNL     1      -8.653   0.508 -33.184  1.00  0.00     0.050 A 
HETATM   10  C   UNL     1      -8.024  -0.633 -33.711  1.00  0.00     0.017 A 
HETATM   11  C   UNL     1      -6.640  -0.783 -33.620  1.00  0.00     0.020 A 
HETATM   12  H   UNL     1      -2.775   1.173 -32.366  1.00  0.00     0.170 HD
ENDROOT
BRANCH   1  13
HETATM   13  C   UNL     1      -3.576   3.393 -31.272  1.00  0.00     0.171 C 
BRANCH  13  14
HETATM   14  N   UNL     1      -2.275   3.498 -31.963  1.00  0.00    -0.284 NA
HETATM   15  H   UNL     1      -2.355   3.009 -32.857  1.00  0.00     0.128 HD
BRANCH  14  16
HETATM   16  C   UNL     1      -1.908   4.832 -32.281  1.00  0.00     0.042 A 
HETATM   17  C   UNL     1      -0.787   5.435 -31.677  1.00  0.00     0.089 A 
HETATM   18  C   UNL     1      -0.392   6.718 -32.063  1.00  0.00     0.038 A 
HETATM   19  C   UNL     1      -1.122   7.414 -33.031  1.00  0.00     0.003 A 
HETATM   20  C   UNL     1      -2.244   6.832 -33.615  1.00  0.00     0.002 A 
HETATM   21  C   UNL     1      -2.634   5.546 -33.241  1.00  0.00     0.026 A 
BRANCH  17  22
HETATM   22  O   UNL     1      -0.122   4.672 -30.747  1.00  0.00    -0.354 OA
HETATM   23  C   UNL     1       0.307   5.385 -29.590  1.00  0.00     0.210 C 
ENDBRANCH  17  22
ENDBRANCH  14  16
ENDBRANCH  13  14
ENDBRANCH   1  13
BRANCH   9  24
HETATM   24  C   UNL     1     -10.146   0.681 -33.323  1.00  0.00     0.417 C 
HETATM   25  F   UNL     1     -10.865  -0.394 -32.895  1.00  0.00    -0.166 F 
HETATM   26  F   UNL     1     -10.610   1.748 -32.615  1.00  0.00    -0.166 F 
HETATM   27  F   UNL     1     -10.527   0.894 -34.613  1.00  0.00    -0.166 F 
ENDBRANCH   9  24
TORSDOF 5
ENDMDL
MODEL 9
REMARK VINA RESULT:      -7.8      3.533      4.511
REMARK  5 active torsions:
REMARK  status: ('A' for Active; 'I' for Inactive)
REMARK    1  A    between atoms: O_2  and  C_3 
REMARK    2  A    between atoms: C_4  and  N_5 
REMARK    3  A    between atoms: N_5  and  C_6 
REMARK    4  A    between atoms: C_6  and  C_7 
REMARK    5  A    between atoms: C_15  and  C_16 
ROOT
HETATM    1  C   UNL     1      -4.080   2.009 -32.125  1.00  0.00     0.120 A 
HETATM    2  N   UNL     1      -5.361   2.209 -32.124  1.00  0.00    -0.233 NA
HETATM    3  C   UNL     1      -6.192   1.177 -32.583  1.00  0.00     0.075 A 
HETATM    4  C   UNL     1      -5.697  -0.060 -32.998  1.00  0.00     0.061 A 
HETATM    5  C   UNL     1      -4.238  -0.255 -32.953  1.00  0.00     0.259 A 
HETATM    6  O   UNL     1      -3.709  -1.301 -33.306  1.00  0.00    -0.267 OA
HETATM    7  N   UNL     1      -3.512   0.818 -32.507  1.00  0.00    -0.310 N 
HETATM    8  C   UNL     1      -7.566   1.412 -32.663  1.00  0.00     0.048 A 
HETATM    9  C   UNL     1      -8.443   0.426 -33.147  1.00  0.00     0.050 A 
HETATM   10  C   UNL     1      -7.918  -0.815 -33.550  1.00  0.00     0.017 A 
HETATM   11  C   UNL     1      -6.547  -1.061 -33.474  1.00  0.00     0.020 A 
HETATM   12  H   UNL     1      -2.508   0.718 -32.552  1.00  0.00     0.170 HD
ENDROOT
BRANCH   1  13
HETATM   13  C   UNL     1      -3.104   3.107 -31.711  1.00  0.00     0.171 C 
BRANCH  13  14
HETATM   14  N   UNL     1      -2.364   3.668 -32.859  1.00  0.00    -0.284 NA
HETATM   15  H   UNL     1      -3.004   3.707 -33.656  1.00  0.00     0.128 HD
BRANCH  14  16
HETATM   16  C   UNL     1      -1.921   5.000 -32.652  1.00  0.00     0.042 A 
HETATM   17  C   UNL     1      -2.684   6.093 -33.110  1.00  0.00     0.089 A 
HETATM   18  C   UNL     1      -2.275   7.399 -32.824  1.00  0.00     0.038 A 
HETATM   19  C   UNL     1      -1.097   7.622 -32.105  1.00  0.00     0.003 A 
HETATM   20  C   UNL     1      -0.328   6.546 -31.669  1.00  0.00     0.002 A 
HETATM   21  C   UNL     1      -0.740   5.241 -31.941  1.00  0.00     0.026 A 
BRANCH  17  22
HETATM   22  O   UNL     1      -3.833   5.779 -33.796  1.00  0.00    -0.354 OA
HETATM   23  C   UNL     1      -5.039   6.002 -33.070  1.00  0.00     0.210 C 
ENDBRANCH  17  22
ENDBRANCH  14  16
ENDBRANCH  13  14
ENDBRANCH   1  13
BRANCH   9  24
HETATM   24  C   UNL     1      -9.923   0.698 -33.271  1.00  0.00     0.417 C 
HETATM   25  F   UNL     1     -10.353   1.743 -32.513  1.00  0.00    -0.166 F 
HETATM   26  F   UNL     1     -10.287   0.987 -34.551  1.00  0.00    -0.166 F 
HETATM   27  F   UNL     1     -10.680  -0.370 -32.898  1.00  0.00    -0.166 F 
ENDBRANCH   9  24
TORSDOF 5
ENDMDL
MODEL 10
REMARK VINA RESULT:      -7.7     15.282     16.945
REMARK  5 active torsions:
REMARK  status: ('A' for Active; 'I' for Inactive)
REMARK    1  A    between atoms: O_2  and  C_3 
REMARK    2  A    between atoms: C_4  and  N_5 
REMARK    3  A    between atoms: N_5  and  C_6 
REMARK    4  A    between atoms: C_6  and  C_7 
REMARK    5  A    between atoms: C_15  and  C_16 
ROOT
HETATM    1  C   UNL     1      -4.857 -12.745 -38.339  1.00  0.00     0.120 A 
HETATM    2  N   UNL     1      -3.787 -13.078 -38.990  1.00  0.00    -0.233 NA
HETATM    3  C   UNL     1      -2.728 -13.653 -38.272  1.00  0.00     0.075 A 
HETATM    4  C   UNL     1      -2.802 -13.917 -36.904  1.00  0.00     0.061 A 
HETATM    5  C   UNL     1      -4.049 -13.552 -36.211  1.00  0.00     0.259 A 
HETATM    6  O   UNL     1      -4.205 -13.736 -35.010  1.00  0.00    -0.267 OA
HETATM    7  N   UNL     1      -5.015 -12.980 -36.995  1.00  0.00    -0.310 N 
HETATM    8  C   UNL     1      -1.540 -13.940 -38.948  1.00  0.00     0.048 A 
HETATM    9  C   UNL     1      -0.435 -14.486 -38.272  1.00  0.00     0.050 A 
HETATM   10  C   UNL     1      -0.540 -14.750 -36.896  1.00  0.00     0.017 A 
HETATM   11  C   UNL     1      -1.722 -14.469 -36.209  1.00  0.00     0.020 A 
HETATM   12  H   UNL     1      -5.839 -12.654 -36.509  1.00  0.00     0.170 HD
ENDROOT
BRANCH   1  13
HETATM   13  C   UNL     1      -6.024 -12.048 -39.032  1.00  0.00     0.171 C 
BRANCH  13  14
HETATM   14  N   UNL     1      -7.267 -12.098 -38.235  1.00  0.00    -0.284 NA
HETATM   15  H   UNL     1      -7.592 -11.137 -38.102  1.00  0.00     0.128 HD
BRANCH  14  16
HETATM   16  C   UNL     1      -8.328 -12.782 -38.883  1.00  0.00     0.042 A 
HETATM   17  C   UNL     1      -8.578 -14.143 -38.616  1.00  0.00     0.089 A 
HETATM   18  C   UNL     1      -9.677 -14.778 -39.199  1.00  0.00     0.038 A 
HETATM   19  C   UNL     1     -10.515 -14.071 -40.066  1.00  0.00     0.003 A 
HETATM   20  C   UNL     1     -10.260 -12.732 -40.352  1.00  0.00     0.002 A 
HETATM   21  C   UNL     1      -9.171 -12.091 -39.761  1.00  0.00     0.026 A 
BRANCH  17  22
HETATM   22  O   UNL     1      -7.711 -14.753 -37.741  1.00  0.00    -0.354 OA
HETATM   23  C   UNL     1      -6.951 -15.819 -38.305  1.00  0.00     0.210 C 
ENDBRANCH  17  22
ENDBRANCH  14  16
ENDBRANCH  13  14
ENDBRANCH   1  13
BRANCH   9  24
HETATM   24  C   UNL     1       0.861 -14.754 -38.998  1.00  0.00     0.417 C 
HETATM   25  F   UNL     1       1.906 -14.008 -38.546  1.00  0.00    -0.166 F 
HETATM   26  F   UNL     1       1.253 -16.054 -38.887  1.00  0.00    -0.166 F 
HETATM   27  F   UNL     1       0.772 -14.503 -40.333  1.00  0.00    -0.166 F 
ENDBRANCH   9  24
TORSDOF 5
ENDMDL
