MODEL 1
REMARK VINA RESULT:      -8.9      0.000      0.000
REMARK  4 active torsions:
REMARK  status: ('A' for Active; 'I' for Inactive)
REMARK    1  A    between atoms: C_9  and  C_10 
REMARK    2  A    between atoms: C_17  and  C_18 
REMARK       I    between atoms: C_18  and  N_19 
REMARK    3  A    between atoms: N_19  and  C_20 
REMARK    4  A    between atoms: C_23  and  O_24 
ROOT
HETATM    1  C   UNL     1      -5.853   1.340 -29.492  1.00  0.00     0.070 C 
HETATM    2  C   UNL     1      -5.624   2.684 -30.139  1.00  0.00     0.037 C 
HETATM    3  N   UNL     1      -5.457   3.747 -29.255  1.00  0.00    -0.192 N 
HETATM    4  C   UNL     1      -5.487   5.038 -29.638  1.00  0.00     0.725 A 
HETATM    5  N   UNL     1      -5.517   5.341 -30.973  1.00  0.00    -0.084 N 
HETATM    6  N   UNL     1      -5.653   6.670 -31.171  1.00  0.00    -0.149 NA
HETATM    7  C   UNL     1      -5.638   7.109 -29.907  1.00  0.00     0.275 A 
HETATM    8  N   UNL     1      -5.537   6.143 -28.939  1.00  0.00    -0.054 NA
HETATM    9  C   UNL     1      -5.553   4.334 -32.040  1.00  0.00     0.204 C 
HETATM   10  C   UNL     1      -5.658   2.919 -31.476  1.00  0.00     0.062 C 
HETATM   11  H   UNL     1      -5.512   3.547 -28.259  1.00  0.00     0.184 HD
ENDROOT
BRANCH  10  12
HETATM   12  C   UNL     1      -6.003   1.892 -32.496  1.00  0.00     0.256 C 
HETATM   13  N   UNL     1      -5.065   0.894 -32.644  1.00  0.00    -0.323 N 
HETATM   14  H   UNL     1      -4.200   0.992 -32.127  1.00  0.00     0.169 HD
HETATM   15  O   UNL     1      -7.045   2.029 -33.124  1.00  0.00    -0.267 OA
BRANCH  13  16
HETATM   16  C   UNL     1      -5.209  -0.295 -33.394  1.00  0.00     0.035 A 
HETATM   17  C   UNL     1      -6.389  -0.673 -34.033  1.00  0.00     0.032 A 
HETATM   18  C   UNL     1      -6.468  -1.891 -34.718  1.00  0.00     0.039 A 
HETATM   19  C   UNL     1      -5.372  -2.750 -34.780  1.00  0.00     0.068 A 
HETATM   20  C   UNL     1      -4.188  -2.381 -34.144  1.00  0.00     0.039 A 
HETATM   21  C   UNL     1      -4.108  -1.159 -33.459  1.00  0.00     0.032 A 
BRANCH  19  22
HETATM   22  O   UNL     1      -5.591  -3.906 -35.474  1.00  0.00    -0.356 OA
HETATM   23  C   UNL     1      -6.837  -4.557 -35.267  1.00  0.00     0.210 C 
ENDBRANCH  19  22
ENDBRANCH  13  16
ENDBRANCH  10  12
BRANCH   9  24
HETATM   24  C   UNL     1      -4.406   4.542 -33.029  1.00  0.00    -0.006 A 
HETATM   25  C   UNL     1      -3.047   4.327 -32.739  1.00  0.00     0.042 A 
HETATM   26 CL   UNL     1      -2.495   3.698 -31.229  1.00  0.00    -0.084 Cl
HETATM   27  C   UNL     1      -2.059   4.602 -33.695  1.00  0.00     0.024 A 
HETATM   28  C   UNL     1      -2.407   5.076 -34.958  1.00  0.00     0.002 A 
HETATM   29  C   UNL     1      -3.747   5.269 -35.274  1.00  0.00     0.001 A 
HETATM   30  C   UNL     1      -4.734   5.004 -34.321  1.00  0.00     0.011 A 
ENDBRANCH   9  24
TORSDOF 4
ENDMDL
MODEL 2
REMARK VINA RESULT:      -8.8      3.778      7.116
REMARK  4 active torsions:
REMARK  status: ('A' for Active; 'I' for Inactive)
REMARK    1  A    between atoms: C_9  and  C_10 
REMARK    2  A    between atoms: C_17  and  C_18 
REMARK       I    between atoms: C_18  and  N_19 
REMARK    3  A    between atoms: N_19  and  C_20 
REMARK    4  A    between atoms: C_23  and  O_24 
ROOT
HETATM    1  C   UNL     1      -9.319   5.026 -34.593  1.00  0.00     0.070 C 
HETATM    2  C   UNL     1      -9.480   3.577 -34.204  1.00  0.00     0.037 C 
HETATM    3  N   UNL     1     -10.686   2.991 -34.581  1.00  0.00    -0.192 N 
HETATM    4  C   UNL     1     -11.107   1.799 -34.115  1.00  0.00     0.725 A 
HETATM    5  N   UNL     1     -10.256   1.034 -33.364  1.00  0.00    -0.084 N 
HETATM    6  N   UNL     1     -10.874  -0.070 -32.894  1.00  0.00    -0.149 NA
HETATM    7  C   UNL     1     -12.082   0.069 -33.453  1.00  0.00     0.275 A 
HETATM    8  N   UNL     1     -12.265   1.199 -34.209  1.00  0.00    -0.054 NA
HETATM    9  C   UNL     1      -8.896   1.446 -32.995  1.00  0.00     0.204 C 
HETATM   10  C   UNL     1      -8.591   2.867 -33.462  1.00  0.00     0.062 C 
HETATM   11  H   UNL     1     -11.362   3.573 -35.071  1.00  0.00     0.184 HD
ENDROOT
BRANCH  10  12
HETATM   12  C   UNL     1      -7.359   3.444 -32.859  1.00  0.00     0.256 C 
HETATM   13  N   UNL     1      -6.248   3.397 -33.672  1.00  0.00    -0.323 N 
HETATM   14  H   UNL     1      -6.338   2.903 -34.551  1.00  0.00     0.169 HD
HETATM   15  O   UNL     1      -7.422   3.872 -31.713  1.00  0.00    -0.267 OA
BRANCH  13  16
HETATM   16  C   UNL     1      -5.004   4.027 -33.438  1.00  0.00     0.035 A 
HETATM   17  C   UNL     1      -4.642   5.259 -33.981  1.00  0.00     0.032 A 
HETATM   18  C   UNL     1      -3.373   5.796 -33.741  1.00  0.00     0.039 A 
HETATM   19  C   UNL     1      -2.444   5.116 -32.955  1.00  0.00     0.068 A 
HETATM   20  C   UNL     1      -2.797   3.884 -32.408  1.00  0.00     0.039 A 
HETATM   21  C   UNL     1      -4.070   3.346 -32.646  1.00  0.00     0.032 A 
BRANCH  19  22
HETATM   22  O   UNL     1      -1.244   5.753 -32.810  1.00  0.00    -0.356 OA
HETATM   23  C   UNL     1      -1.169   7.099 -33.259  1.00  0.00     0.210 C 
ENDBRANCH  19  22
ENDBRANCH  13  16
ENDBRANCH  10  12
BRANCH   9  24
HETATM   24  C   UNL     1      -7.869   0.400 -33.429  1.00  0.00    -0.006 A 
HETATM   25  C   UNL     1      -6.928  -0.204 -32.576  1.00  0.00     0.042 A 
HETATM   26 CL   UNL     1      -6.870   0.094 -30.876  1.00  0.00    -0.084 Cl
HETATM   27  C   UNL     1      -5.985  -1.111 -33.079  1.00  0.00     0.024 A 
HETATM   28  C   UNL     1      -5.976  -1.447 -34.431  1.00  0.00     0.002 A 
HETATM   29  C   UNL     1      -6.916  -0.883 -35.285  1.00  0.00     0.001 A 
HETATM   30  C   UNL     1      -7.851   0.029 -34.790  1.00  0.00     0.011 A 
ENDBRANCH   9  24
TORSDOF 4
ENDMDL
MODEL 3
REMARK VINA RESULT:      -8.6      3.555      4.776
REMARK  4 active torsions:
REMARK  status: ('A' for Active; 'I' for Inactive)
REMARK    1  A    between atoms: C_9  and  C_10 
REMARK    2  A    between atoms: C_17  and  C_18 
REMARK       I    between atoms: C_18  and  N_19 
REMARK    3  A    between atoms: N_19  and  C_20 
REMARK    4  A    between atoms: C_23  and  O_24 
ROOT
HETATM    1  C   UNL     1     -11.442   0.351 -33.471  1.00  0.00     0.070 C 
HETATM    2  C   UNL     1     -10.644   1.630 -33.533  1.00  0.00     0.037 C 
HETATM    3  N   UNL     1     -11.350   2.749 -33.967  1.00  0.00    -0.192 N 
HETATM    4  C   UNL     1     -10.758   3.907 -34.318  1.00  0.00     0.725 A 
HETATM    5  N   UNL     1      -9.418   4.071 -34.088  1.00  0.00    -0.084 N 
HETATM    6  N   UNL     1      -8.973   5.240 -34.596  1.00  0.00    -0.149 NA
HETATM    7  C   UNL     1     -10.117   5.755 -35.064  1.00  0.00     0.275 A 
HETATM    8  N   UNL     1     -11.232   4.971 -34.913  1.00  0.00    -0.054 NA
HETATM    9  C   UNL     1      -8.555   3.037 -33.505  1.00  0.00     0.204 C 
HETATM   10  C   UNL     1      -9.312   1.730 -33.284  1.00  0.00     0.062 C 
HETATM   11  H   UNL     1     -12.328   2.623 -34.217  1.00  0.00     0.184 HD
ENDROOT
BRANCH  10  12
HETATM   12  C   UNL     1      -8.430   0.569 -32.987  1.00  0.00     0.256 C 
HETATM   13  N   UNL     1      -7.786   0.044 -34.085  1.00  0.00    -0.323 N 
HETATM   14  H   UNL     1      -8.033   0.422 -34.991  1.00  0.00     0.169 HD
HETATM   15  O   UNL     1      -8.372   0.167 -31.831  1.00  0.00    -0.267 OA
BRANCH  13  16
HETATM   16  C   UNL     1      -6.760  -0.929 -34.077  1.00  0.00     0.035 A 
HETATM   17  C   UNL     1      -5.464  -0.688 -33.624  1.00  0.00     0.032 A 
HETATM   18  C   UNL     1      -4.489  -1.690 -33.692  1.00  0.00     0.039 A 
HETATM   19  C   UNL     1      -4.791  -2.948 -34.210  1.00  0.00     0.068 A 
HETATM   20  C   UNL     1      -6.084  -3.198 -34.666  1.00  0.00     0.039 A 
HETATM   21  C   UNL     1      -7.062  -2.195 -34.596  1.00  0.00     0.032 A 
BRANCH  19  22
HETATM   22  O   UNL     1      -3.744  -3.826 -34.223  1.00  0.00    -0.356 OA
HETATM   23  C   UNL     1      -3.996  -5.139 -33.741  1.00  0.00     0.210 C 
ENDBRANCH  19  22
ENDBRANCH  13  16
ENDBRANCH  10  12
BRANCH   9  24
HETATM   24  C   UNL     1      -7.824   3.565 -32.270  1.00  0.00    -0.006 A 
HETATM   25  C   UNL     1      -6.428   3.571 -32.105  1.00  0.00     0.042 A 
HETATM   26 CL   UNL     1      -5.332   3.059 -33.337  1.00  0.00    -0.084 Cl
HETATM   27  C   UNL     1      -5.851   4.022 -30.909  1.00  0.00     0.024 A 
HETATM   28  C   UNL     1      -6.650   4.492 -29.870  1.00  0.00     0.002 A 
HETATM   29  C   UNL     1      -8.031   4.520 -30.024  1.00  0.00     0.001 A 
HETATM   30  C   UNL     1      -8.610   4.063 -31.209  1.00  0.00     0.011 A 
ENDBRANCH   9  24
TORSDOF 4
ENDMDL
MODEL 4
REMARK VINA RESULT:      -8.4      3.782      5.633
REMARK  4 active torsions:
REMARK  status: ('A' for Active; 'I' for Inactive)
REMARK    1  A    between atoms: C_9  and  C_10 
REMARK    2  A    between atoms: C_17  and  C_18 
REMARK       I    between atoms: C_18  and  N_19 
REMARK    3  A    between atoms: N_19  and  C_20 
REMARK    4  A    between atoms: C_23  and  O_24 
ROOT
HETATM    1  C   UNL     1      -7.168   3.909 -29.310  1.00  0.00     0.070 C 
HETATM    2  C   UNL     1      -6.182   3.491 -30.374  1.00  0.00     0.037 C 
HETATM    3  N   UNL     1      -4.918   4.067 -30.270  1.00  0.00    -0.192 N 
HETATM    4  C   UNL     1      -3.997   4.008 -31.251  1.00  0.00     0.725 A 
HETATM    5  N   UNL     1      -4.228   3.213 -32.341  1.00  0.00    -0.084 N 
HETATM    6  N   UNL     1      -3.257   3.358 -33.268  1.00  0.00    -0.149 NA
HETATM    7  C   UNL     1      -2.443   4.213 -32.638  1.00  0.00     0.275 A 
HETATM    8  N   UNL     1      -2.859   4.635 -31.401  1.00  0.00    -0.054 NA
HETATM    9  C   UNL     1      -5.453   2.428 -32.537  1.00  0.00     0.204 C 
HETATM   10  C   UNL     1      -6.472   2.688 -31.431  1.00  0.00     0.062 C 
HETATM   11  H   UNL     1      -4.758   4.722 -29.508  1.00  0.00     0.184 HD
ENDROOT
BRANCH  10  12
HETATM   12  C   UNL     1      -7.831   2.165 -31.734  1.00  0.00     0.256 C 
HETATM   13  N   UNL     1      -8.616   3.012 -32.484  1.00  0.00    -0.323 N 
HETATM   14  H   UNL     1      -8.245   3.933 -32.683  1.00  0.00     0.169 HD
HETATM   15  O   UNL     1      -8.145   1.072 -31.279  1.00  0.00    -0.267 OA
BRANCH  13  16
HETATM   16  C   UNL     1      -9.866   2.707 -33.070  1.00  0.00     0.035 A 
HETATM   17  C   UNL     1     -10.046   1.744 -34.062  1.00  0.00     0.032 A 
HETATM   18  C   UNL     1     -11.309   1.533 -34.627  1.00  0.00     0.039 A 
HETATM   19  C   UNL     1     -12.413   2.275 -34.211  1.00  0.00     0.068 A 
HETATM   20  C   UNL     1     -12.243   3.239 -33.219  1.00  0.00     0.039 A 
HETATM   21  C   UNL     1     -10.978   3.451 -32.652  1.00  0.00     0.032 A 
BRANCH  19  22
HETATM   22  O   UNL     1     -13.580   1.969 -34.851  1.00  0.00    -0.356 OA
HETATM   23  C   UNL     1     -14.317   0.860 -34.355  1.00  0.00     0.210 C 
ENDBRANCH  19  22
ENDBRANCH  13  16
ENDBRANCH  10  12
BRANCH   9  24
HETATM   24  C   UNL     1      -5.127   0.952 -32.767  1.00  0.00    -0.006 A 
HETATM   25  C   UNL     1      -5.683   0.156 -33.784  1.00  0.00     0.042 A 
HETATM   26 CL   UNL     1      -6.755   0.777 -34.987  1.00  0.00    -0.084 Cl
HETATM   27  C   UNL     1      -5.367  -1.207 -33.879  1.00  0.00     0.024 A 
HETATM   28  C   UNL     1      -4.481  -1.793 -32.979  1.00  0.00     0.002 A 
HETATM   29  C   UNL     1      -3.899  -1.018 -31.984  1.00  0.00     0.001 A 
HETATM   30  C   UNL     1      -4.218   0.338 -31.879  1.00  0.00     0.011 A 
ENDBRANCH   9  24
TORSDOF 4
ENDMDL
MODEL 5
REMARK VINA RESULT:      -8.4      3.417      7.139
REMARK  4 active torsions:
REMARK  status: ('A' for Active; 'I' for Inactive)
REMARK    1  A    between atoms: C_9  and  C_10 
REMARK    2  A    between atoms: C_17  and  C_18 
REMARK       I    between atoms: C_18  and  N_19 
REMARK    3  A    between atoms: N_19  and  C_20 
REMARK    4  A    between atoms: C_23  and  O_24 
ROOT
HETATM    1  C   UNL     1      -7.993   5.003 -34.082  1.00  0.00     0.070 C 
HETATM    2  C   UNL     1      -8.115   3.562 -33.649  1.00  0.00     0.037 C 
HETATM    3  N   UNL     1      -9.295   2.927 -34.029  1.00  0.00    -0.192 N 
HETATM    4  C   UNL     1      -9.686   1.737 -33.532  1.00  0.00     0.725 A 
HETATM    5  N   UNL     1      -8.824   1.023 -32.744  1.00  0.00    -0.084 N 
HETATM    6  N   UNL     1      -9.416  -0.085 -32.249  1.00  0.00    -0.149 NA
HETATM    7  C   UNL     1     -10.617  -0.003 -32.833  1.00  0.00     0.275 A 
HETATM    8  N   UNL     1     -10.823   1.097 -33.627  1.00  0.00    -0.054 NA
HETATM    9  C   UNL     1      -7.485   1.490 -32.364  1.00  0.00     0.204 C 
HETATM   10  C   UNL     1      -7.217   2.905 -32.870  1.00  0.00     0.062 C 
HETATM   11  H   UNL     1      -9.979   3.471 -34.548  1.00  0.00     0.184 HD
ENDROOT
BRANCH  10  12
HETATM   12  C   UNL     1      -6.015   3.540 -32.265  1.00  0.00     0.256 C 
HETATM   13  N   UNL     1      -4.990   3.786 -33.152  1.00  0.00    -0.323 N 
HETATM   14  H   UNL     1      -5.102   3.440 -34.096  1.00  0.00     0.169 HD
HETATM   15  O   UNL     1      -6.021   3.756 -31.060  1.00  0.00    -0.267 OA
BRANCH  13  16
HETATM   16  C   UNL     1      -3.819   4.537 -32.900  1.00  0.00     0.035 A 
HETATM   17  C   UNL     1      -2.623   3.984 -32.446  1.00  0.00     0.032 A 
HETATM   18  C   UNL     1      -1.519   4.801 -32.175  1.00  0.00     0.039 A 
HETATM   19  C   UNL     1      -1.589   6.181 -32.353  1.00  0.00     0.068 A 
HETATM   20  C   UNL     1      -2.781   6.744 -32.806  1.00  0.00     0.039 A 
HETATM   21  C   UNL     1      -3.887   5.925 -33.081  1.00  0.00     0.032 A 
BRANCH  19  22
HETATM   22  O   UNL     1      -0.443   6.856 -32.043  1.00  0.00    -0.356 OA
HETATM   23  C   UNL     1       0.311   6.373 -30.939  1.00  0.00     0.210 C 
ENDBRANCH  19  22
ENDBRANCH  13  16
ENDBRANCH  10  12
BRANCH   9  24
HETATM   24  C   UNL     1      -6.418   0.464 -32.748  1.00  0.00    -0.006 A 
HETATM   25  C   UNL     1      -6.223  -0.045 -34.044  1.00  0.00     0.042 A 
HETATM   26 CL   UNL     1      -7.118   0.504 -35.415  1.00  0.00    -0.084 Cl
HETATM   27  C   UNL     1      -5.256  -1.029 -34.288  1.00  0.00     0.024 A 
HETATM   28  C   UNL     1      -4.456  -1.508 -33.253  1.00  0.00     0.002 A 
HETATM   29  C   UNL     1      -4.614  -0.999 -31.970  1.00  0.00     0.001 A 
HETATM   30  C   UNL     1      -5.583  -0.024 -31.721  1.00  0.00     0.011 A 
ENDBRANCH   9  24
TORSDOF 4
ENDMDL
MODEL 6
REMARK VINA RESULT:      -8.3      4.127      6.119
REMARK  4 active torsions:
REMARK  status: ('A' for Active; 'I' for Inactive)
REMARK    1  A    between atoms: C_9  and  C_10 
REMARK    2  A    between atoms: C_17  and  C_18 
REMARK       I    between atoms: C_18  and  N_19 
REMARK    3  A    between atoms: N_19  and  C_20 
REMARK    4  A    between atoms: C_23  and  O_24 
ROOT
HETATM    1  C   UNL     1      -7.427  -1.897 -34.160  1.00  0.00     0.070 C 
HETATM    2  C   UNL     1      -6.619  -0.886 -33.383  1.00  0.00     0.037 C 
HETATM    3  N   UNL     1      -5.251  -1.141 -33.323  1.00  0.00    -0.192 N 
HETATM    4  C   UNL     1      -4.416  -0.498 -32.483  1.00  0.00     0.725 A 
HETATM    5  N   UNL     1      -4.879   0.572 -31.767  1.00  0.00    -0.084 N 
HETATM    6  N   UNL     1      -3.945   1.025 -30.903  1.00  0.00    -0.149 NA
HETATM    7  C   UNL     1      -2.924   0.214 -31.200  1.00  0.00     0.275 A 
HETATM    8  N   UNL     1      -3.170  -0.732 -32.163  1.00  0.00    -0.054 NA
HETATM    9  C   UNL     1      -6.264   1.059 -31.823  1.00  0.00     0.204 C 
HETATM   10  C   UNL     1      -7.139   0.164 -32.697  1.00  0.00     0.062 C 
HETATM   11  H   UNL     1      -4.905  -1.978 -33.786  1.00  0.00     0.184 HD
ENDROOT
BRANCH  10  12
HETATM   12  C   UNL     1      -8.597   0.425 -32.549  1.00  0.00     0.256 C 
HETATM   13  N   UNL     1      -9.249   0.712 -33.728  1.00  0.00    -0.323 N 
HETATM   14  H   UNL     1      -8.681   0.810 -34.559  1.00  0.00     0.169 HD
HETATM   15  O   UNL     1      -9.078   0.396 -31.423  1.00  0.00    -0.267 OA
BRANCH  13  16
HETATM   16  C   UNL     1     -10.646   0.818 -33.915  1.00  0.00     0.035 A 
HETATM   17  C   UNL     1     -11.575  -0.057 -33.354  1.00  0.00     0.032 A 
HETATM   18  C   UNL     1     -12.941   0.086 -33.624  1.00  0.00     0.039 A 
HETATM   19  C   UNL     1     -13.403   1.104 -34.456  1.00  0.00     0.068 A 
HETATM   20  C   UNL     1     -12.482   1.985 -35.021  1.00  0.00     0.039 A 
HETATM   21  C   UNL     1     -11.114   1.843 -34.748  1.00  0.00     0.032 A 
BRANCH  19  22
HETATM   22  O   UNL     1     -14.757   1.122 -34.638  1.00  0.00    -0.356 OA
HETATM   23  C   UNL     1     -15.557   1.427 -33.504  1.00  0.00     0.210 C 
ENDBRANCH  19  22
ENDBRANCH  13  16
ENDBRANCH  10  12
BRANCH   9  24
HETATM   24  C   UNL     1      -6.308   2.543 -32.187  1.00  0.00    -0.006 A 
HETATM   25  C   UNL     1      -6.848   3.553 -31.371  1.00  0.00     0.042 A 
HETATM   26 CL   UNL     1      -7.457   3.257 -29.783  1.00  0.00    -0.084 Cl
HETATM   27  C   UNL     1      -6.899   4.882 -31.816  1.00  0.00     0.024 A 
HETATM   28  C   UNL     1      -6.396   5.229 -33.068  1.00  0.00     0.002 A 
HETATM   29  C   UNL     1      -5.834   4.250 -33.878  1.00  0.00     0.001 A 
HETATM   30  C   UNL     1      -5.790   2.924 -33.442  1.00  0.00     0.011 A 
ENDBRANCH   9  24
TORSDOF 4
ENDMDL
MODEL 7
REMARK VINA RESULT:      -8.1      1.781      2.254
REMARK  4 active torsions:
REMARK  status: ('A' for Active; 'I' for Inactive)
REMARK    1  A    between atoms: C_9  and  C_10 
REMARK    2  A    between atoms: C_17  and  C_18 
REMARK       I    between atoms: C_18  and  N_19 
REMARK    3  A    between atoms: N_19  and  C_20 
REMARK    4  A    between atoms: C_23  and  O_24 
ROOT
HETATM    1  C   UNL     1      -8.110   2.425 -30.740  1.00  0.00     0.070 C 
HETATM    2  C   UNL     1      -7.317   3.632 -31.180  1.00  0.00     0.037 C 
HETATM    3  N   UNL     1      -7.619   4.815 -30.510  1.00  0.00    -0.192 N 
HETATM    4  C   UNL     1      -7.200   6.027 -30.925  1.00  0.00     0.725 A 
HETATM    5  N   UNL     1      -6.300   6.109 -31.953  1.00  0.00    -0.084 N 
HETATM    6  N   UNL     1      -6.075   7.393 -32.306  1.00  0.00    -0.149 NA
HETATM    7  C   UNL     1      -6.830   8.031 -31.404  1.00  0.00     0.275 A 
HETATM    8  N   UNL     1      -7.534   7.231 -30.540  1.00  0.00    -0.054 NA
HETATM    9  C   UNL     1      -5.773   4.944 -32.674  1.00  0.00     0.204 C 
HETATM   10  C   UNL     1      -6.428   3.648 -32.206  1.00  0.00     0.062 C 
HETATM   11  H   UNL     1      -8.344   4.784 -29.797  1.00  0.00     0.184 HD
ENDROOT
BRANCH  10  12
HETATM   12  C   UNL     1      -6.164   2.487 -33.099  1.00  0.00     0.256 C 
HETATM   13  N   UNL     1      -5.625   1.389 -32.465  1.00  0.00    -0.323 N 
HETATM   14  H   UNL     1      -5.375   1.494 -31.490  1.00  0.00     0.169 HD
HETATM   15  O   UNL     1      -6.409   2.608 -34.293  1.00  0.00    -0.267 OA
BRANCH  13  16
HETATM   16  C   UNL     1      -5.445   0.100 -33.017  1.00  0.00     0.035 A 
HETATM   17  C   UNL     1      -4.206  -0.527 -33.142  1.00  0.00     0.032 A 
HETATM   18  C   UNL     1      -4.105  -1.787 -33.743  1.00  0.00     0.039 A 
HETATM   19  C   UNL     1      -5.235  -2.442 -34.229  1.00  0.00     0.068 A 
HETATM   20  C   UNL     1      -6.477  -1.823 -34.108  1.00  0.00     0.039 A 
HETATM   21  C   UNL     1      -6.581  -0.562 -33.504  1.00  0.00     0.032 A 
BRANCH  19  22
HETATM   22  O   UNL     1      -4.988  -3.660 -34.797  1.00  0.00    -0.356 OA
HETATM   23  C   UNL     1      -4.107  -4.531 -34.101  1.00  0.00     0.210 C 
ENDBRANCH  19  22
ENDBRANCH  13  16
ENDBRANCH  10  12
BRANCH   9  24
HETATM   24  C   UNL     1      -4.244   4.930 -32.649  1.00  0.00    -0.006 A 
HETATM   25  C   UNL     1      -3.422   4.950 -33.790  1.00  0.00     0.042 A 
HETATM   26 CL   UNL     1      -4.042   5.093 -35.395  1.00  0.00    -0.084 Cl
HETATM   27  C   UNL     1      -2.027   4.874 -33.668  1.00  0.00     0.024 A 
HETATM   28  C   UNL     1      -1.429   4.795 -32.413  1.00  0.00     0.002 A 
HETATM   29  C   UNL     1      -2.222   4.801 -31.272  1.00  0.00     0.001 A 
HETATM   30  C   UNL     1      -3.612   4.868 -31.389  1.00  0.00     0.011 A 
ENDBRANCH   9  24
TORSDOF 4
ENDMDL
MODEL 8
REMARK VINA RESULT:      -8.0      4.881      6.092
REMARK  4 active torsions:
REMARK  status: ('A' for Active; 'I' for Inactive)
REMARK    1  A    between atoms: C_9  and  C_10 
REMARK    2  A    between atoms: C_17  and  C_18 
REMARK       I    between atoms: C_18  and  N_19 
REMARK    3  A    between atoms: N_19  and  C_20 
REMARK    4  A    between atoms: C_23  and  O_24 
ROOT
HETATM    1  C   UNL     1     -12.600  -0.143 -33.539  1.00  0.00     0.070 C 
HETATM    2  C   UNL     1     -11.976   1.224 -33.679  1.00  0.00     0.037 C 
HETATM    3  N   UNL     1     -12.816   2.209 -34.192  1.00  0.00    -0.192 N 
HETATM    4  C   UNL     1     -12.375   3.410 -34.614  1.00  0.00     0.725 A 
HETATM    5  N   UNL     1     -11.073   3.764 -34.386  1.00  0.00    -0.084 N 
HETATM    6  N   UNL     1     -10.777   4.947 -34.967  1.00  0.00    -0.149 NA
HETATM    7  C   UNL     1     -11.971   5.274 -35.476  1.00  0.00     0.275 A 
HETATM    8  N   UNL     1     -12.976   4.361 -35.282  1.00  0.00    -0.054 NA
HETATM    9  C   UNL     1     -10.091   2.893 -33.729  1.00  0.00     0.204 C 
HETATM   10  C   UNL     1     -10.673   1.515 -33.428  1.00  0.00     0.062 C 
HETATM   11  H   UNL     1     -13.766   1.940 -34.440  1.00  0.00     0.184 HD
ENDROOT
BRANCH  10  12
HETATM   12  C   UNL     1      -9.651   0.503 -33.048  1.00  0.00     0.256 C 
HETATM   13  N   UNL     1      -8.565   0.441 -33.893  1.00  0.00    -0.323 N 
HETATM   14  H   UNL     1      -8.597   1.009 -34.730  1.00  0.00     0.169 HD
HETATM   15  O   UNL     1      -9.865  -0.194 -32.064  1.00  0.00    -0.267 OA
BRANCH  13  16
HETATM   16  C   UNL     1      -7.371  -0.285 -33.681  1.00  0.00     0.035 A 
HETATM   17  C   UNL     1      -6.470  -0.016 -32.652  1.00  0.00     0.032 A 
HETATM   18  C   UNL     1      -5.284  -0.751 -32.536  1.00  0.00     0.039 A 
HETATM   19  C   UNL     1      -4.978  -1.765 -33.441  1.00  0.00     0.068 A 
HETATM   20  C   UNL     1      -5.873  -2.041 -34.473  1.00  0.00     0.039 A 
HETATM   21  C   UNL     1      -7.062  -1.306 -34.589  1.00  0.00     0.032 A 
BRANCH  19  22
HETATM   22  O   UNL     1      -3.786  -2.393 -33.214  1.00  0.00    -0.356 OA
HETATM   23  C   UNL     1      -3.142  -2.125 -31.976  1.00  0.00     0.210 C 
ENDBRANCH  19  22
ENDBRANCH  13  16
ENDBRANCH  10  12
BRANCH   9  24
HETATM   24  C   UNL     1      -9.456   3.592 -32.527  1.00  0.00    -0.006 A 
HETATM   25  C   UNL     1     -10.167   4.102 -31.427  1.00  0.00     0.042 A 
HETATM   26 CL   UNL     1     -11.874   3.918 -31.242  1.00  0.00    -0.084 Cl
HETATM   27  C   UNL     1      -9.502   4.782 -30.397  1.00  0.00     0.024 A 
HETATM   28  C   UNL     1      -8.120   4.947 -30.435  1.00  0.00     0.002 A 
HETATM   29  C   UNL     1      -7.395   4.427 -31.500  1.00  0.00     0.001 A 
HETATM   30  C   UNL     1      -8.055   3.757 -32.532  1.00  0.00     0.011 A 
ENDBRANCH   9  24
TORSDOF 4
ENDMDL
MODEL 9
REMARK VINA RESULT:      -7.9      2.439      3.608
REMARK  4 active torsions:
REMARK  status: ('A' for Active; 'I' for Inactive)
REMARK    1  A    between atoms: C_9  and  C_10 
REMARK    2  A    between atoms: C_17  and  C_18 
REMARK       I    between atoms: C_18  and  N_19 
REMARK    3  A    between atoms: N_19  and  C_20 
REMARK    4  A    between atoms: C_23  and  O_24 
ROOT
HETATM    1  C   UNL     1      -3.076   3.689 -32.149  1.00  0.00     0.070 C 
HETATM    2  C   UNL     1      -4.445   3.938 -31.565  1.00  0.00     0.037 C 
HETATM    3  N   UNL     1      -4.481   4.833 -30.499  1.00  0.00    -0.192 N 
HETATM    4  C   UNL     1      -5.556   4.991 -29.702  1.00  0.00     0.725 A 
HETATM    5  N   UNL     1      -6.733   4.377 -30.036  1.00  0.00    -0.084 N 
HETATM    6  N   UNL     1      -7.667   4.554 -29.077  1.00  0.00    -0.149 NA
HETATM    7  C   UNL     1      -6.997   5.337 -28.224  1.00  0.00     0.275 A 
HETATM    8  N   UNL     1      -5.702   5.629 -28.570  1.00  0.00    -0.054 NA
HETATM    9  C   UNL     1      -6.901   3.511 -31.209  1.00  0.00     0.204 C 
HETATM   10  C   UNL     1      -5.582   3.300 -31.947  1.00  0.00     0.062 C 
HETATM   11  H   UNL     1      -3.600   5.237 -30.189  1.00  0.00     0.184 HD
ENDROOT
BRANCH  10  12
HETATM   12  C   UNL     1      -5.625   2.202 -32.950  1.00  0.00     0.256 C 
HETATM   13  N   UNL     1      -5.435   0.942 -32.427  1.00  0.00    -0.323 N 
HETATM   14  H   UNL     1      -5.196   0.879 -31.446  1.00  0.00     0.169 HD
HETATM   15  O   UNL     1      -5.789   2.500 -34.127  1.00  0.00    -0.267 OA
BRANCH  13  16
HETATM   16  C   UNL     1      -5.607  -0.287 -33.105  1.00  0.00     0.035 A 
HETATM   17  C   UNL     1      -4.558  -1.140 -33.447  1.00  0.00     0.032 A 
HETATM   18  C   UNL     1      -4.804  -2.319 -34.160  1.00  0.00     0.039 A 
HETATM   19  C   UNL     1      -6.098  -2.668 -34.542  1.00  0.00     0.068 A 
HETATM   20  C   UNL     1      -7.153  -1.822 -34.205  1.00  0.00     0.039 A 
HETATM   21  C   UNL     1      -6.907  -0.641 -33.488  1.00  0.00     0.032 A 
BRANCH  19  22
HETATM   22  O   UNL     1      -6.191  -3.839 -35.239  1.00  0.00    -0.356 OA
HETATM   23  C   UNL     1      -5.436  -4.941 -34.753  1.00  0.00     0.210 C 
ENDBRANCH  19  22
ENDBRANCH  13  16
ENDBRANCH  10  12
BRANCH   9  24
HETATM   24  C   UNL     1      -8.051   3.999 -32.091  1.00  0.00    -0.006 A 
HETATM   25  C   UNL     1      -9.141   3.209 -32.497  1.00  0.00     0.042 A 
HETATM   26 CL   UNL     1      -9.376   1.583 -31.967  1.00  0.00    -0.084 Cl
HETATM   27  C   UNL     1     -10.120   3.728 -33.357  1.00  0.00     0.024 A 
HETATM   28  C   UNL     1     -10.041   5.043 -33.808  1.00  0.00     0.002 A 
HETATM   29  C   UNL     1      -8.986   5.849 -33.396  1.00  0.00     0.001 A 
HETATM   30  C   UNL     1      -8.004   5.333 -32.547  1.00  0.00     0.011 A 
ENDBRANCH   9  24
TORSDOF 4
ENDMDL
MODEL 10
REMARK VINA RESULT:      -7.8     16.538     18.465
REMARK  4 active torsions:
REMARK  status: ('A' for Active; 'I' for Inactive)
REMARK    1  A    between atoms: C_9  and  C_10 
REMARK    2  A    between atoms: C_17  and  C_18 
REMARK       I    between atoms: C_18  and  N_19 
REMARK    3  A    between atoms: N_19  and  C_20 
REMARK    4  A    between atoms: C_23  and  O_24 
ROOT
HETATM    1  C   UNL     1      -2.484 -13.121 -37.755  1.00  0.00     0.070 C 
HETATM    2  C   UNL     1      -3.864 -13.373 -37.199  1.00  0.00     0.037 C 
HETATM    3  N   UNL     1      -4.103 -12.836 -35.937  1.00  0.00    -0.192 N 
HETATM    4  C   UNL     1      -5.173 -13.161 -35.185  1.00  0.00     0.725 A 
HETATM    5  N   UNL     1      -6.169 -13.923 -35.732  1.00  0.00    -0.084 N 
HETATM    6  N   UNL     1      -7.105 -14.241 -34.812  1.00  0.00    -0.149 NA
HETATM    7  C   UNL     1      -6.633 -13.583 -33.746  1.00  0.00     0.275 A 
HETATM    8  N   UNL     1      -5.453 -12.909 -33.933  1.00  0.00    -0.054 NA
HETATM    9  C   UNL     1      -6.138 -14.453 -37.101  1.00  0.00     0.204 C 
HETATM   10  C   UNL     1      -4.817 -14.135 -37.797  1.00  0.00     0.062 C 
HETATM   11  H   UNL     1      -3.342 -12.334 -35.485  1.00  0.00     0.184 HD
ENDROOT
BRANCH  10  12
HETATM   12  C   UNL     1      -4.606 -14.897 -39.058  1.00  0.00     0.256 C 
HETATM   13  N   UNL     1      -4.572 -14.122 -40.196  1.00  0.00    -0.323 N 
HETATM   14  H   UNL     1      -4.781 -13.137 -40.092  1.00  0.00     0.169 HD
HETATM   15  O   UNL     1      -4.513 -16.116 -38.988  1.00  0.00    -0.267 OA
BRANCH  13  16
HETATM   16  C   UNL     1      -4.208 -14.546 -41.495  1.00  0.00     0.035 A 
HETATM   17  C   UNL     1      -4.982 -14.321 -42.632  1.00  0.00     0.032 A 
HETATM   18  C   UNL     1      -4.575 -14.813 -43.878  1.00  0.00     0.039 A 
HETATM   19  C   UNL     1      -3.391 -15.536 -44.010  1.00  0.00     0.068 A 
HETATM   20  C   UNL     1      -2.611 -15.766 -42.879  1.00  0.00     0.039 A 
HETATM   21  C   UNL     1      -3.017 -15.271 -41.630  1.00  0.00     0.032 A 
BRANCH  19  22
HETATM   22  O   UNL     1      -3.122 -15.962 -45.280  1.00  0.00    -0.356 OA
HETATM   23  C   UNL     1      -4.234 -16.188 -46.135  1.00  0.00     0.210 C 
ENDBRANCH  19  22
ENDBRANCH  13  16
ENDBRANCH  10  12
BRANCH   9  24
HETATM   24  C   UNL     1      -7.384 -14.033 -37.880  1.00  0.00    -0.006 A 
HETATM   25  C   UNL     1      -8.417 -14.903 -38.271  1.00  0.00     0.042 A 
HETATM   26 CL   UNL     1      -8.460 -16.572 -37.832  1.00  0.00    -0.084 Cl
HETATM   27  C   UNL     1      -9.495 -14.435 -39.036  1.00  0.00     0.024 A 
HETATM   28  C   UNL     1      -9.572 -13.095 -39.408  1.00  0.00     0.002 A 
HETATM   29  C   UNL     1      -8.575 -12.214 -39.008  1.00  0.00     0.001 A 
HETATM   30  C   UNL     1      -7.495 -12.677 -38.254  1.00  0.00     0.011 A 
ENDBRANCH   9  24
TORSDOF 4
ENDMDL
