MODEL 1
REMARK VINA RESULT:      -9.7      0.000      0.000
REMARK  8 active torsions:
REMARK  status: ('A' for Active; 'I' for Inactive)
REMARK    1  A    between atoms: C_4  and  S_5 
REMARK    2  A    between atoms: S_5  and  C_6 
REMARK    3  A    between atoms: C_6  and  C_7 
REMARK       I    between atoms: C_7  and  N_8 
REMARK    4  A    between atoms: N_8  and  C_9 
REMARK    5  A    between atoms: C_20  and  C_21 
REMARK    6  A    between atoms: C_27  and  C_28 
REMARK       I    between atoms: C_28  and  N_29 
REMARK    7  A    between atoms: N_29  and  C_30 
REMARK    8  A    between atoms: C_31  and  O_32 
ROOT
HETATM    1  C   UNL     1      -9.542   0.078 -32.415  1.00  0.00     0.069 C 
HETATM    2  C   UNL     1      -8.812   1.216 -31.738  1.00  0.00     0.019 A 
HETATM    3  N   UNL     1      -9.606   2.287 -31.376  1.00  0.00    -0.353 N 
HETATM    4  C   UNL     1      -9.176   3.449 -30.773  1.00  0.00     0.087 A 
HETATM    5  C   UNL     1      -7.872   3.568 -30.440  1.00  0.00     0.055 A 
HETATM    6  C   UNL     1      -7.273   4.860 -29.910  1.00  0.00     0.019 C 
HETATM    7  N   UNL     1      -6.775   5.932 -29.471  1.00  0.00    -0.096 N 
HETATM    8  C   UNL     1      -6.854   2.456 -30.794  1.00  0.00     0.104 A 
HETATM    9  C   UNL     1      -7.476   1.242 -31.495  1.00  0.00     0.046 A 
HETATM   10  H   UNL     1     -10.613   2.181 -31.460  1.00  0.00     0.166 HD
ENDROOT
BRANCH   4  11
HETATM   11  S   UNL     1     -10.349   4.703 -30.456  1.00  0.00    -0.102 SA
BRANCH  11  12
HETATM   12  C   UNL     1     -10.724   5.406 -32.089  1.00  0.00     0.184 C 
BRANCH  12  13
HETATM   13  C   UNL     1     -11.875   4.759 -32.837  1.00  0.00     0.231 C 
HETATM   14  N   UNL     1     -12.258   3.532 -32.324  1.00  0.00    -0.325 N 
HETATM   15  H   UNL     1     -11.647   3.105 -31.637  1.00  0.00     0.169 HD
HETATM   16  O   UNL     1     -12.386   5.322 -33.800  1.00  0.00    -0.272 OA
BRANCH  14  17
HETATM   17  C   UNL     1     -13.308   2.700 -32.790  1.00  0.00     0.056 A 
HETATM   18  C   UNL     1     -13.068   1.870 -33.901  1.00  0.00     0.060 A 
HETATM   19 CL   UNL     1     -11.513   1.830 -34.661  1.00  0.00    -0.082 Cl
HETATM   20  C   UNL     1     -14.080   1.062 -34.429  1.00  0.00     0.026 A 
HETATM   21  C   UNL     1     -15.344   1.057 -33.840  1.00  0.00     0.002 A 
HETATM   22  C   UNL     1     -15.586   1.849 -32.721  1.00  0.00     0.002 A 
HETATM   23  C   UNL     1     -14.573   2.660 -32.197  1.00  0.00     0.031 A 
ENDBRANCH  14  17
ENDBRANCH  12  13
ENDBRANCH  11  12
ENDBRANCH   4  11
BRANCH   8  24
HETATM   24  C   UNL     1      -5.680   3.085 -31.553  1.00  0.00    -0.044 A 
HETATM   25  C   UNL     1      -5.892   3.668 -32.814  1.00  0.00     0.008 A 
HETATM   26  C   UNL     1      -4.822   4.184 -33.546  1.00  0.00     0.001 A 
HETATM   27  C   UNL     1      -3.531   4.136 -33.024  1.00  0.00     0.000 A 
HETATM   28  C   UNL     1      -3.308   3.566 -31.774  1.00  0.00     0.001 A 
HETATM   29  C   UNL     1      -4.373   3.037 -31.046  1.00  0.00     0.008 A 
ENDBRANCH   8  24
BRANCH   9  30
HETATM   30  C   UNL     1      -6.687  -0.005 -31.801  1.00  0.00     0.255 C 
HETATM   31  N   UNL     1      -6.438  -0.270 -33.124  1.00  0.00    -0.321 N 
HETATM   32  H   UNL     1      -6.526   0.454 -33.825  1.00  0.00     0.169 HD
HETATM   33  O   UNL     1      -6.299  -0.720 -30.877  1.00  0.00    -0.268 OA
BRANCH  31  34
HETATM   34  C   UNL     1      -6.093  -1.518 -33.698  1.00  0.00     0.068 A 
HETATM   35  C   UNL     1      -4.719  -1.811 -33.833  1.00  0.00     0.095 A 
HETATM   36  C   UNL     1      -4.319  -2.982 -34.484  1.00  0.00     0.039 A 
HETATM   37  C   UNL     1      -5.274  -3.857 -35.002  1.00  0.00     0.003 A 
HETATM   38  C   UNL     1      -6.630  -3.572 -34.863  1.00  0.00     0.002 A 
HETATM   39  C   UNL     1      -7.041  -2.409 -34.208  1.00  0.00     0.032 A 
BRANCH  35  40
HETATM   40  O   UNL     1      -3.861  -0.885 -33.290  1.00  0.00    -0.354 OA
HETATM   41  C   UNL     1      -3.090  -1.294 -32.167  1.00  0.00     0.210 C 
ENDBRANCH  35  40
ENDBRANCH  31  34
ENDBRANCH   9  30
TORSDOF 8
ENDMDL
MODEL 2
REMARK VINA RESULT:      -9.5      4.584      8.603
REMARK  8 active torsions:
REMARK  status: ('A' for Active; 'I' for Inactive)
REMARK    1  A    between atoms: C_4  and  S_5 
REMARK    2  A    between atoms: S_5  and  C_6 
REMARK    3  A    between atoms: C_6  and  C_7 
REMARK       I    between atoms: C_7  and  N_8 
REMARK    4  A    between atoms: N_8  and  C_9 
REMARK    5  A    between atoms: C_20  and  C_21 
REMARK    6  A    between atoms: C_27  and  C_28 
REMARK       I    between atoms: C_28  and  N_29 
REMARK    7  A    between atoms: N_29  and  C_30 
REMARK    8  A    between atoms: C_31  and  O_32 
ROOT
HETATM    1  C   UNL     1      -2.702   0.296 -30.885  1.00  0.00     0.069 C 
HETATM    2  C   UNL     1      -3.553   1.353 -31.552  1.00  0.00     0.019 A 
HETATM    3  N   UNL     1      -3.029   2.631 -31.520  1.00  0.00    -0.353 N 
HETATM    4  C   UNL     1      -3.623   3.764 -32.033  1.00  0.00     0.087 A 
HETATM    5  C   UNL     1      -4.802   3.647 -32.681  1.00  0.00     0.055 A 
HETATM    6  C   UNL     1      -5.607   4.849 -33.151  1.00  0.00     0.019 C 
HETATM    7  N   UNL     1      -6.274   5.844 -33.539  1.00  0.00    -0.096 N 
HETATM    8  C   UNL     1      -5.522   2.280 -32.788  1.00  0.00     0.104 A 
HETATM    9  C   UNL     1      -4.756   1.120 -32.138  1.00  0.00     0.046 A 
HETATM   10  H   UNL     1      -2.077   2.746 -31.185  1.00  0.00     0.166 HD
ENDROOT
BRANCH   4  11
HETATM   11  S   UNL     1      -2.806   5.294 -31.829  1.00  0.00    -0.102 SA
BRANCH  11  12
HETATM   12  C   UNL     1      -3.473   5.968 -30.280  1.00  0.00     0.184 C 
BRANCH  12  13
HETATM   13  C   UNL     1      -2.577   6.950 -29.548  1.00  0.00     0.231 C 
HETATM   14  N   UNL     1      -1.450   6.374 -28.991  1.00  0.00    -0.325 N 
HETATM   15  H   UNL     1      -1.411   5.361 -28.964  1.00  0.00     0.169 HD
HETATM   16  O   UNL     1      -2.873   8.140 -29.492  1.00  0.00    -0.272 OA
BRANCH  14  17
HETATM   17  C   UNL     1      -0.420   7.031 -28.269  1.00  0.00     0.056 A 
HETATM   18  C   UNL     1      -0.390   6.901 -26.869  1.00  0.00     0.060 A 
HETATM   19 CL   UNL     1      -1.557   5.924 -26.042  1.00  0.00    -0.082 Cl
HETATM   20  C   UNL     1       0.577   7.561 -26.104  1.00  0.00     0.026 A 
HETATM   21  C   UNL     1       1.541   8.349 -26.732  1.00  0.00     0.002 A 
HETATM   22  C   UNL     1       1.541   8.462 -28.120  1.00  0.00     0.002 A 
HETATM   23  C   UNL     1       0.571   7.802 -28.883  1.00  0.00     0.031 A 
ENDBRANCH  14  17
ENDBRANCH  12  13
ENDBRANCH  11  12
ENDBRANCH   4  11
BRANCH   8  24
HETATM   24  C   UNL     1      -6.961   2.439 -32.286  1.00  0.00    -0.044 A 
HETATM   25  C   UNL     1      -7.202   2.795 -30.947  1.00  0.00     0.008 A 
HETATM   26  C   UNL     1      -8.506   2.879 -30.458  1.00  0.00     0.001 A 
HETATM   27  C   UNL     1      -9.585   2.621 -31.301  1.00  0.00     0.000 A 
HETATM   28  C   UNL     1      -9.361   2.272 -32.630  1.00  0.00     0.001 A 
HETATM   29  C   UNL     1      -8.059   2.175 -33.118  1.00  0.00     0.008 A 
ENDBRANCH   8  24
BRANCH   9  30
HETATM   30  C   UNL     1      -5.214  -0.311 -32.248  1.00  0.00     0.255 C 
HETATM   31  N   UNL     1      -4.711  -1.042 -33.295  1.00  0.00    -0.321 N 
HETATM   32  H   UNL     1      -3.883  -0.740 -33.790  1.00  0.00     0.169 HD
HETATM   33  O   UNL     1      -5.997  -0.763 -31.414  1.00  0.00    -0.268 OA
BRANCH  31  34
HETATM   34  C   UNL     1      -5.254  -2.226 -33.852  1.00  0.00     0.068 A 
HETATM   35  C   UNL     1      -4.443  -3.381 -33.832  1.00  0.00     0.095 A 
HETATM   36  C   UNL     1      -4.885  -4.551 -34.458  1.00  0.00     0.039 A 
HETATM   37  C   UNL     1      -6.122  -4.576 -35.104  1.00  0.00     0.003 A 
HETATM   38  C   UNL     1      -6.926  -3.438 -35.116  1.00  0.00     0.002 A 
HETATM   39  C   UNL     1      -6.497  -2.267 -34.489  1.00  0.00     0.032 A 
BRANCH  35  40
HETATM   40  O   UNL     1      -3.244  -3.252 -33.173  1.00  0.00    -0.354 OA
HETATM   41  C   UNL     1      -3.158  -3.808 -31.867  1.00  0.00     0.210 C 
ENDBRANCH  35  40
ENDBRANCH  31  34
ENDBRANCH   9  30
TORSDOF 8
ENDMDL
MODEL 3
REMARK VINA RESULT:      -9.2      2.721      6.811
REMARK  8 active torsions:
REMARK  status: ('A' for Active; 'I' for Inactive)
REMARK    1  A    between atoms: C_4  and  S_5 
REMARK    2  A    between atoms: S_5  and  C_6 
REMARK    3  A    between atoms: C_6  and  C_7 
REMARK       I    between atoms: C_7  and  N_8 
REMARK    4  A    between atoms: N_8  and  C_9 
REMARK    5  A    between atoms: C_20  and  C_21 
REMARK    6  A    between atoms: C_27  and  C_28 
REMARK       I    between atoms: C_28  and  N_29 
REMARK    7  A    between atoms: N_29  and  C_30 
REMARK    8  A    between atoms: C_31  and  O_32 
ROOT
HETATM    1  C   UNL     1      -5.942   2.326 -30.068  1.00  0.00     0.069 C 
HETATM    2  C   UNL     1      -6.748   2.986 -31.165  1.00  0.00     0.019 A 
HETATM    3  N   UNL     1      -6.801   4.365 -31.102  1.00  0.00    -0.353 N 
HETATM    4  C   UNL     1      -7.489   5.190 -31.964  1.00  0.00     0.087 A 
HETATM    5  C   UNL     1      -8.140   4.642 -33.013  1.00  0.00     0.055 A 
HETATM    6  C   UNL     1      -9.046   5.446 -33.932  1.00  0.00     0.019 C 
HETATM    7  N   UNL     1      -9.797   6.112 -34.694  1.00  0.00    -0.096 N 
HETATM    8  C   UNL     1      -8.183   3.107 -33.211  1.00  0.00     0.104 A 
HETATM    9  C   UNL     1      -7.402   2.319 -32.151  1.00  0.00     0.046 A 
HETATM   10  H   UNL     1      -6.202   4.833 -30.428  1.00  0.00     0.166 HD
ENDROOT
BRANCH   4  11
HETATM   11  S   UNL     1      -7.468   6.911 -31.661  1.00  0.00    -0.102 SA
BRANCH  11  12
HETATM   12  C   UNL     1      -5.975   7.183 -30.662  1.00  0.00     0.184 C 
BRANCH  12  13
HETATM   13  C   UNL     1      -4.703   6.549 -31.193  1.00  0.00     0.231 C 
HETATM   14  N   UNL     1      -4.357   6.966 -32.466  1.00  0.00    -0.325 N 
HETATM   15  H   UNL     1      -5.048   7.497 -32.984  1.00  0.00     0.169 HD
HETATM   16  O   UNL     1      -4.073   5.748 -30.508  1.00  0.00    -0.272 OA
BRANCH  14  17
HETATM   17  C   UNL     1      -3.219   6.572 -33.216  1.00  0.00     0.056 A 
HETATM   18  C   UNL     1      -3.361   5.541 -34.163  1.00  0.00     0.060 A 
HETATM   19 CL   UNL     1      -4.898   4.795 -34.442  1.00  0.00    -0.082 Cl
HETATM   20  C   UNL     1      -2.264   5.084 -34.900  1.00  0.00     0.026 A 
HETATM   21  C   UNL     1      -1.010   5.665 -34.713  1.00  0.00     0.002 A 
HETATM   22  C   UNL     1      -0.862   6.707 -33.802  1.00  0.00     0.002 A 
HETATM   23  C   UNL     1      -1.961   7.161 -33.064  1.00  0.00     0.031 A 
ENDBRANCH  14  17
ENDBRANCH  12  13
ENDBRANCH  11  12
ENDBRANCH   4  11
BRANCH   8  24
HETATM   24  C   UNL     1      -9.644   2.670 -33.366  1.00  0.00    -0.044 A 
HETATM   25  C   UNL     1     -10.018   1.843 -34.440  1.00  0.00     0.008 A 
HETATM   26  C   UNL     1     -11.355   1.492 -34.632  1.00  0.00     0.001 A 
HETATM   27  C   UNL     1     -12.332   1.950 -33.750  1.00  0.00     0.000 A 
HETATM   28  C   UNL     1     -11.973   2.765 -32.680  1.00  0.00     0.001 A 
HETATM   29  C   UNL     1     -10.641   3.129 -32.493  1.00  0.00     0.008 A 
ENDBRANCH   8  24
BRANCH   9  30
HETATM   30  C   UNL     1      -7.203   0.829 -32.237  1.00  0.00     0.255 C 
HETATM   31  N   UNL     1      -6.160   0.387 -33.011  1.00  0.00    -0.321 N 
HETATM   32  H   UNL     1      -5.409   1.010 -33.276  1.00  0.00     0.169 HD
HETATM   33  O   UNL     1      -7.961   0.080 -31.621  1.00  0.00    -0.268 OA
BRANCH  31  34
HETATM   34  C   UNL     1      -5.996  -0.902 -33.574  1.00  0.00     0.068 A 
HETATM   35  C   UNL     1      -4.681  -1.411 -33.653  1.00  0.00     0.095 A 
HETATM   36  C   UNL     1      -4.446  -2.633 -34.290  1.00  0.00     0.039 A 
HETATM   37  C   UNL     1      -5.507  -3.348 -34.848  1.00  0.00     0.003 A 
HETATM   38  C   UNL     1      -6.806  -2.850 -34.763  1.00  0.00     0.002 A 
HETATM   39  C   UNL     1      -7.052  -1.634 -34.123  1.00  0.00     0.032 A 
BRANCH  35  40
HETATM   40  O   UNL     1      -3.709  -0.631 -33.075  1.00  0.00    -0.354 OA
HETATM   41  C   UNL     1      -3.059  -1.151 -31.923  1.00  0.00     0.210 C 
ENDBRANCH  35  40
ENDBRANCH  31  34
ENDBRANCH   9  30
TORSDOF 8
ENDMDL
MODEL 4
REMARK VINA RESULT:      -9.2      1.833      2.167
REMARK  8 active torsions:
REMARK  status: ('A' for Active; 'I' for Inactive)
REMARK    1  A    between atoms: C_4  and  S_5 
REMARK    2  A    between atoms: S_5  and  C_6 
REMARK    3  A    between atoms: C_6  and  C_7 
REMARK       I    between atoms: C_7  and  N_8 
REMARK    4  A    between atoms: N_8  and  C_9 
REMARK    5  A    between atoms: C_20  and  C_21 
REMARK    6  A    between atoms: C_27  and  C_28 
REMARK       I    between atoms: C_28  and  N_29 
REMARK    7  A    between atoms: N_29  and  C_30 
REMARK    8  A    between atoms: C_31  and  O_32 
ROOT
HETATM    1  C   UNL     1      -9.195   0.773 -31.622  1.00  0.00     0.069 C 
HETATM    2  C   UNL     1      -8.244   1.857 -31.167  1.00  0.00     0.019 A 
HETATM    3  N   UNL     1      -8.848   3.022 -30.736  1.00  0.00    -0.353 N 
HETATM    4  C   UNL     1      -8.202   4.158 -30.300  1.00  0.00     0.087 A 
HETATM    5  C   UNL     1      -6.854   4.153 -30.220  1.00  0.00     0.055 A 
HETATM    6  C   UNL     1      -6.043   5.397 -29.895  1.00  0.00     0.019 C 
HETATM    7  N   UNL     1      -5.370   6.428 -29.626  1.00  0.00    -0.096 N 
HETATM    8  C   UNL     1      -6.032   2.923 -30.680  1.00  0.00     0.104 A 
HETATM    9  C   UNL     1      -6.889   1.750 -31.174  1.00  0.00     0.046 A 
HETATM   10  H   UNL     1      -9.859   3.021 -30.628  1.00  0.00     0.166 HD
ENDROOT
BRANCH   4  11
HETATM   11  S   UNL     1      -9.168   5.544 -29.857  1.00  0.00    -0.102 SA
BRANCH  11  12
HETATM   12  C   UNL     1      -9.322   6.506 -31.390  1.00  0.00     0.184 C 
BRANCH  12  13
HETATM   13  C   UNL     1      -9.555   5.699 -32.654  1.00  0.00     0.231 C 
HETATM   14  N   UNL     1     -10.792   5.084 -32.707  1.00  0.00    -0.325 N 
HETATM   15  H   UNL     1     -11.343   5.076 -31.856  1.00  0.00     0.169 HD
HETATM   16  O   UNL     1      -8.689   5.638 -33.522  1.00  0.00    -0.272 OA
BRANCH  14  17
HETATM   17  C   UNL     1     -11.307   4.285 -33.760  1.00  0.00     0.056 A 
HETATM   18  C   UNL     1     -11.998   4.918 -34.810  1.00  0.00     0.060 A 
HETATM   19 CL   UNL     1     -12.181   6.640 -34.842  1.00  0.00    -0.082 Cl
HETATM   20  C   UNL     1     -12.564   4.176 -35.851  1.00  0.00     0.026 A 
HETATM   21  C   UNL     1     -12.430   2.788 -35.868  1.00  0.00     0.002 A 
HETATM   22  C   UNL     1     -11.722   2.151 -34.852  1.00  0.00     0.002 A 
HETATM   23  C   UNL     1     -11.160   2.896 -33.809  1.00  0.00     0.031 A 
ENDBRANCH  14  17
ENDBRANCH  12  13
ENDBRANCH  11  12
ENDBRANCH   4  11
BRANCH   8  24
HETATM   24  C   UNL     1      -4.968   3.386 -31.680  1.00  0.00    -0.044 A 
HETATM   25  C   UNL     1      -3.604   3.253 -31.366  1.00  0.00     0.008 A 
HETATM   26  C   UNL     1      -2.625   3.731 -32.238  1.00  0.00     0.001 A 
HETATM   27  C   UNL     1      -2.993   4.337 -33.437  1.00  0.00     0.000 A 
HETATM   28  C   UNL     1      -4.340   4.471 -33.763  1.00  0.00     0.001 A 
HETATM   29  C   UNL     1      -5.321   4.006 -32.888  1.00  0.00     0.008 A 
ENDBRANCH   8  24
BRANCH   9  30
HETATM   30  C   UNL     1      -6.296   0.414 -31.537  1.00  0.00     0.255 C 
HETATM   31  N   UNL     1      -6.067   0.180 -32.869  1.00  0.00    -0.321 N 
HETATM   32  H   UNL     1      -6.030   0.943 -33.532  1.00  0.00     0.169 HD
HETATM   33  O   UNL     1      -6.040  -0.397 -30.648  1.00  0.00    -0.268 OA
BRANCH  31  34
HETATM   34  C   UNL     1      -5.908  -1.076 -33.504  1.00  0.00     0.068 A 
HETATM   35  C   UNL     1      -4.590  -1.548 -33.683  1.00  0.00     0.095 A 
HETATM   36  C   UNL     1      -4.367  -2.733 -34.392  1.00  0.00     0.039 A 
HETATM   37  C   UNL     1      -5.442  -3.443 -34.925  1.00  0.00     0.003 A 
HETATM   38  C   UNL     1      -6.744  -2.982 -34.742  1.00  0.00     0.002 A 
HETATM   39  C   UNL     1      -6.979  -1.805 -34.029  1.00  0.00     0.032 A 
BRANCH  35  40
HETATM   40  O   UNL     1      -3.603  -0.775 -33.121  1.00  0.00    -0.354 OA
HETATM   41  C   UNL     1      -2.897  -1.325 -32.017  1.00  0.00     0.210 C 
ENDBRANCH  35  40
ENDBRANCH  31  34
ENDBRANCH   9  30
TORSDOF 8
ENDMDL
MODEL 5
REMARK VINA RESULT:      -9.1      3.957      8.162
REMARK  8 active torsions:
REMARK  status: ('A' for Active; 'I' for Inactive)
REMARK    1  A    between atoms: C_4  and  S_5 
REMARK    2  A    between atoms: S_5  and  C_6 
REMARK    3  A    between atoms: C_6  and  C_7 
REMARK       I    between atoms: C_7  and  N_8 
REMARK    4  A    between atoms: N_8  and  C_9 
REMARK    5  A    between atoms: C_20  and  C_21 
REMARK    6  A    between atoms: C_27  and  C_28 
REMARK       I    between atoms: C_28  and  N_29 
REMARK    7  A    between atoms: N_29  and  C_30 
REMARK    8  A    between atoms: C_31  and  O_32 
ROOT
HETATM    1  C   UNL     1      -3.136   1.006 -31.328  1.00  0.00     0.069 C 
HETATM    2  C   UNL     1      -4.210   1.804 -32.033  1.00  0.00     0.019 A 
HETATM    3  N   UNL     1      -3.964   3.161 -32.125  1.00  0.00    -0.353 N 
HETATM    4  C   UNL     1      -4.797   4.099 -32.694  1.00  0.00     0.087 A 
HETATM    5  C   UNL     1      -5.945   3.688 -33.275  1.00  0.00     0.055 A 
HETATM    6  C   UNL     1      -6.997   4.653 -33.796  1.00  0.00     0.019 C 
HETATM    7  N   UNL     1      -7.870   5.453 -34.228  1.00  0.00    -0.096 N 
HETATM    8  C   UNL     1      -6.367   2.197 -33.241  1.00  0.00     0.104 A 
HETATM    9  C   UNL     1      -5.355   1.280 -32.542  1.00  0.00     0.046 A 
HETATM   10  H   UNL     1      -3.047   3.497 -31.846  1.00  0.00     0.166 HD
ENDROOT
BRANCH   4  11
HETATM   11  S   UNL     1      -4.312   5.777 -32.648  1.00  0.00    -0.102 SA
BRANCH  11  12
HETATM   12  C   UNL     1      -2.646   5.793 -33.371  1.00  0.00     0.184 C 
BRANCH  12  13
HETATM   13  C   UNL     1      -1.546   6.339 -32.480  1.00  0.00     0.231 C 
HETATM   14  N   UNL     1      -1.776   6.156 -31.128  1.00  0.00    -0.325 N 
HETATM   15  H   UNL     1      -2.702   5.849 -30.853  1.00  0.00     0.169 HD
HETATM   16  O   UNL     1      -0.559   6.880 -32.970  1.00  0.00    -0.272 OA
BRANCH  14  17
HETATM   17  C   UNL     1      -0.928   6.536 -30.056  1.00  0.00     0.056 A 
HETATM   18  C   UNL     1      -1.019   7.848 -29.558  1.00  0.00     0.060 A 
HETATM   19 CL   UNL     1      -2.170   8.968 -30.206  1.00  0.00    -0.082 Cl
HETATM   20  C   UNL     1      -0.178   8.289 -28.531  1.00  0.00     0.026 A 
HETATM   21  C   UNL     1       0.755   7.416 -27.974  1.00  0.00     0.002 A 
HETATM   22  C   UNL     1       0.835   6.105 -28.437  1.00  0.00     0.002 A 
HETATM   23  C   UNL     1      -0.006   5.667 -29.466  1.00  0.00     0.031 A 
ENDBRANCH  14  17
ENDBRANCH  12  13
ENDBRANCH  11  12
ENDBRANCH   4  11
BRANCH   8  24
HETATM   24  C   UNL     1      -7.791   2.099 -32.685  1.00  0.00    -0.044 A 
HETATM   25  C   UNL     1      -8.826   1.597 -33.493  1.00  0.00     0.008 A 
HETATM   26  C   UNL     1     -10.140   1.564 -33.023  1.00  0.00     0.001 A 
HETATM   27  C   UNL     1     -10.435   2.020 -31.740  1.00  0.00     0.000 A 
HETATM   28  C   UNL     1      -9.418   2.515 -30.928  1.00  0.00     0.001 A 
HETATM   29  C   UNL     1      -8.106   2.561 -31.399  1.00  0.00     0.008 A 
ENDBRANCH   8  24
BRANCH   9  30
HETATM   30  C   UNL     1      -5.506  -0.219 -32.520  1.00  0.00     0.255 C 
HETATM   31  N   UNL     1      -4.985  -0.909 -33.585  1.00  0.00    -0.321 N 
HETATM   32  H   UNL     1      -4.304  -0.482 -34.198  1.00  0.00     0.169 HD
HETATM   33  O   UNL     1      -6.072  -0.757 -31.569  1.00  0.00    -0.268 OA
BRANCH  31  34
HETATM   34  C   UNL     1      -5.324  -2.218 -34.007  1.00  0.00     0.068 A 
HETATM   35  C   UNL     1      -4.385  -3.242 -33.759  1.00  0.00     0.095 A 
HETATM   36  C   UNL     1      -4.620  -4.533 -34.242  1.00  0.00     0.039 A 
HETATM   37  C   UNL     1      -5.777  -4.808 -34.971  1.00  0.00     0.003 A 
HETATM   38  C   UNL     1      -6.709  -3.800 -35.209  1.00  0.00     0.002 A 
HETATM   39  C   UNL     1      -6.487  -2.509 -34.725  1.00  0.00     0.032 A 
BRANCH  35  40
HETATM   40  O   UNL     1      -3.279  -2.867 -33.034  1.00  0.00    -0.354 OA
HETATM   41  C   UNL     1      -3.028  -3.568 -31.823  1.00  0.00     0.210 C 
ENDBRANCH  35  40
ENDBRANCH  31  34
ENDBRANCH   9  30
TORSDOF 8
ENDMDL
MODEL 6
REMARK VINA RESULT:      -9.1      3.272      7.373
REMARK  8 active torsions:
REMARK  status: ('A' for Active; 'I' for Inactive)
REMARK    1  A    between atoms: C_4  and  S_5 
REMARK    2  A    between atoms: S_5  and  C_6 
REMARK    3  A    between atoms: C_6  and  C_7 
REMARK       I    between atoms: C_7  and  N_8 
REMARK    4  A    between atoms: N_8  and  C_9 
REMARK    5  A    between atoms: C_20  and  C_21 
REMARK    6  A    between atoms: C_27  and  C_28 
REMARK       I    between atoms: C_28  and  N_29 
REMARK    7  A    between atoms: N_29  and  C_30 
REMARK    8  A    between atoms: C_31  and  O_32 
ROOT
HETATM    1  C   UNL     1      -5.351   2.435 -30.107  1.00  0.00     0.069 C 
HETATM    2  C   UNL     1      -6.220   3.042 -31.185  1.00  0.00     0.019 A 
HETATM    3  N   UNL     1      -6.283   4.422 -31.176  1.00  0.00    -0.353 N 
HETATM    4  C   UNL     1      -7.023   5.206 -32.034  1.00  0.00     0.087 A 
HETATM    5  C   UNL     1      -7.723   4.610 -33.024  1.00  0.00     0.055 A 
HETATM    6  C   UNL     1      -8.683   5.369 -33.926  1.00  0.00     0.019 C 
HETATM    7  N   UNL     1      -9.479   5.997 -34.674  1.00  0.00    -0.096 N 
HETATM    8  C   UNL     1      -7.762   3.067 -33.156  1.00  0.00     0.104 A 
HETATM    9  C   UNL     1      -6.918   2.331 -32.108  1.00  0.00     0.046 A 
HETATM   10  H   UNL     1      -5.653   4.922 -30.554  1.00  0.00     0.166 HD
ENDROOT
BRANCH   4  11
HETATM   11  S   UNL     1      -7.002   6.937 -31.804  1.00  0.00    -0.102 SA
BRANCH  11  12
HETATM   12  C   UNL     1      -5.852   7.203 -30.422  1.00  0.00     0.184 C 
BRANCH  12  13
HETATM   13  C   UNL     1      -4.399   7.416 -30.806  1.00  0.00     0.231 C 
HETATM   14  N   UNL     1      -3.535   6.476 -30.273  1.00  0.00    -0.325 N 
HETATM   15  H   UNL     1      -3.904   5.860 -29.557  1.00  0.00     0.169 HD
HETATM   16  O   UNL     1      -4.077   8.352 -31.532  1.00  0.00    -0.272 OA
BRANCH  14  17
HETATM   17  C   UNL     1      -2.132   6.397 -30.466  1.00  0.00     0.056 A 
HETATM   18  C   UNL     1      -1.626   5.409 -31.330  1.00  0.00     0.060 A 
HETATM   19 CL   UNL     1      -2.691   4.337 -32.176  1.00  0.00    -0.082 Cl
HETATM   20  C   UNL     1      -0.249   5.257 -31.523  1.00  0.00     0.026 A 
HETATM   21  C   UNL     1       0.642   6.106 -30.869  1.00  0.00     0.002 A 
HETATM   22  C   UNL     1       0.154   7.108 -30.035  1.00  0.00     0.002 A 
HETATM   23  C   UNL     1      -1.224   7.256 -29.840  1.00  0.00     0.031 A 
ENDBRANCH  14  17
ENDBRANCH  12  13
ENDBRANCH  11  12
ENDBRANCH   4  11
BRANCH   8  24
HETATM   24  C   UNL     1      -9.224   2.614 -33.216  1.00  0.00    -0.044 A 
HETATM   25  C   UNL     1      -9.661   1.792 -34.269  1.00  0.00     0.008 A 
HETATM   26  C   UNL     1     -11.004   1.425 -34.373  1.00  0.00     0.001 A 
HETATM   27  C   UNL     1     -11.923   1.865 -33.422  1.00  0.00     0.000 A 
HETATM   28  C   UNL     1     -11.502   2.675 -32.372  1.00  0.00     0.001 A 
HETATM   29  C   UNL     1     -10.164   3.053 -32.272  1.00  0.00     0.008 A 
ENDBRANCH   8  24
BRANCH   9  30
HETATM   30  C   UNL     1      -6.710   0.839 -32.142  1.00  0.00     0.255 C 
HETATM   31  N   UNL     1      -5.884   0.352 -33.124  1.00  0.00    -0.321 N 
HETATM   32  H   UNL     1      -5.239   0.961 -33.609  1.00  0.00     0.169 HD
HETATM   33  O   UNL     1      -7.270   0.129 -31.307  1.00  0.00    -0.268 OA
BRANCH  31  34
HETATM   34  C   UNL     1      -5.834  -0.972 -33.623  1.00  0.00     0.068 A 
HETATM   35  C   UNL     1      -4.569  -1.596 -33.676  1.00  0.00     0.095 A 
HETATM   36  C   UNL     1      -4.443  -2.864 -34.252  1.00  0.00     0.039 A 
HETATM   37  C   UNL     1      -5.563  -3.509 -34.778  1.00  0.00     0.003 A 
HETATM   38  C   UNL     1      -6.813  -2.897 -34.719  1.00  0.00     0.002 A 
HETATM   39  C   UNL     1      -6.951  -1.634 -34.139  1.00  0.00     0.032 A 
BRANCH  35  40
HETATM   40  O   UNL     1      -3.531  -0.877 -33.133  1.00  0.00    -0.354 OA
HETATM   41  C   UNL     1      -2.940  -1.386 -31.945  1.00  0.00     0.210 C 
ENDBRANCH  35  40
ENDBRANCH  31  34
ENDBRANCH   9  30
TORSDOF 8
ENDMDL
MODEL 7
REMARK VINA RESULT:      -9.1      3.099      8.097
REMARK  8 active torsions:
REMARK  status: ('A' for Active; 'I' for Inactive)
REMARK    1  A    between atoms: C_4  and  S_5 
REMARK    2  A    between atoms: S_5  and  C_6 
REMARK    3  A    between atoms: C_6  and  C_7 
REMARK       I    between atoms: C_7  and  N_8 
REMARK    4  A    between atoms: N_8  and  C_9 
REMARK    5  A    between atoms: C_20  and  C_21 
REMARK    6  A    between atoms: C_27  and  C_28 
REMARK       I    between atoms: C_28  and  N_29 
REMARK    7  A    between atoms: N_29  and  C_30 
REMARK    8  A    between atoms: C_31  and  O_32 
ROOT
HETATM    1  C   UNL     1     -10.194   6.122 -31.971  1.00  0.00     0.069 C 
HETATM    2  C   UNL     1      -9.390   4.913 -31.547  1.00  0.00     0.019 A 
HETATM    3  N   UNL     1      -8.384   5.170 -30.636  1.00  0.00    -0.353 N 
HETATM    4  C   UNL     1      -7.503   4.247 -30.119  1.00  0.00     0.087 A 
HETATM    5  C   UNL     1      -7.635   2.949 -30.470  1.00  0.00     0.055 A 
HETATM    6  C   UNL     1      -6.629   1.881 -30.074  1.00  0.00     0.019 C 
HETATM    7  N   UNL     1      -5.794   0.995 -29.747  1.00  0.00    -0.096 N 
HETATM    8  C   UNL     1      -8.710   2.505 -31.494  1.00  0.00     0.104 A 
HETATM    9  C   UNL     1      -9.591   3.651 -32.008  1.00  0.00     0.046 A 
HETATM   10  H   UNL     1      -8.344   6.097 -30.222  1.00  0.00     0.166 HD
ENDROOT
BRANCH   4  11
HETATM   11  S   UNL     1      -6.265   4.804 -29.020  1.00  0.00    -0.102 SA
BRANCH  11  12
HETATM   12  C   UNL     1      -5.823   6.458 -29.627  1.00  0.00     0.184 C 
BRANCH  12  13
HETATM   13  C   UNL     1      -5.224   6.511 -31.020  1.00  0.00     0.231 C 
HETATM   14  N   UNL     1      -3.904   6.100 -31.079  1.00  0.00    -0.325 N 
HETATM   15  H   UNL     1      -3.417   5.977 -30.199  1.00  0.00     0.169 HD
HETATM   16  O   UNL     1      -5.898   6.887 -31.974  1.00  0.00    -0.272 OA
BRANCH  14  17
HETATM   17  C   UNL     1      -3.084   6.018 -32.233  1.00  0.00     0.056 A 
HETATM   18  C   UNL     1      -2.948   4.774 -32.877  1.00  0.00     0.060 A 
HETATM   19 CL   UNL     1      -3.797   3.379 -32.301  1.00  0.00    -0.082 Cl
HETATM   20  C   UNL     1      -2.119   4.626 -33.993  1.00  0.00     0.026 A 
HETATM   21  C   UNL     1      -1.426   5.727 -34.494  1.00  0.00     0.002 A 
HETATM   22  C   UNL     1      -1.575   6.971 -33.886  1.00  0.00     0.002 A 
HETATM   23  C   UNL     1      -2.403   7.116 -32.768  1.00  0.00     0.031 A 
ENDBRANCH  14  17
ENDBRANCH  12  13
ENDBRANCH  11  12
ENDBRANCH   4  11
BRANCH   8  24
HETATM   24  C   UNL     1      -8.030   1.693 -32.602  1.00  0.00    -0.044 A 
HETATM   25  C   UNL     1      -7.190   2.335 -33.528  1.00  0.00     0.008 A 
HETATM   26  C   UNL     1      -6.617   1.620 -34.581  1.00  0.00     0.001 A 
HETATM   27  C   UNL     1      -6.867   0.256 -34.716  1.00  0.00     0.000 A 
HETATM   28  C   UNL     1      -7.693  -0.392 -33.803  1.00  0.00     0.001 A 
HETATM   29  C   UNL     1      -8.277   0.321 -32.757  1.00  0.00     0.008 A 
ENDBRANCH   8  24
BRANCH   9  30
HETATM   30  C   UNL     1     -10.780   3.416 -32.903  1.00  0.00     0.255 C 
HETATM   31  N   UNL     1     -11.873   2.812 -32.334  1.00  0.00    -0.321 N 
HETATM   32  H   UNL     1     -11.987   2.783 -31.330  1.00  0.00     0.169 HD
HETATM   33  O   UNL     1     -10.732   3.769 -34.081  1.00  0.00    -0.268 OA
BRANCH  31  34
HETATM   34  C   UNL     1     -12.921   2.133 -33.001  1.00  0.00     0.068 A 
HETATM   35  C   UNL     1     -14.241   2.409 -32.582  1.00  0.00     0.095 A 
HETATM   36  C   UNL     1     -15.309   1.694 -33.134  1.00  0.00     0.039 A 
HETATM   37  C   UNL     1     -15.071   0.709 -34.093  1.00  0.00     0.003 A 
HETATM   38  C   UNL     1     -13.770   0.442 -34.513  1.00  0.00     0.002 A 
HETATM   39  C   UNL     1     -12.697   1.154 -33.973  1.00  0.00     0.032 A 
BRANCH  35  40
HETATM   40  O   UNL     1     -14.367   3.394 -31.633  1.00  0.00    -0.354 OA
HETATM   41  C   UNL     1     -15.098   4.557 -31.998  1.00  0.00     0.210 C 
ENDBRANCH  35  40
ENDBRANCH  31  34
ENDBRANCH   9  30
TORSDOF 8
ENDMDL
MODEL 8
REMARK VINA RESULT:      -9.0      4.663      8.773
REMARK  8 active torsions:
REMARK  status: ('A' for Active; 'I' for Inactive)
REMARK    1  A    between atoms: C_4  and  S_5 
REMARK    2  A    between atoms: S_5  and  C_6 
REMARK    3  A    between atoms: C_6  and  C_7 
REMARK       I    between atoms: C_7  and  N_8 
REMARK    4  A    between atoms: N_8  and  C_9 
REMARK    5  A    between atoms: C_20  and  C_21 
REMARK    6  A    between atoms: C_27  and  C_28 
REMARK       I    between atoms: C_28  and  N_29 
REMARK    7  A    between atoms: N_29  and  C_30 
REMARK    8  A    between atoms: C_31  and  O_32 
ROOT
HETATM    1  C   UNL     1      -6.058   5.210 -28.383  1.00  0.00     0.069 C 
HETATM    2  C   UNL     1      -5.580   5.366 -29.809  1.00  0.00     0.019 A 
HETATM    3  N   UNL     1      -6.085   4.439 -30.700  1.00  0.00    -0.353 N 
HETATM    4  C   UNL     1      -5.783   4.354 -32.042  1.00  0.00     0.087 A 
HETATM    5  C   UNL     1      -4.962   5.278 -32.586  1.00  0.00     0.055 A 
HETATM    6  C   UNL     1      -4.451   5.187 -34.015  1.00  0.00     0.019 C 
HETATM    7  N   UNL     1      -4.027   5.111 -35.199  1.00  0.00    -0.096 N 
HETATM    8  C   UNL     1      -4.304   6.375 -31.712  1.00  0.00     0.104 A 
HETATM    9  C   UNL     1      -4.708   6.318 -30.233  1.00  0.00     0.046 A 
HETATM   10  H   UNL     1      -6.825   3.823 -30.376  1.00  0.00     0.166 HD
ENDROOT
BRANCH   4  11
HETATM   11  S   UNL     1      -6.495   3.059 -32.973  1.00  0.00    -0.102 SA
BRANCH  11  12
HETATM   12  C   UNL     1      -7.145   1.904 -31.731  1.00  0.00     0.184 C 
BRANCH  12  13
HETATM   13  C   UNL     1      -6.783   0.444 -31.935  1.00  0.00     0.231 C 
HETATM   14  N   UNL     1      -6.575   0.097 -33.257  1.00  0.00    -0.325 N 
HETATM   15  H   UNL     1      -6.846   0.773 -33.963  1.00  0.00     0.169 HD
HETATM   16  O   UNL     1      -6.692  -0.315 -30.974  1.00  0.00    -0.272 OA
BRANCH  14  17
HETATM   17  C   UNL     1      -6.205  -1.177 -33.760  1.00  0.00     0.056 A 
HETATM   18  C   UNL     1      -4.842  -1.522 -33.786  1.00  0.00     0.060 A 
HETATM   19 CL   UNL     1      -3.638  -0.435 -33.178  1.00  0.00    -0.082 Cl
HETATM   20  C   UNL     1      -4.418  -2.747 -34.311  1.00  0.00     0.026 A 
HETATM   21  C   UNL     1      -5.355  -3.655 -34.801  1.00  0.00     0.002 A 
HETATM   22  C   UNL     1      -6.711  -3.339 -34.753  1.00  0.00     0.002 A 
HETATM   23  C   UNL     1      -7.132  -2.112 -34.231  1.00  0.00     0.031 A 
ENDBRANCH  14  17
ENDBRANCH  12  13
ENDBRANCH  11  12
ENDBRANCH   4  11
BRANCH   8  24
HETATM   24  C   UNL     1      -2.791   6.353 -31.949  1.00  0.00    -0.044 A 
HETATM   25  C   UNL     1      -2.020   5.279 -31.470  1.00  0.00     0.008 A 
HETATM   26  C   UNL     1      -0.633   5.279 -31.619  1.00  0.00     0.001 A 
HETATM   27  C   UNL     1       0.001   6.342 -32.259  1.00  0.00     0.000 A 
HETATM   28  C   UNL     1      -0.751   7.409 -32.742  1.00  0.00     0.001 A 
HETATM   29  C   UNL     1      -2.135   7.420 -32.583  1.00  0.00     0.008 A 
ENDBRANCH   8  24
BRANCH   9  30
HETATM   30  C   UNL     1      -4.291   7.373 -29.241  1.00  0.00     0.255 C 
HETATM   31  N   UNL     1      -3.161   7.117 -28.506  1.00  0.00    -0.321 N 
HETATM   32  H   UNL     1      -2.498   6.413 -28.800  1.00  0.00     0.169 HD
HETATM   33  O   UNL     1      -4.957   8.401 -29.133  1.00  0.00    -0.268 OA
BRANCH  31  34
HETATM   34  C   UNL     1      -2.785   7.712 -27.277  1.00  0.00     0.068 A 
HETATM   35  C   UNL     1      -1.574   8.437 -27.252  1.00  0.00     0.095 A 
HETATM   36  C   UNL     1      -1.102   8.961 -26.045  1.00  0.00     0.039 A 
HETATM   37  C   UNL     1      -1.823   8.764 -24.866  1.00  0.00     0.003 A 
HETATM   38  C   UNL     1      -3.023   8.056 -24.892  1.00  0.00     0.002 A 
HETATM   39  C   UNL     1      -3.507   7.535 -26.093  1.00  0.00     0.032 A 
BRANCH  35  40
HETATM   40  O   UNL     1      -0.941   8.572 -28.464  1.00  0.00    -0.354 OA
HETATM   41  C   UNL     1       0.309   7.914 -28.620  1.00  0.00     0.210 C 
ENDBRANCH  35  40
ENDBRANCH  31  34
ENDBRANCH   9  30
TORSDOF 8
ENDMDL
MODEL 9
REMARK VINA RESULT:      -8.8      4.258      8.350
REMARK  8 active torsions:
REMARK  status: ('A' for Active; 'I' for Inactive)
REMARK    1  A    between atoms: C_4  and  S_5 
REMARK    2  A    between atoms: S_5  and  C_6 
REMARK    3  A    between atoms: C_6  and  C_7 
REMARK       I    between atoms: C_7  and  N_8 
REMARK    4  A    between atoms: N_8  and  C_9 
REMARK    5  A    between atoms: C_20  and  C_21 
REMARK    6  A    between atoms: C_27  and  C_28 
REMARK       I    between atoms: C_28  and  N_29 
REMARK    7  A    between atoms: N_29  and  C_30 
REMARK    8  A    between atoms: C_31  and  O_32 
ROOT
HETATM    1  C   UNL     1      -2.538   4.211 -32.814  1.00  0.00     0.069 C 
HETATM    2  C   UNL     1      -3.809   4.417 -32.021  1.00  0.00     0.019 A 
HETATM    3  N   UNL     1      -4.779   3.451 -32.210  1.00  0.00    -0.353 N 
HETATM    4  C   UNL     1      -6.026   3.429 -31.625  1.00  0.00     0.087 A 
HETATM    5  C   UNL     1      -6.348   4.393 -30.736  1.00  0.00     0.055 A 
HETATM    6  C   UNL     1      -7.743   4.542 -30.151  1.00  0.00     0.019 C 
HETATM    7  N   UNL     1      -8.900   4.665 -29.666  1.00  0.00    -0.096 N 
HETATM    8  C   UNL     1      -5.369   5.554 -30.428  1.00  0.00     0.104 A 
HETATM    9  C   UNL     1      -4.037   5.461 -31.182  1.00  0.00     0.046 A 
HETATM   10  H   UNL     1      -4.528   2.624 -32.745  1.00  0.00     0.166 HD
ENDROOT
BRANCH   4  11
HETATM   11  S   UNL     1      -7.122   2.138 -32.055  1.00  0.00    -0.102 SA
BRANCH  11  12
HETATM   12  C   UNL     1      -7.162   2.157 -33.871  1.00  0.00     0.184 C 
BRANCH  12  13
HETATM   13  C   UNL     1      -6.868   0.832 -34.551  1.00  0.00     0.231 C 
HETATM   14  N   UNL     1      -6.423  -0.154 -33.689  1.00  0.00    -0.325 N 
HETATM   15  H   UNL     1      -6.170   0.130 -32.749  1.00  0.00     0.169 HD
HETATM   16  O   UNL     1      -7.034   0.702 -35.760  1.00  0.00    -0.272 OA
BRANCH  14  17
HETATM   17  C   UNL     1      -6.089  -1.493 -34.019  1.00  0.00     0.056 A 
HETATM   18  C   UNL     1      -4.746  -1.897 -33.916  1.00  0.00     0.060 A 
HETATM   19 CL   UNL     1      -3.528  -0.800 -33.357  1.00  0.00    -0.082 Cl
HETATM   20  C   UNL     1      -4.353  -3.192 -34.269  1.00  0.00     0.026 A 
HETATM   21  C   UNL     1      -5.304  -4.109 -34.714  1.00  0.00     0.002 A 
HETATM   22  C   UNL     1      -6.642  -3.732 -34.791  1.00  0.00     0.002 A 
HETATM   23  C   UNL     1      -7.032  -2.435 -34.440  1.00  0.00     0.031 A 
ENDBRANCH  14  17
ENDBRANCH  12  13
ENDBRANCH  11  12
ENDBRANCH   4  11
BRANCH   8  24
HETATM   24  C   UNL     1      -6.106   6.884 -30.617  1.00  0.00    -0.044 A 
HETATM   25  C   UNL     1      -6.523   7.279 -31.900  1.00  0.00     0.008 A 
HETATM   26  C   UNL     1      -7.135   8.517 -32.098  1.00  0.00     0.001 A 
HETATM   27  C   UNL     1      -7.348   9.371 -31.018  1.00  0.00     0.000 A 
HETATM   28  C   UNL     1      -6.944   8.990 -29.741  1.00  0.00     0.001 A 
HETATM   29  C   UNL     1      -6.321   7.759 -29.542  1.00  0.00     0.008 A 
ENDBRANCH   8  24
BRANCH   9  30
HETATM   30  C   UNL     1      -2.896   6.411 -30.925  1.00  0.00     0.255 C 
HETATM   31  N   UNL     1      -2.149   6.188 -29.795  1.00  0.00    -0.321 N 
HETATM   32  H   UNL     1      -2.176   5.295 -29.322  1.00  0.00     0.169 HD
HETATM   33  O   UNL     1      -2.677   7.325 -31.718  1.00  0.00    -0.268 OA
BRANCH  31  34
HETATM   34  C   UNL     1      -1.317   7.115 -29.121  1.00  0.00     0.068 A 
HETATM   35  C   UNL     1       0.078   6.965 -29.277  1.00  0.00     0.095 A 
HETATM   36  C   UNL     1       0.950   7.786 -28.556  1.00  0.00     0.039 A 
HETATM   37  C   UNL     1       0.444   8.749 -27.682  1.00  0.00     0.003 A 
HETATM   38  C   UNL     1      -0.933   8.903 -27.534  1.00  0.00     0.002 A 
HETATM   39  C   UNL     1      -1.812   8.093 -28.254  1.00  0.00     0.032 A 
BRANCH  35  40
HETATM   40  O   UNL     1       0.473   5.988 -30.159  1.00  0.00    -0.354 OA
HETATM   41  C   UNL     1       0.945   4.766 -29.605  1.00  0.00     0.210 C 
ENDBRANCH  35  40
ENDBRANCH  31  34
ENDBRANCH   9  30
TORSDOF 8
ENDMDL
MODEL 10
REMARK VINA RESULT:      -8.8      4.841      9.022
REMARK  8 active torsions:
REMARK  status: ('A' for Active; 'I' for Inactive)
REMARK    1  A    between atoms: C_4  and  S_5 
REMARK    2  A    between atoms: S_5  and  C_6 
REMARK    3  A    between atoms: C_6  and  C_7 
REMARK       I    between atoms: C_7  and  N_8 
REMARK    4  A    between atoms: N_8  and  C_9 
REMARK    5  A    between atoms: C_20  and  C_21 
REMARK    6  A    between atoms: C_27  and  C_28 
REMARK       I    between atoms: C_28  and  N_29 
REMARK    7  A    between atoms: N_29  and  C_30 
REMARK    8  A    between atoms: C_31  and  O_32 
ROOT
HETATM    1  C   UNL     1      -1.534   5.006 -32.272  1.00  0.00     0.069 C 
HETATM    2  C   UNL     1      -2.832   5.203 -31.522  1.00  0.00     0.019 A 
HETATM    3  N   UNL     1      -3.855   4.352 -31.892  1.00  0.00    -0.353 N 
HETATM    4  C   UNL     1      -5.134   4.349 -31.380  1.00  0.00     0.087 A 
HETATM    5  C   UNL     1      -5.440   5.208 -30.383  1.00  0.00     0.055 A 
HETATM    6  C   UNL     1      -6.854   5.385 -29.853  1.00  0.00     0.019 C 
HETATM    7  N   UNL     1      -8.026   5.533 -29.415  1.00  0.00    -0.096 N 
HETATM    8  C   UNL     1      -4.401   6.235 -29.868  1.00  0.00     0.104 A 
HETATM    9  C   UNL     1      -3.035   6.140 -30.560  1.00  0.00     0.046 A 
HETATM   10  H   UNL     1      -3.632   3.587 -32.523  1.00  0.00     0.166 HD
ENDROOT
BRANCH   4  11
HETATM   11  S   UNL     1      -6.291   3.218 -32.039  1.00  0.00    -0.102 SA
BRANCH  11  12
HETATM   12  C   UNL     1      -6.461   1.938 -30.761  1.00  0.00     0.184 C 
BRANCH  12  13
HETATM   13  C   UNL     1      -6.414   0.504 -31.255  1.00  0.00     0.231 C 
HETATM   14  N   UNL     1      -6.092   0.382 -32.595  1.00  0.00    -0.325 N 
HETATM   15  H   UNL     1      -6.092   1.229 -33.151  1.00  0.00     0.169 HD
HETATM   16  O   UNL     1      -6.644  -0.427 -30.488  1.00  0.00    -0.272 OA
BRANCH  14  17
HETATM   17  C   UNL     1      -5.950  -0.820 -33.335  1.00  0.00     0.056 A 
HETATM   18  C   UNL     1      -4.655  -1.321 -33.566  1.00  0.00     0.060 A 
HETATM   19 CL   UNL     1      -3.263  -0.515 -32.924  1.00  0.00    -0.082 Cl
HETATM   20  C   UNL     1      -4.455  -2.477 -34.326  1.00  0.00     0.026 A 
HETATM   21  C   UNL     1      -5.549  -3.162 -34.852  1.00  0.00     0.002 A 
HETATM   22  C   UNL     1      -6.838  -2.695 -34.605  1.00  0.00     0.002 A 
HETATM   23  C   UNL     1      -7.036  -1.535 -33.847  1.00  0.00     0.031 A 
ENDBRANCH  14  17
ENDBRANCH  12  13
ENDBRANCH  11  12
ENDBRANCH   4  11
BRANCH   8  24
HETATM   24  C   UNL     1      -5.028   7.632 -29.907  1.00  0.00    -0.044 A 
HETATM   25  C   UNL     1      -5.344   8.294 -28.707  1.00  0.00     0.008 A 
HETATM   26  C   UNL     1      -5.976   9.538 -28.727  1.00  0.00     0.001 A 
HETATM   27  C   UNL     1      -6.289  10.142 -29.943  1.00  0.00     0.000 A 
HETATM   28  C   UNL     1      -5.978   9.500 -31.139  1.00  0.00     0.001 A 
HETATM   29  C   UNL     1      -5.358   8.251 -31.122  1.00  0.00     0.008 A 
ENDBRANCH   8  24
BRANCH   9  30
HETATM   30  C   UNL     1      -1.848   6.953 -30.115  1.00  0.00     0.255 C 
HETATM   31  N   UNL     1      -1.123   6.463 -29.058  1.00  0.00    -0.321 N 
HETATM   32  H   UNL     1      -1.203   5.495 -28.778  1.00  0.00     0.169 HD
HETATM   33  O   UNL     1      -1.573   7.998 -30.705  1.00  0.00    -0.268 OA
BRANCH  31  34
HETATM   34  C   UNL     1      -0.248   7.185 -28.210  1.00  0.00     0.068 A 
HETATM   35  C   UNL     1      -0.625   7.321 -26.856  1.00  0.00     0.095 A 
HETATM   36  C   UNL     1       0.148   8.108 -25.996  1.00  0.00     0.039 A 
HETATM   37  C   UNL     1       1.285   8.760 -26.474  1.00  0.00     0.003 A 
HETATM   38  C   UNL     1       1.661   8.620 -27.808  1.00  0.00     0.002 A 
HETATM   39  C   UNL     1       0.901   7.831 -28.674  1.00  0.00     0.032 A 
BRANCH  35  40
HETATM   40  O   UNL     1      -1.760   6.641 -26.487  1.00  0.00    -0.354 OA
HETATM   41  C   UNL     1      -2.763   7.377 -25.799  1.00  0.00     0.210 C 
ENDBRANCH  35  40
ENDBRANCH  31  34
ENDBRANCH   9  30
TORSDOF 8
ENDMDL
