MODEL 1
REMARK VINA RESULT:      -8.9      0.000      0.000
REMARK  9 active torsions:
REMARK  status: ('A' for Active; 'I' for Inactive)
REMARK    1  A    between atoms: C_2  and  C_3 
REMARK    2  A    between atoms: C_3  and  C_4 
REMARK    3  A    between atoms: C_3  and  C_38 
REMARK    4  A    between atoms: C_6  and  C_7 
REMARK    5  A    between atoms: C_14  and  C_15 
REMARK    6  A    between atoms: C_18  and  C_19 
REMARK    7  A    between atoms: C_19  and  N_20 
REMARK       I    between atoms: N_20  and  C_21 
REMARK       I    between atoms: C_21  and  N_22 
REMARK    8  A    between atoms: N_22  and  C_23 
REMARK    9  A    between atoms: C_26  and  O_27 
ROOT
HETATM    1  C   UNL     1      -9.741   0.785 -32.924  1.00  0.00     0.068 C 
HETATM    2  C   UNL     1     -10.301   1.213 -34.310  1.00  0.00     0.001 C 
HETATM    3  C   UNL     1      -9.753   2.609 -34.691  1.00  0.00     0.040 C 
HETATM    4  C   UNL     1     -10.228   3.675 -33.684  1.00  0.00     0.206 C 
HETATM    5  N   UNL     1     -10.950   2.928 -32.567  1.00  0.00    -0.065 N 
HETATM    6  H   UNL     1     -11.174   3.630 -31.828  1.00  0.00     0.280 HD
HETATM    7  C   UNL     1     -10.086   1.874 -31.889  1.00  0.00     0.246 C 
HETATM    8  C   UNL     1     -11.838   1.323 -34.188  1.00  0.00     0.033 C 
HETATM    9  C   UNL     1     -12.223   2.314 -33.085  1.00  0.00     0.236 C 
ENDROOT
BRANCH   1  10
HETATM   10  C   UNL     1      -8.264   0.459 -32.983  1.00  0.00     0.045 A 
HETATM   11  N   UNL     1      -7.904  -0.746 -33.470  1.00  0.00    -0.233 NA
HETATM   12  C   UNL     1      -6.588  -1.050 -33.441  1.00  0.00     0.160 A 
HETATM   13  N   UNL     1      -5.640  -0.255 -32.920  1.00  0.00    -0.233 NA
HETATM   14  C   UNL     1      -6.018   0.946 -32.440  1.00  0.00     0.043 A 
HETATM   15  C   UNL     1      -7.340   1.350 -32.467  1.00  0.00     0.055 A 
BRANCH  12  16
HETATM   16  C   UNL     1      -6.167  -2.339 -34.007  1.00  0.00     0.014 A 
HETATM   17  C   UNL     1      -4.825  -2.744 -33.978  1.00  0.00     0.034 A 
HETATM   18  C   UNL     1      -4.472  -3.971 -34.518  1.00  0.00     0.117 A 
HETATM   19  N   UNL     1      -5.354  -4.817 -35.085  1.00  0.00    -0.273 NA
HETATM   20  C   UNL     1      -6.639  -4.415 -35.133  1.00  0.00     0.117 A 
HETATM   21  C   UNL     1      -7.085  -3.210 -34.612  1.00  0.00     0.034 A 
ENDBRANCH  12  16
BRANCH  14  22
HETATM   22  C   UNL     1      -4.915   1.823 -31.873  1.00  0.00     0.037 C 
BRANCH  22  23
HETATM   23  C   UNL     1      -3.496   1.282 -32.162  1.00  0.00     0.006 C 
HETATM   24  C   UNL     1      -3.003   0.286 -31.120  1.00  0.00     0.006 C 
ENDBRANCH  22  23
BRANCH  22  25
HETATM   25  C   UNL     1      -5.097   2.044 -30.356  1.00  0.00     0.006 C 
HETATM   26  C   UNL     1      -5.666   3.414 -30.010  1.00  0.00     0.006 C 
ENDBRANCH  22  25
ENDBRANCH  14  22
ENDBRANCH   1  10
BRANCH   4  27
HETATM   27  C   UNL     1      -9.088   4.603 -33.184  1.00  0.00     0.157 C 
BRANCH  27  28
HETATM   28  N   UNL     1      -7.776   4.408 -33.805  1.00  0.00    -0.341 N 
HETATM   29  C   UNL     1      -6.693   5.207 -33.516  1.00  0.00     0.320 C 
HETATM   30  N   UNL     1      -5.515   4.673 -33.968  1.00  0.00    -0.309 N 
HETATM   31  O   UNL     1      -6.839   6.272 -32.926  1.00  0.00    -0.247 OA
HETATM   32  H   UNL     1      -5.571   3.838 -34.535  1.00  0.00     0.170 HD
HETATM   33  H   UNL     1      -7.545   3.446 -34.014  1.00  0.00     0.164 HD
BRANCH  30  34
HETATM   34  C   UNL     1      -4.211   5.160 -33.726  1.00  0.00     0.036 A 
HETATM   35  C   UNL     1      -3.333   5.571 -34.729  1.00  0.00     0.032 A 
HETATM   36  C   UNL     1      -2.075   6.088 -34.401  1.00  0.00     0.039 A 
HETATM   37  C   UNL     1      -1.680   6.217 -33.071  1.00  0.00     0.068 A 
HETATM   38  C   UNL     1      -2.541   5.786 -32.065  1.00  0.00     0.039 A 
HETATM   39  C   UNL     1      -3.797   5.258 -32.392  1.00  0.00     0.032 A 
BRANCH  37  40
HETATM   40  O   UNL     1      -0.441   6.760 -32.890  1.00  0.00    -0.356 OA
HETATM   41  C   UNL     1       0.035   6.827 -31.551  1.00  0.00     0.210 C 
ENDBRANCH  37  40
ENDBRANCH  30  34
ENDBRANCH  27  28
ENDBRANCH   4  27
TORSDOF 9
ENDMDL
MODEL 2
REMARK VINA RESULT:      -8.7      2.741      6.959
REMARK  9 active torsions:
REMARK  status: ('A' for Active; 'I' for Inactive)
REMARK    1  A    between atoms: C_2  and  C_3 
REMARK    2  A    between atoms: C_3  and  C_4 
REMARK    3  A    between atoms: C_3  and  C_38 
REMARK    4  A    between atoms: C_6  and  C_7 
REMARK    5  A    between atoms: C_14  and  C_15 
REMARK    6  A    between atoms: C_18  and  C_19 
REMARK    7  A    between atoms: C_19  and  N_20 
REMARK       I    between atoms: N_20  and  C_21 
REMARK       I    between atoms: C_21  and  N_22 
REMARK    8  A    between atoms: N_22  and  C_23 
REMARK    9  A    between atoms: C_26  and  O_27 
ROOT
HETATM    1  C   UNL     1      -7.752   5.095 -31.538  1.00  0.00     0.068 C 
HETATM    2  C   UNL     1      -8.721   4.190 -30.725  1.00  0.00     0.001 C 
HETATM    3  C   UNL     1      -9.154   2.977 -31.583  1.00  0.00     0.040 C 
HETATM    4  C   UNL     1      -9.935   3.440 -32.827  1.00  0.00     0.206 C 
HETATM    5  N   UNL     1      -9.862   4.964 -32.846  1.00  0.00    -0.065 N 
HETATM    6  H   UNL     1     -10.292   5.278 -33.744  1.00  0.00     0.280 HD
HETATM    7  C   UNL     1      -8.438   5.500 -32.858  1.00  0.00     0.246 C 
HETATM    8  C   UNL     1      -9.985   5.019 -30.401  1.00  0.00     0.033 C 
HETATM    9  C   UNL     1     -10.633   5.540 -31.688  1.00  0.00     0.236 C 
ENDROOT
BRANCH   1  10
HETATM   10  C   UNL     1      -6.400   4.444 -31.739  1.00  0.00     0.045 A 
HETATM   11  N   UNL     1      -5.430   5.174 -32.328  1.00  0.00    -0.233 NA
HETATM   12  C   UNL     1      -4.256   4.551 -32.569  1.00  0.00     0.160 A 
HETATM   13  N   UNL     1      -4.019   3.256 -32.305  1.00  0.00    -0.233 NA
HETATM   14  C   UNL     1      -4.999   2.543 -31.716  1.00  0.00     0.043 A 
HETATM   15  C   UNL     1      -6.217   3.115 -31.399  1.00  0.00     0.055 A 
BRANCH  12  16
HETATM   16  C   UNL     1      -3.171   5.339 -33.170  1.00  0.00     0.014 A 
HETATM   17  C   UNL     1      -2.268   4.763 -34.076  1.00  0.00     0.034 A 
HETATM   18  C   UNL     1      -1.263   5.544 -34.624  1.00  0.00     0.117 A 
HETATM   19  N   UNL     1      -1.090   6.848 -34.333  1.00  0.00    -0.273 NA
HETATM   20  C   UNL     1      -1.943   7.392 -33.445  1.00  0.00     0.117 A 
HETATM   21  C   UNL     1      -2.983   6.692 -32.852  1.00  0.00     0.034 A 
ENDBRANCH  12  16
BRANCH  14  22
HETATM   22  C   UNL     1      -4.687   1.086 -31.419  1.00  0.00     0.037 C 
BRANCH  22  23
HETATM   23  C   UNL     1      -5.519   0.511 -30.250  1.00  0.00     0.006 C 
HETATM   24  C   UNL     1      -6.730  -0.294 -30.705  1.00  0.00     0.006 C 
ENDBRANCH  22  23
BRANCH  22  25
HETATM   25  C   UNL     1      -3.181   0.879 -31.148  1.00  0.00     0.006 C 
HETATM   26  C   UNL     1      -2.721  -0.556 -31.370  1.00  0.00     0.006 C 
ENDBRANCH  22  25
ENDBRANCH  14  22
ENDBRANCH   1  10
BRANCH   4  27
HETATM   27  C   UNL     1      -9.453   2.773 -34.143  1.00  0.00     0.157 C 
BRANCH  27  28
HETATM   28  N   UNL     1      -8.119   2.170 -34.111  1.00  0.00    -0.341 N 
HETATM   29  C   UNL     1      -7.920   0.815 -33.973  1.00  0.00     0.320 C 
HETATM   30  N   UNL     1      -6.635   0.442 -34.266  1.00  0.00    -0.309 N 
HETATM   31  O   UNL     1      -8.835   0.082 -33.612  1.00  0.00    -0.247 OA
HETATM   32  H   UNL     1      -5.967   1.179 -34.442  1.00  0.00     0.170 HD
HETATM   33  H   UNL     1      -7.427   2.640 -34.681  1.00  0.00     0.164 HD
BRANCH  30  34
HETATM   34  C   UNL     1      -6.130  -0.874 -34.356  1.00  0.00     0.036 A 
HETATM   35  C   UNL     1      -4.806  -1.222 -34.084  1.00  0.00     0.032 A 
HETATM   36  C   UNL     1      -4.397  -2.558 -34.149  1.00  0.00     0.039 A 
HETATM   37  C   UNL     1      -5.303  -3.568 -34.469  1.00  0.00     0.068 A 
HETATM   38  C   UNL     1      -6.620  -3.226 -34.767  1.00  0.00     0.039 A 
HETATM   39  C   UNL     1      -7.029  -1.887 -34.712  1.00  0.00     0.032 A 
BRANCH  37  40
HETATM   40  O   UNL     1      -4.780  -4.829 -34.471  1.00  0.00    -0.356 OA
HETATM   41  C   UNL     1      -3.769  -5.098 -33.507  1.00  0.00     0.210 C 
ENDBRANCH  37  40
ENDBRANCH  30  34
ENDBRANCH  27  28
ENDBRANCH   4  27
TORSDOF 9
ENDMDL
MODEL 3
REMARK VINA RESULT:      -8.6      5.003     10.082
REMARK  9 active torsions:
REMARK  status: ('A' for Active; 'I' for Inactive)
REMARK    1  A    between atoms: C_2  and  C_3 
REMARK    2  A    between atoms: C_3  and  C_4 
REMARK    3  A    between atoms: C_3  and  C_38 
REMARK    4  A    between atoms: C_6  and  C_7 
REMARK    5  A    between atoms: C_14  and  C_15 
REMARK    6  A    between atoms: C_18  and  C_19 
REMARK    7  A    between atoms: C_19  and  N_20 
REMARK       I    between atoms: N_20  and  C_21 
REMARK       I    between atoms: C_21  and  N_22 
REMARK    8  A    between atoms: N_22  and  C_23 
REMARK    9  A    between atoms: C_26  and  O_27 
ROOT
HETATM    1  C   UNL     1      -0.504   8.172 -28.783  1.00  0.00     0.068 C 
HETATM    2  C   UNL     1       0.272   7.069 -28.008  1.00  0.00     0.001 C 
HETATM    3  C   UNL     1      -0.673   6.367 -27.004  1.00  0.00     0.040 C 
HETATM    4  C   UNL     1      -1.183   7.364 -25.945  1.00  0.00     0.206 C 
HETATM    5  N   UNL     1      -0.687   8.743 -26.371  1.00  0.00    -0.065 N 
HETATM    6  H   UNL     1      -1.122   9.435 -25.722  1.00  0.00     0.280 HD
HETATM    7  C   UNL     1      -1.139   9.143 -27.767  1.00  0.00     0.246 C 
HETATM    8  C   UNL     1       1.395   7.759 -27.201  1.00  0.00     0.033 C 
HETATM    9  C   UNL     1       0.813   8.818 -26.259  1.00  0.00     0.236 C 
ENDROOT
BRANCH   1  10
HETATM   10  C   UNL     1      -1.502   7.586 -29.759  1.00  0.00     0.045 A 
HETATM   11  N   UNL     1      -2.768   8.051 -29.722  1.00  0.00    -0.233 NA
HETATM   12  C   UNL     1      -3.661   7.461 -30.546  1.00  0.00     0.160 A 
HETATM   13  N   UNL     1      -3.378   6.423 -31.349  1.00  0.00    -0.233 NA
HETATM   14  C   UNL     1      -2.108   5.972 -31.373  1.00  0.00     0.043 A 
HETATM   15  C   UNL     1      -1.124   6.546 -30.590  1.00  0.00     0.055 A 
BRANCH  12  16
HETATM   16  C   UNL     1      -5.035   7.981 -30.555  1.00  0.00     0.014 A 
HETATM   17  C   UNL     1      -5.937   7.639 -31.574  1.00  0.00     0.034 A 
HETATM   18  C   UNL     1      -7.225   8.147 -31.542  1.00  0.00     0.117 A 
HETATM   19  N   UNL     1      -7.678   8.970 -30.575  1.00  0.00    -0.273 NA
HETATM   20  C   UNL     1      -6.803   9.316 -29.612  1.00  0.00     0.117 A 
HETATM   21  C   UNL     1      -5.498   8.851 -29.557  1.00  0.00     0.034 A 
ENDBRANCH  12  16
BRANCH  14  22
HETATM   22  C   UNL     1      -1.824   4.807 -32.306  1.00  0.00     0.037 C 
BRANCH  22  23
HETATM   23  C   UNL     1      -1.243   5.245 -33.669  1.00  0.00     0.006 C 
HETATM   24  C   UNL     1      -2.235   5.122 -34.819  1.00  0.00     0.006 C 
ENDBRANCH  22  23
BRANCH  22  25
HETATM   25  C   UNL     1      -3.085   3.942 -32.523  1.00  0.00     0.006 C 
HETATM   26  C   UNL     1      -3.196   2.782 -31.541  1.00  0.00     0.006 C 
ENDBRANCH  22  25
ENDBRANCH  14  22
ENDBRANCH   1  10
BRANCH   4  27
HETATM   27  C   UNL     1      -2.716   7.292 -25.717  1.00  0.00     0.157 C 
BRANCH  27  28
HETATM   28  N   UNL     1      -3.417   6.189 -26.378  1.00  0.00    -0.341 N 
HETATM   29  C   UNL     1      -4.682   6.322 -26.904  1.00  0.00     0.320 C 
HETATM   30  N   UNL     1      -5.019   5.280 -27.726  1.00  0.00    -0.309 N 
HETATM   31  O   UNL     1      -5.381   7.289 -26.618  1.00  0.00    -0.247 OA
HETATM   32  H   UNL     1      -4.377   4.501 -27.775  1.00  0.00     0.170 HD
HETATM   33  H   UNL     1      -2.818   5.547 -26.881  1.00  0.00     0.164 HD
BRANCH  30  34
HETATM   34  C   UNL     1      -6.177   5.167 -28.527  1.00  0.00     0.036 A 
HETATM   35  C   UNL     1      -7.388   5.800 -28.243  1.00  0.00     0.032 A 
HETATM   36  C   UNL     1      -8.474   5.677 -29.116  1.00  0.00     0.039 A 
HETATM   37  C   UNL     1      -8.365   4.934 -30.291  1.00  0.00     0.068 A 
HETATM   38  C   UNL     1      -7.169   4.278 -30.569  1.00  0.00     0.039 A 
HETATM   39  C   UNL     1      -6.083   4.393 -29.690  1.00  0.00     0.032 A 
BRANCH  37  40
HETATM   40  O   UNL     1      -9.490   4.918 -31.065  1.00  0.00    -0.356 OA
HETATM   41  C   UNL     1     -10.531   4.039 -30.654  1.00  0.00     0.210 C 
ENDBRANCH  37  40
ENDBRANCH  30  34
ENDBRANCH  27  28
ENDBRANCH   4  27
TORSDOF 9
ENDMDL
MODEL 4
REMARK VINA RESULT:      -8.6      3.813      8.956
REMARK  9 active torsions:
REMARK  status: ('A' for Active; 'I' for Inactive)
REMARK    1  A    between atoms: C_2  and  C_3 
REMARK    2  A    between atoms: C_3  and  C_4 
REMARK    3  A    between atoms: C_3  and  C_38 
REMARK    4  A    between atoms: C_6  and  C_7 
REMARK    5  A    between atoms: C_14  and  C_15 
REMARK    6  A    between atoms: C_18  and  C_19 
REMARK    7  A    between atoms: C_19  and  N_20 
REMARK       I    between atoms: N_20  and  C_21 
REMARK       I    between atoms: C_21  and  N_22 
REMARK    8  A    between atoms: N_22  and  C_23 
REMARK    9  A    between atoms: C_26  and  O_27 
ROOT
HETATM    1  C   UNL     1      -5.261   7.388 -29.575  1.00  0.00     0.068 C 
HETATM    2  C   UNL     1      -6.040   6.557 -28.516  1.00  0.00     0.001 C 
HETATM    3  C   UNL     1      -6.414   5.175 -29.102  1.00  0.00     0.040 C 
HETATM    4  C   UNL     1      -7.359   5.332 -30.310  1.00  0.00     0.206 C 
HETATM    5  N   UNL     1      -7.459   6.828 -30.593  1.00  0.00    -0.065 N 
HETATM    6  H   UNL     1      -8.005   6.934 -31.476  1.00  0.00     0.280 HD
HETATM    7  C   UNL     1      -6.112   7.484 -30.858  1.00  0.00     0.246 C 
HETATM    8  C   UNL     1      -7.352   7.308 -28.195  1.00  0.00     0.033 C 
HETATM    9  C   UNL     1      -8.176   7.527 -29.468  1.00  0.00     0.236 C 
ENDROOT
BRANCH   1  10
HETATM   10  C   UNL     1      -3.870   6.842 -29.816  1.00  0.00     0.045 A 
HETATM   11  N   UNL     1      -2.884   7.240 -28.987  1.00  0.00    -0.233 NA
HETATM   12  C   UNL     1      -1.636   6.804 -29.266  1.00  0.00     0.160 A 
HETATM   13  N   UNL     1      -1.319   6.050 -30.330  1.00  0.00    -0.233 NA
HETATM   14  C   UNL     1      -2.318   5.661 -31.147  1.00  0.00     0.043 A 
HETATM   15  C   UNL     1      -3.629   6.030 -30.911  1.00  0.00     0.055 A 
BRANCH  12  16
HETATM   16  C   UNL     1      -0.553   7.190 -28.351  1.00  0.00     0.014 A 
HETATM   17  C   UNL     1      -0.532   6.748 -27.020  1.00  0.00     0.034 A 
HETATM   18  C   UNL     1       0.511   7.130 -26.192  1.00  0.00     0.117 A 
HETATM   19  N   UNL     1       1.528   7.919 -26.590  1.00  0.00    -0.273 NA
HETATM   20  C   UNL     1       1.493   8.362 -27.861  1.00  0.00     0.117 A 
HETATM   21  C   UNL     1       0.495   8.026 -28.763  1.00  0.00     0.034 A 
ENDBRANCH  12  16
BRANCH  14  22
HETATM   22  C   UNL     1      -1.921   4.795 -32.331  1.00  0.00     0.037 C 
BRANCH  22  23
HETATM   23  C   UNL     1      -1.368   5.609 -33.523  1.00  0.00     0.006 C 
HETATM   24  C   UNL     1      -1.784   5.055 -34.880  1.00  0.00     0.006 C 
ENDBRANCH  22  23
BRANCH  22  25
HETATM   25  C   UNL     1      -3.096   3.909 -32.796  1.00  0.00     0.006 C 
HETATM   26  C   UNL     1      -3.279   2.656 -31.948  1.00  0.00     0.006 C 
ENDBRANCH  22  25
ENDBRANCH  14  22
ENDBRANCH   1  10
BRANCH   4  27
HETATM   27  C   UNL     1      -6.933   4.488 -31.541  1.00  0.00     0.157 C 
BRANCH  27  28
HETATM   28  N   UNL     1      -7.134   3.041 -31.433  1.00  0.00    -0.341 N 
HETATM   29  C   UNL     1      -6.904   2.180 -32.482  1.00  0.00     0.320 C 
HETATM   30  N   UNL     1      -6.862   0.870 -32.084  1.00  0.00    -0.309 N 
HETATM   31  O   UNL     1      -6.771   2.606 -33.624  1.00  0.00    -0.247 OA
HETATM   32  H   UNL     1      -7.101   0.670 -31.122  1.00  0.00     0.170 HD
HETATM   33  H   UNL     1      -6.937   2.653 -30.520  1.00  0.00     0.164 HD
BRANCH  30  34
HETATM   34  C   UNL     1      -6.517  -0.250 -32.873  1.00  0.00     0.036 A 
HETATM   35  C   UNL     1      -7.412  -0.927 -33.700  1.00  0.00     0.032 A 
HETATM   36  C   UNL     1      -6.977  -1.998 -34.489  1.00  0.00     0.039 A 
HETATM   37  C   UNL     1      -5.642  -2.399 -34.475  1.00  0.00     0.068 A 
HETATM   38  C   UNL     1      -4.747  -1.744 -33.632  1.00  0.00     0.039 A 
HETATM   39  C   UNL     1      -5.184  -0.678 -32.835  1.00  0.00     0.032 A 
BRANCH  37  40
HETATM   40  O   UNL     1      -5.347  -3.438 -35.310  1.00  0.00    -0.356 OA
HETATM   41  C   UNL     1      -6.280  -4.512 -35.343  1.00  0.00     0.210 C 
ENDBRANCH  37  40
ENDBRANCH  30  34
ENDBRANCH  27  28
ENDBRANCH   4  27
TORSDOF 9
ENDMDL
MODEL 5
REMARK VINA RESULT:      -8.6      2.052      4.659
REMARK  9 active torsions:
REMARK  status: ('A' for Active; 'I' for Inactive)
REMARK    1  A    between atoms: C_2  and  C_3 
REMARK    2  A    between atoms: C_3  and  C_4 
REMARK    3  A    between atoms: C_3  and  C_38 
REMARK    4  A    between atoms: C_6  and  C_7 
REMARK    5  A    between atoms: C_14  and  C_15 
REMARK    6  A    between atoms: C_18  and  C_19 
REMARK    7  A    between atoms: C_19  and  N_20 
REMARK       I    between atoms: N_20  and  C_21 
REMARK       I    between atoms: C_21  and  N_22 
REMARK    8  A    between atoms: N_22  and  C_23 
REMARK    9  A    between atoms: C_26  and  O_27 
ROOT
HETATM    1  C   UNL     1     -10.908   2.042 -32.871  1.00  0.00     0.068 C 
HETATM    2  C   UNL     1     -10.931   2.027 -34.426  1.00  0.00     0.001 C 
HETATM    3  C   UNL     1     -10.240   3.298 -34.974  1.00  0.00     0.040 C 
HETATM    4  C   UNL     1     -11.004   4.565 -34.541  1.00  0.00     0.206 C 
HETATM    5  N   UNL     1     -12.096   4.107 -33.579  1.00  0.00    -0.065 N 
HETATM    6  H   UNL     1     -12.544   4.968 -33.196  1.00  0.00     0.280 HD
HETATM    7  C   UNL     1     -11.561   3.348 -32.375  1.00  0.00     0.246 C 
HETATM    8  C   UNL     1     -12.408   2.056 -34.879  1.00  0.00     0.033 C 
HETATM    9  C   UNL     1     -13.125   3.284 -34.308  1.00  0.00     0.236 C 
ENDROOT
BRANCH   1  10
HETATM   10  C   UNL     1      -9.516   1.818 -32.320  1.00  0.00     0.045 A 
HETATM   11  N   UNL     1      -9.011   2.749 -31.486  1.00  0.00    -0.233 NA
HETATM   12  C   UNL     1      -7.739   2.571 -31.067  1.00  0.00     0.160 A 
HETATM   13  N   UNL     1      -6.946   1.564 -31.466  1.00  0.00    -0.233 NA
HETATM   14  C   UNL     1      -7.468   0.643 -32.299  1.00  0.00     0.043 A 
HETATM   15  C   UNL     1      -8.774   0.729 -32.743  1.00  0.00     0.055 A 
BRANCH  12  16
HETATM   16  C   UNL     1      -7.183   3.550 -30.123  1.00  0.00     0.014 A 
HETATM   17  C   UNL     1      -8.015   4.415 -29.396  1.00  0.00     0.034 A 
HETATM   18  C   UNL     1      -7.450   5.319 -28.511  1.00  0.00     0.117 A 
HETATM   19  N   UNL     1      -6.123   5.426 -28.301  1.00  0.00    -0.273 NA
HETATM   20  C   UNL     1      -5.325   4.611 -29.017  1.00  0.00     0.117 A 
HETATM   21  C   UNL     1      -5.800   3.671 -29.919  1.00  0.00     0.034 A 
ENDBRANCH  12  16
BRANCH  14  22
HETATM   22  C   UNL     1      -6.544  -0.490 -32.715  1.00  0.00     0.037 C 
BRANCH  22  23
HETATM   23  C   UNL     1      -5.104  -0.021 -33.022  1.00  0.00     0.006 C 
HETATM   24  C   UNL     1      -4.077  -0.513 -32.009  1.00  0.00     0.006 C 
ENDBRANCH  22  23
BRANCH  22  25
HETATM   25  C   UNL     1      -7.116  -1.265 -33.922  1.00  0.00     0.006 C 
HETATM   26  C   UNL     1      -6.141  -2.281 -34.503  1.00  0.00     0.006 C 
ENDBRANCH  22  25
ENDBRANCH  14  22
ENDBRANCH   1  10
BRANCH   4  27
HETATM   27  C   UNL     1     -10.085   5.674 -33.964  1.00  0.00     0.157 C 
BRANCH  27  28
HETATM   28  N   UNL     1      -8.674   5.611 -34.352  1.00  0.00    -0.341 N 
HETATM   29  C   UNL     1      -7.652   5.582 -33.431  1.00  0.00     0.320 C 
HETATM   30  N   UNL     1      -6.454   5.224 -33.989  1.00  0.00    -0.309 N 
HETATM   31  O   UNL     1      -7.859   5.868 -32.256  1.00  0.00    -0.247 OA
HETATM   32  H   UNL     1      -6.421   5.126 -34.995  1.00  0.00     0.170 HD
HETATM   33  H   UNL     1      -8.490   5.090 -35.199  1.00  0.00     0.164 HD
BRANCH  30  34
HETATM   34  C   UNL     1      -5.240   4.968 -33.312  1.00  0.00     0.036 A 
HETATM   35  C   UNL     1      -4.607   3.725 -33.289  1.00  0.00     0.032 A 
HETATM   36  C   UNL     1      -3.380   3.568 -32.636  1.00  0.00     0.039 A 
HETATM   37  C   UNL     1      -2.760   4.648 -32.010  1.00  0.00     0.068 A 
HETATM   38  C   UNL     1      -3.398   5.886 -32.007  1.00  0.00     0.039 A 
HETATM   39  C   UNL     1      -4.632   6.043 -32.652  1.00  0.00     0.032 A 
BRANCH  37  40
HETATM   40  O   UNL     1      -1.555   4.363 -31.434  1.00  0.00    -0.356 OA
HETATM   41  C   UNL     1      -0.522   5.325 -31.613  1.00  0.00     0.210 C 
ENDBRANCH  37  40
ENDBRANCH  30  34
ENDBRANCH  27  28
ENDBRANCH   4  27
TORSDOF 9
ENDMDL
MODEL 6
REMARK VINA RESULT:      -8.5      3.170      6.263
REMARK  9 active torsions:
REMARK  status: ('A' for Active; 'I' for Inactive)
REMARK    1  A    between atoms: C_2  and  C_3 
REMARK    2  A    between atoms: C_3  and  C_4 
REMARK    3  A    between atoms: C_3  and  C_38 
REMARK    4  A    between atoms: C_6  and  C_7 
REMARK    5  A    between atoms: C_14  and  C_15 
REMARK    6  A    between atoms: C_18  and  C_19 
REMARK    7  A    between atoms: C_19  and  N_20 
REMARK       I    between atoms: N_20  and  C_21 
REMARK       I    between atoms: C_21  and  N_22 
REMARK    8  A    between atoms: N_22  and  C_23 
REMARK    9  A    between atoms: C_26  and  O_27 
ROOT
HETATM    1  C   UNL     1      -7.180   3.354 -30.266  1.00  0.00     0.068 C 
HETATM    2  C   UNL     1      -7.557   4.861 -30.322  1.00  0.00     0.001 C 
HETATM    3  C   UNL     1      -6.529   5.630 -31.186  1.00  0.00     0.040 C 
HETATM    4  C   UNL     1      -5.125   5.558 -30.556  1.00  0.00     0.206 C 
HETATM    5  N   UNL     1      -5.228   4.604 -29.369  1.00  0.00    -0.065 N 
HETATM    6  H   UNL     1      -4.259   4.464 -29.007  1.00  0.00     0.280 HD
HETATM    7  C   UNL     1      -5.733   3.220 -29.748  1.00  0.00     0.246 C 
HETATM    8  C   UNL     1      -7.484   5.422 -28.883  1.00  0.00     0.033 C 
HETATM    9  C   UNL     1      -6.089   5.203 -28.288  1.00  0.00     0.236 C 
ENDROOT
BRANCH   1  10
HETATM   10  C   UNL     1      -7.410   2.660 -31.592  1.00  0.00     0.045 A 
HETATM   11  N   UNL     1      -8.558   2.922 -32.249  1.00  0.00    -0.233 NA
HETATM   12  C   UNL     1      -8.780   2.234 -33.391  1.00  0.00     0.160 A 
HETATM   13  N   UNL     1      -7.962   1.286 -33.874  1.00  0.00    -0.233 NA
HETATM   14  C   UNL     1      -6.819   1.039 -33.204  1.00  0.00     0.043 A 
HETATM   15  C   UNL     1      -6.496   1.727 -32.049  1.00  0.00     0.055 A 
BRANCH  12  16
HETATM   16  C   UNL     1     -10.004   2.535 -34.147  1.00  0.00     0.014 A 
HETATM   17  C   UNL     1     -11.002   1.567 -34.334  1.00  0.00     0.034 A 
HETATM   18  C   UNL     1     -12.143   1.894 -35.048  1.00  0.00     0.117 A 
HETATM   19  N   UNL     1     -12.360   3.109 -35.590  1.00  0.00    -0.273 NA
HETATM   20  C   UNL     1     -11.390   4.029 -35.430  1.00  0.00     0.117 A 
HETATM   21  C   UNL     1     -10.219   3.795 -34.725  1.00  0.00     0.034 A 
ENDBRANCH  12  16
BRANCH  14  22
HETATM   22  C   UNL     1      -5.911  -0.028 -33.791  1.00  0.00     0.037 C 
BRANCH  22  23
HETATM   23  C   UNL     1      -6.598  -0.880 -34.884  1.00  0.00     0.006 C 
HETATM   24  C   UNL     1      -6.678  -2.361 -34.537  1.00  0.00     0.006 C 
ENDBRANCH  22  23
BRANCH  22  25
HETATM   25  C   UNL     1      -5.339  -0.945 -32.689  1.00  0.00     0.006 C 
HETATM   26  C   UNL     1      -3.819  -0.899 -32.596  1.00  0.00     0.006 C 
ENDBRANCH  22  25
ENDBRANCH  14  22
ENDBRANCH   1  10
BRANCH   4  27
HETATM   27  C   UNL     1      -4.012   5.179 -31.569  1.00  0.00     0.157 C 
BRANCH  27  28
HETATM   28  N   UNL     1      -2.649   5.109 -31.036  1.00  0.00    -0.341 N 
HETATM   29  C   UNL     1      -2.073   6.142 -30.334  1.00  0.00     0.320 C 
HETATM   30  N   UNL     1      -0.932   5.759 -29.680  1.00  0.00    -0.309 N 
HETATM   31  O   UNL     1      -2.573   7.262 -30.344  1.00  0.00    -0.247 OA
HETATM   32  H   UNL     1      -0.586   4.826 -29.859  1.00  0.00     0.170 HD
HETATM   33  H   UNL     1      -2.357   4.186 -30.742  1.00  0.00     0.164 HD
BRANCH  30  34
HETATM   34  C   UNL     1      -0.173   6.526 -28.769  1.00  0.00     0.036 A 
HETATM   35  C   UNL     1       0.653   7.587 -29.141  1.00  0.00     0.032 A 
HETATM   36  C   UNL     1       1.334   8.329 -28.170  1.00  0.00     0.039 A 
HETATM   37  C   UNL     1       1.189   8.035 -26.815  1.00  0.00     0.068 A 
HETATM   38  C   UNL     1       0.386   6.962 -26.437  1.00  0.00     0.039 A 
HETATM   39  C   UNL     1      -0.288   6.211 -27.409  1.00  0.00     0.032 A 
BRANCH  37  40
HETATM   40  O   UNL     1       1.887   8.853 -25.973  1.00  0.00    -0.356 OA
HETATM   41  C   UNL     1       1.118   9.727 -25.155  1.00  0.00     0.210 C 
ENDBRANCH  37  40
ENDBRANCH  30  34
ENDBRANCH  27  28
ENDBRANCH   4  27
TORSDOF 9
ENDMDL
MODEL 7
REMARK VINA RESULT:      -8.4      3.384      7.919
REMARK  9 active torsions:
REMARK  status: ('A' for Active; 'I' for Inactive)
REMARK    1  A    between atoms: C_2  and  C_3 
REMARK    2  A    between atoms: C_3  and  C_4 
REMARK    3  A    between atoms: C_3  and  C_38 
REMARK    4  A    between atoms: C_6  and  C_7 
REMARK    5  A    between atoms: C_14  and  C_15 
REMARK    6  A    between atoms: C_18  and  C_19 
REMARK    7  A    between atoms: C_19  and  N_20 
REMARK       I    between atoms: N_20  and  C_21 
REMARK       I    between atoms: C_21  and  N_22 
REMARK    8  A    between atoms: N_22  and  C_23 
REMARK    9  A    between atoms: C_26  and  O_27 
ROOT
HETATM    1  C   UNL     1      -6.208   7.188 -29.506  1.00  0.00     0.068 C 
HETATM    2  C   UNL     1      -6.707   6.046 -28.576  1.00  0.00     0.001 C 
HETATM    3  C   UNL     1      -6.787   4.719 -29.369  1.00  0.00     0.040 C 
HETATM    4  C   UNL     1      -7.815   4.828 -30.512  1.00  0.00     0.206 C 
HETATM    5  N   UNL     1      -8.275   6.282 -30.548  1.00  0.00    -0.065 N 
HETATM    6  H   UNL     1      -8.884   6.388 -31.389  1.00  0.00     0.280 HD
HETATM    7  C   UNL     1      -7.135   7.272 -30.735  1.00  0.00     0.246 C 
HETATM    8  C   UNL     1      -8.135   6.406 -28.107  1.00  0.00     0.033 C 
HETATM    9  C   UNL     1      -9.063   6.613 -29.308  1.00  0.00     0.236 C 
ENDROOT
BRANCH   1  10
HETATM   10  C   UNL     1      -4.746   7.031 -29.865  1.00  0.00     0.045 A 
HETATM   11  N   UNL     1      -4.444   6.605 -31.108  1.00  0.00    -0.233 NA
HETATM   12  C   UNL     1      -3.138   6.396 -31.384  1.00  0.00     0.160 A 
HETATM   13  N   UNL     1      -2.145   6.539 -30.493  1.00  0.00    -0.233 NA
HETATM   14  C   UNL     1      -2.465   6.967 -29.256  1.00  0.00     0.043 A 
HETATM   15  C   UNL     1      -3.773   7.242 -28.903  1.00  0.00     0.055 A 
BRANCH  12  16
HETATM   16  C   UNL     1      -2.782   5.974 -32.746  1.00  0.00     0.014 A 
HETATM   17  C   UNL     1      -3.769   5.691 -33.702  1.00  0.00     0.034 A 
HETATM   18  C   UNL     1      -3.390   5.302 -34.977  1.00  0.00     0.117 A 
HETATM   19  N   UNL     1      -2.107   5.171 -35.366  1.00  0.00    -0.273 NA
HETATM   20  C   UNL     1      -1.162   5.420 -34.439  1.00  0.00     0.117 A 
HETATM   21  C   UNL     1      -1.446   5.822 -33.143  1.00  0.00     0.034 A 
ENDBRANCH  12  16
BRANCH  14  22
HETATM   22  C   UNL     1      -1.312   7.132 -28.280  1.00  0.00     0.037 C 
BRANCH  22  23
HETATM   23  C   UNL     1      -1.759   7.631 -26.886  1.00  0.00     0.006 C 
HETATM   24  C   UNL     1      -1.916   6.512 -25.864  1.00  0.00     0.006 C 
ENDBRANCH  22  23
BRANCH  22  25
HETATM   25  C   UNL     1      -0.224   8.067 -28.851  1.00  0.00     0.006 C 
HETATM   26  C   UNL     1       1.071   8.047 -28.047  1.00  0.00     0.006 C 
ENDBRANCH  22  25
ENDBRANCH  14  22
ENDBRANCH   1  10
BRANCH   4  27
HETATM   27  C   UNL     1      -7.282   4.306 -31.873  1.00  0.00     0.157 C 
BRANCH  27  28
HETATM   28  N   UNL     1      -7.552   2.898 -32.176  1.00  0.00    -0.341 N 
HETATM   29  C   UNL     1      -6.658   2.100 -32.853  1.00  0.00     0.320 C 
HETATM   30  N   UNL     1      -6.973   0.770 -32.763  1.00  0.00    -0.309 N 
HETATM   31  O   UNL     1      -5.712   2.593 -33.458  1.00  0.00    -0.247 OA
HETATM   32  H   UNL     1      -7.848   0.529 -32.320  1.00  0.00     0.170 HD
HETATM   33  H   UNL     1      -8.105   2.414 -31.481  1.00  0.00     0.164 HD
BRANCH  30  34
HETATM   34  C   UNL     1      -6.201  -0.321 -33.223  1.00  0.00     0.036 A 
HETATM   35  C   UNL     1      -4.925  -0.628 -32.750  1.00  0.00     0.032 A 
HETATM   36  C   UNL     1      -4.247  -1.757 -33.223  1.00  0.00     0.039 A 
HETATM   37  C   UNL     1      -4.836  -2.603 -34.161  1.00  0.00     0.068 A 
HETATM   38  C   UNL     1      -6.099  -2.289 -34.656  1.00  0.00     0.039 A 
HETATM   39  C   UNL     1      -6.775  -1.153 -34.192  1.00  0.00     0.032 A 
BRANCH  37  40
HETATM   40  O   UNL     1      -4.078  -3.681 -34.516  1.00  0.00    -0.356 OA
HETATM   41  C   UNL     1      -3.556  -4.469 -33.453  1.00  0.00     0.210 C 
ENDBRANCH  37  40
ENDBRANCH  30  34
ENDBRANCH  27  28
ENDBRANCH   4  27
TORSDOF 9
ENDMDL
MODEL 8
REMARK VINA RESULT:      -8.3      4.277      7.303
REMARK  9 active torsions:
REMARK  status: ('A' for Active; 'I' for Inactive)
REMARK    1  A    between atoms: C_2  and  C_3 
REMARK    2  A    between atoms: C_3  and  C_4 
REMARK    3  A    between atoms: C_3  and  C_38 
REMARK    4  A    between atoms: C_6  and  C_7 
REMARK    5  A    between atoms: C_14  and  C_15 
REMARK    6  A    between atoms: C_18  and  C_19 
REMARK    7  A    between atoms: C_19  and  N_20 
REMARK       I    between atoms: N_20  and  C_21 
REMARK       I    between atoms: C_21  and  N_22 
REMARK    8  A    between atoms: N_22  and  C_23 
REMARK    9  A    between atoms: C_26  and  O_27 
ROOT
HETATM    1  C   UNL     1      -3.686   4.783 -33.385  1.00  0.00     0.068 C 
HETATM    2  C   UNL     1      -2.142   4.617 -33.302  1.00  0.00     0.001 C 
HETATM    3  C   UNL     1      -1.651   4.958 -31.875  1.00  0.00     0.040 C 
HETATM    4  C   UNL     1      -1.948   6.431 -31.533  1.00  0.00     0.206 C 
HETATM    5  N   UNL     1      -2.775   6.988 -32.688  1.00  0.00    -0.065 N 
HETATM    6  H   UNL     1      -3.074   7.949 -32.411  1.00  0.00     0.280 HD
HETATM    7  C   UNL     1      -4.059   6.212 -32.941  1.00  0.00     0.246 C 
HETATM    8  C   UNL     1      -1.503   5.631 -34.279  1.00  0.00     0.033 C 
HETATM    9  C   UNL     1      -1.944   7.059 -33.942  1.00  0.00     0.236 C 
ENDROOT
BRANCH   1  10
HETATM   10  C   UNL     1      -4.416   3.705 -32.613  1.00  0.00     0.045 A 
HETATM   11  N   UNL     1      -4.069   2.422 -32.841  1.00  0.00    -0.233 NA
HETATM   12  C   UNL     1      -4.785   1.471 -32.202  1.00  0.00     0.160 A 
HETATM   13  N   UNL     1      -5.835   1.723 -31.405  1.00  0.00    -0.233 NA
HETATM   14  C   UNL     1      -6.167   3.011 -31.188  1.00  0.00     0.043 A 
HETATM   15  C   UNL     1      -5.461   4.046 -31.772  1.00  0.00     0.055 A 
BRANCH  12  16
HETATM   16  C   UNL     1      -4.396   0.067 -32.402  1.00  0.00     0.014 A 
HETATM   17  C   UNL     1      -5.016  -0.729 -33.376  1.00  0.00     0.034 A 
HETATM   18  C   UNL     1      -4.615  -2.045 -33.535  1.00  0.00     0.117 A 
HETATM   19  N   UNL     1      -3.648  -2.625 -32.796  1.00  0.00    -0.273 NA
HETATM   20  C   UNL     1      -3.071  -1.865 -31.845  1.00  0.00     0.117 A 
HETATM   21  C   UNL     1      -3.402  -0.537 -31.619  1.00  0.00     0.034 A 
ENDBRANCH  12  16
BRANCH  14  22
HETATM   22  C   UNL     1      -7.351   3.256 -30.268  1.00  0.00     0.037 C 
BRANCH  22  23
HETATM   23  C   UNL     1      -8.679   2.687 -30.818  1.00  0.00     0.006 C 
HETATM   24  C   UNL     1      -9.485   3.699 -31.623  1.00  0.00     0.006 C 
ENDBRANCH  22  23
BRANCH  22  25
HETATM   25  C   UNL     1      -7.511   4.758 -29.949  1.00  0.00     0.006 C 
HETATM   26  C   UNL     1      -6.908   5.158 -28.608  1.00  0.00     0.006 C 
ENDBRANCH  22  25
ENDBRANCH  14  22
ENDBRANCH   1  10
BRANCH   4  27
HETATM   27  C   UNL     1      -2.607   6.622 -30.141  1.00  0.00     0.157 C 
BRANCH  27  28
HETATM   28  N   UNL     1      -1.742   6.399 -28.980  1.00  0.00    -0.341 N 
HETATM   29  C   UNL     1      -0.889   7.364 -28.495  1.00  0.00     0.320 C 
HETATM   30  N   UNL     1      -0.408   7.058 -27.249  1.00  0.00    -0.309 N 
HETATM   31  O   UNL     1      -0.624   8.359 -29.161  1.00  0.00    -0.247 OA
HETATM   32  H   UNL     1      -0.633   6.146 -26.876  1.00  0.00     0.170 HD
HETATM   33  H   UNL     1      -2.130   5.787 -28.274  1.00  0.00     0.164 HD
BRANCH  30  34
HETATM   34  C   UNL     1       0.376   7.883 -26.412  1.00  0.00     0.036 A 
HETATM   35  C   UNL     1       1.762   7.782 -26.294  1.00  0.00     0.032 A 
HETATM   36  C   UNL     1       2.470   8.672 -25.479  1.00  0.00     0.039 A 
HETATM   37  C   UNL     1       1.810   9.683 -24.783  1.00  0.00     0.068 A 
HETATM   38  C   UNL     1       0.424   9.775 -24.876  1.00  0.00     0.039 A 
HETATM   39  C   UNL     1      -0.288   8.878 -25.684  1.00  0.00     0.032 A 
BRANCH  37  40
HETATM   40  O   UNL     1       2.622  10.498 -24.047  1.00  0.00    -0.356 OA
HETATM   41  C   UNL     1       2.369  10.550 -22.648  1.00  0.00     0.210 C 
ENDBRANCH  37  40
ENDBRANCH  30  34
ENDBRANCH  27  28
ENDBRANCH   4  27
TORSDOF 9
ENDMDL
MODEL 9
REMARK VINA RESULT:      -8.3      2.521      6.589
REMARK  9 active torsions:
REMARK  status: ('A' for Active; 'I' for Inactive)
REMARK    1  A    between atoms: C_2  and  C_3 
REMARK    2  A    between atoms: C_3  and  C_4 
REMARK    3  A    between atoms: C_3  and  C_38 
REMARK    4  A    between atoms: C_6  and  C_7 
REMARK    5  A    between atoms: C_14  and  C_15 
REMARK    6  A    between atoms: C_18  and  C_19 
REMARK    7  A    between atoms: C_19  and  N_20 
REMARK       I    between atoms: N_20  and  C_21 
REMARK       I    between atoms: C_21  and  N_22 
REMARK    8  A    between atoms: N_22  and  C_23 
REMARK    9  A    between atoms: C_26  and  O_27 
ROOT
HETATM    1  C   UNL     1      -6.415   0.674 -34.185  1.00  0.00     0.068 C 
HETATM    2  C   UNL     1      -7.391  -0.352 -33.541  1.00  0.00     0.001 C 
HETATM    3  C   UNL     1      -7.319  -0.249 -31.999  1.00  0.00     0.040 C 
HETATM    4  C   UNL     1      -5.910  -0.614 -31.492  1.00  0.00     0.206 C 
HETATM    5  N   UNL     1      -5.036  -0.795 -32.730  1.00  0.00    -0.065 N 
HETATM    6  H   UNL     1      -4.057  -0.931 -32.393  1.00  0.00     0.280 HD
HETATM    7  C   UNL     1      -4.998   0.433 -33.627  1.00  0.00     0.246 C 
HETATM    8  C   UNL     1      -6.925  -1.769 -33.945  1.00  0.00     0.033 C 
HETATM    9  C   UNL     1      -5.475  -2.006 -33.509  1.00  0.00     0.236 C 
ENDROOT
BRANCH   1  10
HETATM   10  C   UNL     1      -6.894   2.100 -34.014  1.00  0.00     0.045 A 
HETATM   11  N   UNL     1      -8.214   2.342 -34.146  1.00  0.00    -0.233 NA
HETATM   12  C   UNL     1      -8.611   3.630 -34.068  1.00  0.00     0.160 A 
HETATM   13  N   UNL     1      -7.776   4.671 -33.918  1.00  0.00    -0.233 NA
HETATM   14  C   UNL     1      -6.461   4.410 -33.788  1.00  0.00     0.043 A 
HETATM   15  C   UNL     1      -5.975   3.116 -33.817  1.00  0.00     0.055 A 
BRANCH  12  16
HETATM   16  C   UNL     1     -10.050   3.913 -34.164  1.00  0.00     0.014 A 
HETATM   17  C   UNL     1     -10.976   3.273 -33.326  1.00  0.00     0.034 A 
HETATM   18  C   UNL     1     -12.323   3.573 -33.446  1.00  0.00     0.117 A 
HETATM   19  N   UNL     1     -12.814   4.457 -34.336  1.00  0.00    -0.273 NA
HETATM   20  C   UNL     1     -11.925   5.052 -35.155  1.00  0.00     0.117 A 
HETATM   21  C   UNL     1     -10.560   4.821 -35.103  1.00  0.00     0.034 A 
ENDBRANCH  12  16
BRANCH  14  22
HETATM   22  C   UNL     1      -5.550   5.613 -33.605  1.00  0.00     0.037 C 
BRANCH  22  23
HETATM   23  C   UNL     1      -4.055   5.234 -33.494  1.00  0.00     0.006 C 
HETATM   24  C   UNL     1      -3.280   5.441 -34.789  1.00  0.00     0.006 C 
ENDBRANCH  22  23
BRANCH  22  25
HETATM   25  C   UNL     1      -5.973   6.456 -32.383  1.00  0.00     0.006 C 
HETATM   26  C   UNL     1      -4.865   6.620 -31.350  1.00  0.00     0.006 C 
ENDBRANCH  22  25
ENDBRANCH  14  22
ENDBRANCH   1  10
BRANCH   4  27
HETATM   27  C   UNL     1      -5.340   0.401 -30.465  1.00  0.00     0.157 C 
BRANCH  27  28
HETATM   28  N   UNL     1      -6.322   1.238 -29.771  1.00  0.00    -0.341 N 
HETATM   29  C   UNL     1      -6.362   2.606 -29.912  1.00  0.00     0.320 C 
HETATM   30  N   UNL     1      -7.521   3.148 -29.425  1.00  0.00    -0.309 N 
HETATM   31  O   UNL     1      -5.422   3.211 -30.417  1.00  0.00    -0.247 OA
HETATM   32  H   UNL     1      -8.154   2.529 -28.938  1.00  0.00     0.170 HD
HETATM   33  H   UNL     1      -7.224   0.803 -29.630  1.00  0.00     0.164 HD
BRANCH  30  34
HETATM   34  C   UNL     1      -7.943   4.493 -29.531  1.00  0.00     0.036 A 
HETATM   35  C   UNL     1      -7.462   5.527 -28.728  1.00  0.00     0.032 A 
HETATM   36  C   UNL     1      -7.896   6.842 -28.930  1.00  0.00     0.039 A 
HETATM   37  C   UNL     1      -8.802   7.147 -29.944  1.00  0.00     0.068 A 
HETATM   38  C   UNL     1      -9.306   6.116 -30.734  1.00  0.00     0.039 A 
HETATM   39  C   UNL     1      -8.881   4.797 -30.525  1.00  0.00     0.032 A 
BRANCH  37  40
HETATM   40  O   UNL     1      -9.120   8.470 -30.050  1.00  0.00    -0.356 OA
HETATM   41  C   UNL     1      -8.620   9.327 -29.030  1.00  0.00     0.210 C 
ENDBRANCH  37  40
ENDBRANCH  30  34
ENDBRANCH  27  28
ENDBRANCH   4  27
TORSDOF 9
ENDMDL
MODEL 10
REMARK VINA RESULT:      -8.3      2.628      5.076
REMARK  9 active torsions:
REMARK  status: ('A' for Active; 'I' for Inactive)
REMARK    1  A    between atoms: C_2  and  C_3 
REMARK    2  A    between atoms: C_3  and  C_4 
REMARK    3  A    between atoms: C_3  and  C_38 
REMARK    4  A    between atoms: C_6  and  C_7 
REMARK    5  A    between atoms: C_14  and  C_15 
REMARK    6  A    between atoms: C_18  and  C_19 
REMARK    7  A    between atoms: C_19  and  N_20 
REMARK       I    between atoms: N_20  and  C_21 
REMARK       I    between atoms: C_21  and  N_22 
REMARK    8  A    between atoms: N_22  and  C_23 
REMARK    9  A    between atoms: C_26  and  O_27 
ROOT
HETATM    1  C   UNL     1      -9.406   0.882 -34.076  1.00  0.00     0.068 C 
HETATM    2  C   UNL     1      -9.548   2.377 -34.482  1.00  0.00     0.001 C 
HETATM    3  C   UNL     1      -9.214   3.284 -33.274  1.00  0.00     0.040 C 
HETATM    4  C   UNL     1     -10.211   3.051 -32.123  1.00  0.00     0.206 C 
HETATM    5  N   UNL     1     -11.089   1.874 -32.539  1.00  0.00    -0.065 N 
HETATM    6  H   UNL     1     -11.691   1.639 -31.719  1.00  0.00     0.280 HD
HETATM    7  C   UNL     1     -10.299   0.611 -32.849  1.00  0.00     0.246 C 
HETATM    8  C   UNL     1     -11.024   2.625 -34.868  1.00  0.00     0.033 C 
HETATM    9  C   UNL     1     -11.956   2.255 -33.710  1.00  0.00     0.236 C 
ENDROOT
BRANCH   1  10
HETATM   10  C   UNL     1      -7.960   0.485 -33.867  1.00  0.00     0.045 A 
HETATM   11  N   UNL     1      -7.113   1.418 -33.387  1.00  0.00    -0.233 NA
HETATM   12  C   UNL     1      -5.812   1.067 -33.281  1.00  0.00     0.160 A 
HETATM   13  N   UNL     1      -5.315  -0.119 -33.666  1.00  0.00    -0.233 NA
HETATM   14  C   UNL     1      -6.177  -1.039 -34.142  1.00  0.00     0.043 A 
HETATM   15  C   UNL     1      -7.530  -0.775 -34.246  1.00  0.00     0.055 A 
BRANCH  12  16
HETATM   16  C   UNL     1      -4.879   2.053 -32.719  1.00  0.00     0.014 A 
HETATM   17  C   UNL     1      -4.934   3.404 -33.092  1.00  0.00     0.034 A 
HETATM   18  C   UNL     1      -4.039   4.302 -32.533  1.00  0.00     0.117 A 
HETATM   19  N   UNL     1      -3.095   3.953 -31.637  1.00  0.00    -0.273 NA
HETATM   20  C   UNL     1      -3.028   2.651 -31.299  1.00  0.00     0.117 A 
HETATM   21  C   UNL     1      -3.886   1.684 -31.799  1.00  0.00     0.034 A 
ENDBRANCH  12  16
BRANCH  14  22
HETATM   22  C   UNL     1      -5.579  -2.374 -34.553  1.00  0.00     0.037 C 
BRANCH  22  23
HETATM   23  C   UNL     1      -6.556  -3.559 -34.381  1.00  0.00     0.006 C 
HETATM   24  C   UNL     1      -6.710  -4.405 -35.639  1.00  0.00     0.006 C 
ENDBRANCH  22  23
BRANCH  22  25
HETATM   25  C   UNL     1      -4.266  -2.657 -33.791  1.00  0.00     0.006 C 
HETATM   26  C   UNL     1      -3.853  -4.124 -33.827  1.00  0.00     0.006 C 
ENDBRANCH  22  25
ENDBRANCH  14  22
ENDBRANCH   1  10
BRANCH   4  27
HETATM   27  C   UNL     1      -9.529   2.866 -30.741  1.00  0.00     0.157 C 
BRANCH  27  28
HETATM   28  N   UNL     1      -8.126   3.280 -30.653  1.00  0.00    -0.341 N 
HETATM   29  C   UNL     1      -7.730   4.421 -29.992  1.00  0.00     0.320 C 
HETATM   30  N   UNL     1      -6.378   4.457 -29.776  1.00  0.00    -0.309 N 
HETATM   31  O   UNL     1      -8.550   5.275 -29.670  1.00  0.00    -0.247 OA
HETATM   32  H   UNL     1      -5.821   3.728 -30.199  1.00  0.00     0.170 HD
HETATM   33  H   UNL     1      -7.461   2.519 -30.613  1.00  0.00     0.164 HD
BRANCH  30  34
HETATM   34  C   UNL     1      -5.662   5.408 -29.015  1.00  0.00     0.036 A 
HETATM   35  C   UNL     1      -5.616   5.418 -27.621  1.00  0.00     0.032 A 
HETATM   36  C   UNL     1      -4.842   6.366 -26.944  1.00  0.00     0.039 A 
HETATM   37  C   UNL     1      -4.091   7.308 -27.646  1.00  0.00     0.068 A 
HETATM   38  C   UNL     1      -4.152   7.321 -29.037  1.00  0.00     0.039 A 
HETATM   39  C   UNL     1      -4.935   6.378 -29.716  1.00  0.00     0.032 A 
BRANCH  37  40
HETATM   40  O   UNL     1      -3.361   8.157 -26.865  1.00  0.00    -0.356 OA
HETATM   41  C   UNL     1      -2.774   7.597 -25.696  1.00  0.00     0.210 C 
ENDBRANCH  37  40
ENDBRANCH  30  34
ENDBRANCH  27  28
ENDBRANCH   4  27
TORSDOF 9
ENDMDL
