MODEL 1
REMARK VINA RESULT:     -10.5      0.000      0.000
REMARK  8 active torsions:
REMARK  status: ('A' for Active; 'I' for Inactive)
REMARK    1  A    between atoms: C_5  and  C_6 
REMARK    2  A    between atoms: C_11  and  C_12 
REMARK    3  A    between atoms: N_13  and  N_14 
REMARK    4  A    between atoms: C_20  and  C_21 
REMARK    5  A    between atoms: C_21  and  O_22 
REMARK    6  A    between atoms: O_22  and  N_23 
REMARK    7  A    between atoms: N_23  and  C_24 
REMARK    8  A    between atoms: C_24  and  C_25 
ROOT
HETATM    1  N   UNL     1      -8.252   2.967 -33.465  1.00  0.00    -0.180 N 
HETATM    2  C   UNL     1      -9.337   2.118 -33.727  1.00  0.00     0.282 C 
HETATM    3  O   UNL     1      -9.427   0.938 -33.387  1.00  0.00    -0.265 OA
HETATM    4  C   UNL     1     -10.476   2.734 -34.430  1.00  0.00     0.063 A 
HETATM    5  C   UNL     1     -10.431   4.106 -34.673  1.00  0.00     0.074 A 
HETATM    6  N   UNL     1      -9.352   4.904 -34.281  1.00  0.00    -0.230 NA
HETATM    7  C   UNL     1      -8.333   4.330 -33.711  1.00  0.00     0.157 C 
HETATM    8  C   UNL     1     -11.583   1.968 -34.821  1.00  0.00     0.019 A 
HETATM    9  C   UNL     1     -12.658   2.584 -35.461  1.00  0.00     0.001 A 
HETATM   10  C   UNL     1     -12.625   3.956 -35.706  1.00  0.00     0.002 A 
HETATM   11  C   UNL     1     -11.515   4.710 -35.314  1.00  0.00     0.032 A 
ENDROOT
BRANCH   1  12
HETATM   12  N   UNL     1      -7.148   2.517 -32.753  1.00  0.00    -0.174 NA
HETATM   13  C   UNL     1      -6.180   1.980 -33.423  1.00  0.00     0.154 C 
BRANCH  13  14
HETATM   14  C   UNL     1      -5.045   1.449 -32.704  1.00  0.00     0.031 A 
HETATM   15  C   UNL     1      -4.510   0.123 -32.718  1.00  0.00     0.100 A 
HETATM   16  N   UNL     1      -3.397   0.055 -31.965  1.00  0.00    -0.174 NA
HETATM   17  N   UNL     1      -3.263   1.281 -31.444  1.00  0.00    -0.288 N 
HETATM   18  H   UNL     1      -2.483   1.453 -30.819  1.00  0.00     0.188 HD
HETATM   19  C   UNL     1      -4.220   2.154 -31.851  1.00  0.00     0.124 A 
BRANCH  15  20
HETATM   20  C   UNL     1      -5.019  -1.071 -33.401  1.00  0.00    -0.005 A 
HETATM   21  C   UNL     1      -4.153  -2.068 -33.867  1.00  0.00     0.014 A 
HETATM   22  C   UNL     1      -4.652  -3.199 -34.523  1.00  0.00     0.007 A 
HETATM   23  C   UNL     1      -6.025  -3.344 -34.744  1.00  0.00    -0.062 A 
HETATM   24  C   UNL     1      -6.570  -4.551 -35.446  1.00  0.00     0.048 C 
HETATM   25  C   UNL     1      -6.893  -2.345 -34.288  1.00  0.00     0.007 A 
HETATM   26  C   UNL     1      -6.394  -1.219 -33.627  1.00  0.00     0.014 A 
ENDBRANCH  15  20
ENDBRANCH  13  14
ENDBRANCH   1  12
BRANCH   7  27
HETATM   27  C   UNL     1      -7.158   5.215 -33.270  1.00  0.00     0.274 C 
BRANCH  27  28
HETATM   28  O   UNL     1      -6.048   5.344 -34.147  1.00  0.00    -0.293 OA
BRANCH  28  29
HETATM   29  N   UNL     1      -4.906   5.606 -33.383  1.00  0.00    -0.171 NA
HETATM   30  H   UNL     1      -4.900   5.137 -32.474  1.00  0.00     0.160 HD
BRANCH  29  31
HETATM   31  C   UNL     1      -3.673   5.541 -34.007  1.00  0.00     0.035 C 
HETATM   32  C   UNL     1      -3.466   5.217 -35.292  1.00  0.00     0.039 C 
BRANCH  31  33
HETATM   33  C   UNL     1      -2.505   5.896 -33.175  1.00  0.00    -0.014 A 
HETATM   34  C   UNL     1      -2.183   7.244 -32.967  1.00  0.00     0.013 A 
HETATM   35  C   UNL     1      -1.080   7.595 -32.186  1.00  0.00     0.001 A 
HETATM   36  C   UNL     1      -0.294   6.601 -31.603  1.00  0.00     0.000 A 
HETATM   37  C   UNL     1      -0.611   5.257 -31.797  1.00  0.00     0.001 A 
HETATM   38  C   UNL     1      -1.713   4.905 -32.581  1.00  0.00     0.013 A 
ENDBRANCH  31  33
ENDBRANCH  29  31
ENDBRANCH  28  29
ENDBRANCH  27  28
ENDBRANCH   7  27
TORSDOF 8
ENDMDL
MODEL 2
REMARK VINA RESULT:     -10.5      2.211      6.572
REMARK  8 active torsions:
REMARK  status: ('A' for Active; 'I' for Inactive)
REMARK    1  A    between atoms: C_5  and  C_6 
REMARK    2  A    between atoms: C_11  and  C_12 
REMARK    3  A    between atoms: N_13  and  N_14 
REMARK    4  A    between atoms: C_20  and  C_21 
REMARK    5  A    between atoms: C_21  and  O_22 
REMARK    6  A    between atoms: O_22  and  N_23 
REMARK    7  A    between atoms: N_23  and  C_24 
REMARK    8  A    between atoms: C_24  and  C_25 
ROOT
HETATM    1  N   UNL     1      -5.291   5.308 -32.527  1.00  0.00    -0.180 N 
HETATM    2  C   UNL     1      -4.432   5.574 -33.603  1.00  0.00     0.282 C 
HETATM    3  O   UNL     1      -4.734   5.523 -34.795  1.00  0.00    -0.265 OA
HETATM    4  C   UNL     1      -3.068   5.998 -33.241  1.00  0.00     0.063 A 
HETATM    5  C   UNL     1      -2.782   6.205 -31.893  1.00  0.00     0.074 A 
HETATM    6  N   UNL     1      -3.733   6.018 -30.885  1.00  0.00    -0.230 NA
HETATM    7  C   UNL     1      -4.915   5.590 -31.221  1.00  0.00     0.157 C 
HETATM    8  C   UNL     1      -2.094   6.214 -34.226  1.00  0.00     0.019 A 
HETATM    9  C   UNL     1      -0.820   6.641 -33.856  1.00  0.00     0.001 A 
HETATM   10  C   UNL     1      -0.523   6.852 -32.511  1.00  0.00     0.002 A 
HETATM   11  C   UNL     1      -1.501   6.634 -31.536  1.00  0.00     0.032 A 
ENDROOT
BRANCH   1  12
HETATM   12  N   UNL     1      -6.619   4.961 -32.740  1.00  0.00    -0.174 NA
HETATM   13  C   UNL     1      -6.858   3.902 -33.444  1.00  0.00     0.154 C 
BRANCH  13  14
HETATM   14  C   UNL     1      -8.228   3.551 -33.734  1.00  0.00     0.031 A 
HETATM   15  C   UNL     1      -8.791   2.264 -34.002  1.00  0.00     0.100 A 
HETATM   16  N   UNL     1     -10.125   2.354 -34.150  1.00  0.00    -0.174 NA
HETATM   17  N   UNL     1     -10.394   3.661 -34.037  1.00  0.00    -0.288 N 
HETATM   18  H   UNL     1     -11.357   3.962 -34.135  1.00  0.00     0.188 HD
HETATM   19  C   UNL     1      -9.298   4.422 -33.789  1.00  0.00     0.124 A 
BRANCH  15  20
HETATM   20  C   UNL     1      -8.114   0.970 -34.135  1.00  0.00    -0.005 A 
HETATM   21  C   UNL     1      -8.362  -0.078 -33.239  1.00  0.00     0.014 A 
HETATM   22  C   UNL     1      -7.703  -1.305 -33.374  1.00  0.00     0.007 A 
HETATM   23  C   UNL     1      -6.770  -1.501 -34.397  1.00  0.00    -0.062 A 
HETATM   24  C   UNL     1      -6.059  -2.813 -34.550  1.00  0.00     0.048 C 
HETATM   25  C   UNL     1      -6.512  -0.455 -35.289  1.00  0.00     0.007 A 
HETATM   26  C   UNL     1      -7.175   0.769 -35.156  1.00  0.00     0.014 A 
ENDBRANCH  15  20
ENDBRANCH  13  14
ENDBRANCH   1  12
BRANCH   7  27
HETATM   27  C   UNL     1      -5.959   5.402 -30.111  1.00  0.00     0.274 C 
BRANCH  27  28
HETATM   28  O   UNL     1      -5.884   4.231 -29.311  1.00  0.00    -0.293 OA
BRANCH  28  29
HETATM   29  N   UNL     1      -5.171   3.255 -30.017  1.00  0.00    -0.171 NA
HETATM   30  H   UNL     1      -4.286   2.992 -29.577  1.00  0.00     0.160 HD
BRANCH  29  31
HETATM   31  C   UNL     1      -5.861   2.155 -30.491  1.00  0.00     0.035 C 
HETATM   32  C   UNL     1      -7.173   1.927 -30.325  1.00  0.00     0.039 C 
BRANCH  31  33
HETATM   33  C   UNL     1      -5.072   1.180 -31.271  1.00  0.00    -0.014 A 
HETATM   34  C   UNL     1      -5.125  -0.181 -30.942  1.00  0.00     0.013 A 
HETATM   35  C   UNL     1      -4.382  -1.114 -31.668  1.00  0.00     0.001 A 
HETATM   36  C   UNL     1      -3.585  -0.693 -32.733  1.00  0.00     0.000 A 
HETATM   37  C   UNL     1      -3.533   0.658 -33.074  1.00  0.00     0.001 A 
HETATM   38  C   UNL     1      -4.273   1.592 -32.346  1.00  0.00     0.013 A 
ENDBRANCH  31  33
ENDBRANCH  29  31
ENDBRANCH  28  29
ENDBRANCH  27  28
ENDBRANCH   7  27
TORSDOF 8
ENDMDL
MODEL 3
REMARK VINA RESULT:     -10.4      2.679      6.819
REMARK  8 active torsions:
REMARK  status: ('A' for Active; 'I' for Inactive)
REMARK    1  A    between atoms: C_5  and  C_6 
REMARK    2  A    between atoms: C_11  and  C_12 
REMARK    3  A    between atoms: N_13  and  N_14 
REMARK    4  A    between atoms: C_20  and  C_21 
REMARK    5  A    between atoms: C_21  and  O_22 
REMARK    6  A    between atoms: O_22  and  N_23 
REMARK    7  A    between atoms: N_23  and  C_24 
REMARK    8  A    between atoms: C_24  and  C_25 
ROOT
HETATM    1  N   UNL     1      -5.946  -0.008 -33.349  1.00  0.00    -0.180 N 
HETATM    2  C   UNL     1      -6.760  -0.975 -33.956  1.00  0.00     0.282 C 
HETATM    3  O   UNL     1      -7.918  -0.805 -34.339  1.00  0.00    -0.265 OA
HETATM    4  C   UNL     1      -6.130  -2.287 -34.188  1.00  0.00     0.063 A 
HETATM    5  C   UNL     1      -4.774  -2.423 -33.895  1.00  0.00     0.074 A 
HETATM    6  N   UNL     1      -4.005  -1.371 -33.390  1.00  0.00    -0.230 NA
HETATM    7  C   UNL     1      -4.593  -0.238 -33.141  1.00  0.00     0.157 C 
HETATM    8  C   UNL     1      -6.866  -3.359 -34.712  1.00  0.00     0.019 A 
HETATM    9  C   UNL     1      -6.237  -4.580 -34.945  1.00  0.00     0.001 A 
HETATM   10  C   UNL     1      -4.881  -4.727 -34.658  1.00  0.00     0.002 A 
HETATM   11  C   UNL     1      -4.156  -3.652 -34.135  1.00  0.00     0.032 A 
ENDROOT
BRANCH   1  12
HETATM   12  N   UNL     1      -6.408   1.285 -33.137  1.00  0.00    -0.174 NA
HETATM   13  C   UNL     1      -6.469   2.076 -34.159  1.00  0.00     0.154 C 
BRANCH  13  14
HETATM   14  C   UNL     1      -6.888   3.443 -33.959  1.00  0.00     0.031 A 
HETATM   15  C   UNL     1      -8.212   3.977 -33.875  1.00  0.00     0.100 A 
HETATM   16  N   UNL     1      -8.173   5.295 -33.608  1.00  0.00    -0.174 NA
HETATM   17  N   UNL     1      -6.869   5.600 -33.581  1.00  0.00    -0.288 N 
HETATM   18  H   UNL     1      -6.606   6.564 -33.408  1.00  0.00     0.188 HD
HETATM   19  C   UNL     1      -6.056   4.532 -33.785  1.00  0.00     0.124 A 
BRANCH  15  20
HETATM   20  C   UNL     1      -9.496   3.293 -34.051  1.00  0.00    -0.005 A 
HETATM   21  C   UNL     1      -9.814   2.140 -33.322  1.00  0.00     0.014 A 
HETATM   22  C   UNL     1     -11.041   1.493 -33.505  1.00  0.00     0.007 A 
HETATM   23  C   UNL     1     -11.966   1.975 -34.437  1.00  0.00    -0.062 A 
HETATM   24  C   UNL     1     -13.284   1.290 -34.640  1.00  0.00     0.048 C 
HETATM   25  C   UNL     1     -11.649   3.122 -35.175  1.00  0.00     0.007 A 
HETATM   26  C   UNL     1     -10.425   3.770 -34.986  1.00  0.00     0.014 A 
ENDBRANCH  15  20
ENDBRANCH  13  14
ENDBRANCH   1  12
BRANCH   7  27
HETATM   27  C   UNL     1      -3.739   0.918 -32.600  1.00  0.00     0.274 C 
BRANCH  27  28
HETATM   28  O   UNL     1      -3.605   1.052 -31.193  1.00  0.00    -0.293 OA
BRANCH  28  29
HETATM   29  N   UNL     1      -4.334   2.174 -30.782  1.00  0.00    -0.171 NA
HETATM   30  H   UNL     1      -4.377   2.918 -31.482  1.00  0.00     0.160 HD
BRANCH  29  31
HETATM   31  C   UNL     1      -5.556   1.970 -30.168  1.00  0.00     0.035 C 
HETATM   32  C   UNL     1      -5.958   0.827 -29.590  1.00  0.00     0.039 C 
BRANCH  31  33
HETATM   33  C   UNL     1      -6.465   3.133 -30.127  1.00  0.00    -0.014 A 
HETATM   34  C   UNL     1      -7.849   2.940 -30.230  1.00  0.00     0.013 A 
HETATM   35  C   UNL     1      -8.720   4.031 -30.197  1.00  0.00     0.001 A 
HETATM   36  C   UNL     1      -8.214   5.323 -30.055  1.00  0.00     0.000 A 
HETATM   37  C   UNL     1      -6.839   5.525 -29.943  1.00  0.00     0.001 A 
HETATM   38  C   UNL     1      -5.967   4.435 -29.979  1.00  0.00     0.013 A 
ENDBRANCH  31  33
ENDBRANCH  29  31
ENDBRANCH  28  29
ENDBRANCH  27  28
ENDBRANCH   7  27
TORSDOF 8
ENDMDL
MODEL 4
REMARK VINA RESULT:     -10.2      2.714      6.663
REMARK  8 active torsions:
REMARK  status: ('A' for Active; 'I' for Inactive)
REMARK    1  A    between atoms: C_5  and  C_6 
REMARK    2  A    between atoms: C_11  and  C_12 
REMARK    3  A    between atoms: N_13  and  N_14 
REMARK    4  A    between atoms: C_20  and  C_21 
REMARK    5  A    between atoms: C_21  and  O_22 
REMARK    6  A    between atoms: O_22  and  N_23 
REMARK    7  A    between atoms: N_23  and  C_24 
REMARK    8  A    between atoms: C_24  and  C_25 
ROOT
HETATM    1  N   UNL     1      -7.149   0.397 -31.714  1.00  0.00    -0.180 N 
HETATM    2  C   UNL     1      -7.504  -0.278 -32.891  1.00  0.00     0.282 C 
HETATM    3  O   UNL     1      -8.564  -0.150 -33.503  1.00  0.00    -0.265 OA
HETATM    4  C   UNL     1      -6.477  -1.179 -33.445  1.00  0.00     0.063 A 
HETATM    5  C   UNL     1      -5.225  -1.200 -32.833  1.00  0.00     0.074 A 
HETATM    6  N   UNL     1      -4.918  -0.410 -31.721  1.00  0.00    -0.230 NA
HETATM    7  C   UNL     1      -5.855   0.336 -31.214  1.00  0.00     0.157 C 
HETATM    8  C   UNL     1      -6.744  -1.971 -34.570  1.00  0.00     0.019 A 
HETATM    9  C   UNL     1      -5.745  -2.793 -35.089  1.00  0.00     0.001 A 
HETATM   10  C   UNL     1      -4.488  -2.821 -34.486  1.00  0.00     0.002 A 
HETATM   11  C   UNL     1      -4.233  -2.028 -33.363  1.00  0.00     0.032 A 
ENDROOT
BRANCH   1  12
HETATM   12  N   UNL     1      -8.008   1.320 -31.132  1.00  0.00    -0.174 NA
HETATM   13  C   UNL     1      -8.082   2.494 -31.670  1.00  0.00     0.154 C 
BRANCH  13  14
HETATM   14  C   UNL     1      -8.921   3.494 -31.052  1.00  0.00     0.031 A 
HETATM   15  C   UNL     1      -8.634   4.868 -30.779  1.00  0.00     0.100 A 
HETATM   16  N   UNL     1      -9.713   5.481 -30.258  1.00  0.00    -0.174 NA
HETATM   17  N   UNL     1     -10.634   4.516 -30.149  1.00  0.00    -0.288 N 
HETATM   18  H   UNL     1     -11.537   4.758 -29.756  1.00  0.00     0.188 HD
HETATM   19  C   UNL     1     -10.215   3.308 -30.607  1.00  0.00     0.124 A 
BRANCH  15  20
HETATM   20  C   UNL     1      -7.385   5.608 -30.980  1.00  0.00    -0.005 A 
HETATM   21  C   UNL     1      -7.155   6.347 -32.148  1.00  0.00     0.014 A 
HETATM   22  C   UNL     1      -5.954   7.043 -32.329  1.00  0.00     0.007 A 
HETATM   23  C   UNL     1      -4.952   6.996 -31.355  1.00  0.00    -0.062 A 
HETATM   24  C   UNL     1      -3.662   7.737 -31.539  1.00  0.00     0.048 C 
HETATM   25  C   UNL     1      -5.173   6.251 -30.190  1.00  0.00     0.007 A 
HETATM   26  C   UNL     1      -6.376   5.561 -30.008  1.00  0.00     0.014 A 
ENDBRANCH  15  20
ENDBRANCH  13  14
ENDBRANCH   1  12
BRANCH   7  27
HETATM   27  C   UNL     1      -5.506   1.212 -30.002  1.00  0.00     0.274 C 
BRANCH  27  28
HETATM   28  O   UNL     1      -4.923   2.485 -30.240  1.00  0.00    -0.293 OA
BRANCH  28  29
HETATM   29  N   UNL     1      -4.002   2.364 -31.287  1.00  0.00    -0.171 NA
HETATM   30  H   UNL     1      -3.878   1.405 -31.619  1.00  0.00     0.160 HD
BRANCH  29  31
HETATM   31  C   UNL     1      -4.076   3.268 -32.331  1.00  0.00     0.035 C 
HETATM   32  C   UNL     1      -5.114   3.408 -33.169  1.00  0.00     0.039 C 
BRANCH  31  33
HETATM   33  C   UNL     1      -2.916   4.167 -32.494  1.00  0.00    -0.014 A 
HETATM   34  C   UNL     1      -2.046   4.385 -31.417  1.00  0.00     0.013 A 
HETATM   35  C   UNL     1      -0.947   5.235 -31.555  1.00  0.00     0.001 A 
HETATM   36  C   UNL     1      -0.706   5.869 -32.774  1.00  0.00     0.000 A 
HETATM   37  C   UNL     1      -1.560   5.652 -33.855  1.00  0.00     0.001 A 
HETATM   38  C   UNL     1      -2.662   4.805 -33.716  1.00  0.00     0.013 A 
ENDBRANCH  31  33
ENDBRANCH  29  31
ENDBRANCH  28  29
ENDBRANCH  27  28
ENDBRANCH   7  27
TORSDOF 8
ENDMDL
MODEL 5
REMARK VINA RESULT:     -10.1      1.938      8.460
REMARK  8 active torsions:
REMARK  status: ('A' for Active; 'I' for Inactive)
REMARK    1  A    between atoms: C_5  and  C_6 
REMARK    2  A    between atoms: C_11  and  C_12 
REMARK    3  A    between atoms: N_13  and  N_14 
REMARK    4  A    between atoms: C_20  and  C_21 
REMARK    5  A    between atoms: C_21  and  O_22 
REMARK    6  A    between atoms: O_22  and  N_23 
REMARK    7  A    between atoms: N_23  and  C_24 
REMARK    8  A    between atoms: C_24  and  C_25 
ROOT
HETATM    1  N   UNL     1      -6.700   3.092 -32.989  1.00  0.00    -0.180 N 
HETATM    2  C   UNL     1      -6.246   4.261 -33.617  1.00  0.00     0.282 C 
HETATM    3  O   UNL     1      -6.958   5.147 -34.090  1.00  0.00    -0.265 OA
HETATM    4  C   UNL     1      -4.784   4.439 -33.657  1.00  0.00     0.063 A 
HETATM    5  C   UNL     1      -3.993   3.510 -32.983  1.00  0.00     0.074 A 
HETATM    6  N   UNL     1      -4.534   2.425 -32.286  1.00  0.00    -0.230 NA
HETATM    7  C   UNL     1      -5.824   2.256 -32.310  1.00  0.00     0.157 C 
HETATM    8  C   UNL     1      -4.207   5.525 -34.330  1.00  0.00     0.019 A 
HETATM    9  C   UNL     1      -2.822   5.681 -34.328  1.00  0.00     0.001 A 
HETATM   10  C   UNL     1      -2.021   4.760 -33.656  1.00  0.00     0.002 A 
HETATM   11  C   UNL     1      -2.606   3.680 -32.988  1.00  0.00     0.032 A 
ENDROOT
BRANCH   1  12
HETATM   12  N   UNL     1      -8.057   2.845 -32.834  1.00  0.00    -0.174 NA
HETATM   13  C   UNL     1      -8.682   2.282 -33.817  1.00  0.00     0.154 C 
BRANCH  13  14
HETATM   14  C   UNL     1     -10.105   2.067 -33.709  1.00  0.00     0.031 A 
HETATM   15  C   UNL     1     -11.174   3.002 -33.880  1.00  0.00     0.100 A 
HETATM   16  N   UNL     1     -12.364   2.385 -33.767  1.00  0.00    -0.174 NA
HETATM   17  N   UNL     1     -12.062   1.113 -33.475  1.00  0.00    -0.288 N 
HETATM   18  H   UNL     1     -12.825   0.462 -33.328  1.00  0.00     0.188 HD
HETATM   19  C   UNL     1     -10.728   0.867 -33.427  1.00  0.00     0.124 A 
BRANCH  15  20
HETATM   20  C   UNL     1     -11.107   4.445 -34.131  1.00  0.00    -0.005 A 
HETATM   21  C   UNL     1     -11.674   5.367 -33.242  1.00  0.00     0.014 A 
HETATM   22  C   UNL     1     -11.608   6.741 -33.499  1.00  0.00     0.007 A 
HETATM   23  C   UNL     1     -10.991   7.218 -34.659  1.00  0.00    -0.062 A 
HETATM   24  C   UNL     1     -10.915   8.688 -34.943  1.00  0.00     0.048 C 
HETATM   25  C   UNL     1     -10.431   6.300 -35.556  1.00  0.00     0.007 A 
HETATM   26  C   UNL     1     -10.493   4.928 -35.295  1.00  0.00     0.014 A 
ENDBRANCH  15  20
ENDBRANCH  13  14
ENDBRANCH   1  12
BRANCH   7  27
HETATM   27  C   UNL     1      -6.413   1.072 -31.530  1.00  0.00     0.274 C 
BRANCH  27  28
HETATM   28  O   UNL     1      -6.064  -0.242 -31.940  1.00  0.00    -0.293 OA
BRANCH  28  29
HETATM   29  N   UNL     1      -5.518  -0.176 -33.227  1.00  0.00    -0.171 NA
HETATM   30  H   UNL     1      -4.501  -0.277 -33.250  1.00  0.00     0.160 HD
BRANCH  29  31
HETATM   31  C   UNL     1      -6.133  -0.897 -34.235  1.00  0.00     0.035 C 
HETATM   32  C   UNL     1      -7.006  -0.402 -35.126  1.00  0.00     0.039 C 
BRANCH  31  33
HETATM   33  C   UNL     1      -5.755  -2.321 -34.338  1.00  0.00    -0.014 A 
HETATM   34  C   UNL     1      -6.692  -3.259 -34.790  1.00  0.00     0.013 A 
HETATM   35  C   UNL     1      -6.350  -4.609 -34.890  1.00  0.00     0.001 A 
HETATM   36  C   UNL     1      -5.066  -5.030 -34.545  1.00  0.00     0.000 A 
HETATM   37  C   UNL     1      -4.123  -4.103 -34.103  1.00  0.00     0.001 A 
HETATM   38  C   UNL     1      -4.465  -2.752 -34.000  1.00  0.00     0.013 A 
ENDBRANCH  31  33
ENDBRANCH  29  31
ENDBRANCH  28  29
ENDBRANCH  27  28
ENDBRANCH   7  27
TORSDOF 8
ENDMDL
MODEL 6
REMARK VINA RESULT:     -10.0      2.166      8.079
REMARK  8 active torsions:
REMARK  status: ('A' for Active; 'I' for Inactive)
REMARK    1  A    between atoms: C_5  and  C_6 
REMARK    2  A    between atoms: C_11  and  C_12 
REMARK    3  A    between atoms: N_13  and  N_14 
REMARK    4  A    between atoms: C_20  and  C_21 
REMARK    5  A    between atoms: C_21  and  O_22 
REMARK    6  A    between atoms: O_22  and  N_23 
REMARK    7  A    between atoms: N_23  and  C_24 
REMARK    8  A    between atoms: C_24  and  C_25 
ROOT
HETATM    1  N   UNL     1      -5.116   0.274 -33.042  1.00  0.00    -0.180 N 
HETATM    2  C   UNL     1      -4.301  -0.629 -32.345  1.00  0.00     0.282 C 
HETATM    3  O   UNL     1      -3.705  -0.397 -31.293  1.00  0.00    -0.265 OA
HETATM    4  C   UNL     1      -4.208  -1.983 -32.920  1.00  0.00     0.063 A 
HETATM    5  C   UNL     1      -5.008  -2.282 -34.021  1.00  0.00     0.074 A 
HETATM    6  N   UNL     1      -5.879  -1.350 -34.594  1.00  0.00    -0.230 NA
HETATM    7  C   UNL     1      -5.904  -0.145 -34.105  1.00  0.00     0.157 C 
HETATM    8  C   UNL     1      -3.361  -2.948 -32.359  1.00  0.00     0.019 A 
HETATM    9  C   UNL     1      -3.314  -4.229 -32.909  1.00  0.00     0.001 A 
HETATM   10  C   UNL     1      -4.111  -4.540 -34.009  1.00  0.00     0.002 A 
HETATM   11  C   UNL     1      -4.953  -3.569 -34.561  1.00  0.00     0.032 A 
ENDROOT
BRANCH   1  12
HETATM   12  N   UNL     1      -5.332   1.560 -32.564  1.00  0.00    -0.174 NA
HETATM   13  C   UNL     1      -5.800   1.683 -31.364  1.00  0.00     0.154 C 
BRANCH  13  14
HETATM   14  C   UNL     1      -6.091   3.006 -30.862  1.00  0.00     0.031 A 
HETATM   15  C   UNL     1      -5.526   4.262 -31.248  1.00  0.00     0.100 A 
HETATM   16  N   UNL     1      -6.124   5.271 -30.589  1.00  0.00    -0.174 NA
HETATM   17  N   UNL     1      -6.997   4.673 -29.769  1.00  0.00    -0.288 N 
HETATM   18  H   UNL     1      -7.555   5.256 -29.156  1.00  0.00     0.188 HD
HETATM   19  C   UNL     1      -7.019   3.321 -29.890  1.00  0.00     0.124 A 
BRANCH  15  20
HETATM   20  C   UNL     1      -4.443   4.533 -32.199  1.00  0.00    -0.005 A 
HETATM   21  C   UNL     1      -4.706   5.036 -33.480  1.00  0.00     0.014 A 
HETATM   22  C   UNL     1      -3.663   5.284 -34.379  1.00  0.00     0.007 A 
HETATM   23  C   UNL     1      -2.339   5.015 -34.021  1.00  0.00    -0.062 A 
HETATM   24  C   UNL     1      -1.214   5.277 -34.977  1.00  0.00     0.048 C 
HETATM   25  C   UNL     1      -2.071   4.504 -32.746  1.00  0.00     0.007 A 
HETATM   26  C   UNL     1      -3.114   4.262 -31.847  1.00  0.00     0.014 A 
ENDBRANCH  15  20
ENDBRANCH  13  14
ENDBRANCH   1  12
BRANCH   7  27
HETATM   27  C   UNL     1      -6.874   0.869 -34.730  1.00  0.00     0.274 C 
BRANCH  27  28
HETATM   28  O   UNL     1      -8.190   0.435 -35.041  1.00  0.00    -0.293 OA
BRANCH  28  29
HETATM   29  N   UNL     1      -8.866   0.170 -33.845  1.00  0.00    -0.171 NA
HETATM   30  H   UNL     1      -8.310  -0.352 -33.163  1.00  0.00     0.160 HD
BRANCH  29  31
HETATM   31  C   UNL     1      -9.576   1.200 -33.254  1.00  0.00     0.035 C 
HETATM   32  C   UNL     1      -9.459   1.596 -31.977  1.00  0.00     0.039 C 
BRANCH  31  33
HETATM   33  C   UNL     1     -10.511   1.931 -34.133  1.00  0.00    -0.014 A 
HETATM   34  C   UNL     1     -10.188   3.221 -34.573  1.00  0.00     0.013 A 
HETATM   35  C   UNL     1     -11.064   3.926 -35.401  1.00  0.00     0.001 A 
HETATM   36  C   UNL     1     -12.267   3.343 -35.800  1.00  0.00     0.000 A 
HETATM   37  C   UNL     1     -12.593   2.056 -35.374  1.00  0.00     0.001 A 
HETATM   38  C   UNL     1     -11.719   1.352 -34.544  1.00  0.00     0.013 A 
ENDBRANCH  31  33
ENDBRANCH  29  31
ENDBRANCH  28  29
ENDBRANCH  27  28
ENDBRANCH   7  27
TORSDOF 8
ENDMDL
MODEL 7
REMARK VINA RESULT:      -9.9      1.588      6.104
REMARK  8 active torsions:
REMARK  status: ('A' for Active; 'I' for Inactive)
REMARK    1  A    between atoms: C_5  and  C_6 
REMARK    2  A    between atoms: C_11  and  C_12 
REMARK    3  A    between atoms: N_13  and  N_14 
REMARK    4  A    between atoms: C_20  and  C_21 
REMARK    5  A    between atoms: C_21  and  O_22 
REMARK    6  A    between atoms: O_22  and  N_23 
REMARK    7  A    between atoms: N_23  and  C_24 
REMARK    8  A    between atoms: C_24  and  C_25 
ROOT
HETATM    1  N   UNL     1      -6.037   0.065 -33.184  1.00  0.00    -0.180 N 
HETATM    2  C   UNL     1      -6.646  -0.874 -34.029  1.00  0.00     0.282 C 
HETATM    3  O   UNL     1      -7.670  -0.692 -34.689  1.00  0.00    -0.265 OA
HETATM    4  C   UNL     1      -5.950  -2.166 -34.156  1.00  0.00     0.063 A 
HETATM    5  C   UNL     1      -4.712  -2.307 -33.530  1.00  0.00     0.074 A 
HETATM    6  N   UNL     1      -4.122  -1.279 -32.790  1.00  0.00    -0.230 NA
HETATM    7  C   UNL     1      -4.779  -0.165 -32.645  1.00  0.00     0.157 C 
HETATM    8  C   UNL     1      -6.503  -3.213 -34.906  1.00  0.00     0.019 A 
HETATM    9  C   UNL     1      -5.808  -4.415 -35.030  1.00  0.00     0.001 A 
HETATM   10  C   UNL     1      -4.569  -4.567 -34.410  1.00  0.00     0.002 A 
HETATM   11  C   UNL     1      -4.027  -3.517 -33.664  1.00  0.00     0.032 A 
ENDROOT
BRANCH   1  12
HETATM   12  N   UNL     1      -6.565   1.341 -33.033  1.00  0.00    -0.174 NA
HETATM   13  C   UNL     1      -6.616   2.098 -34.081  1.00  0.00     0.154 C 
BRANCH  13  14
HETATM   14  C   UNL     1      -7.104   3.450 -33.943  1.00  0.00     0.031 A 
HETATM   15  C   UNL     1      -8.454   3.922 -33.913  1.00  0.00     0.100 A 
HETATM   16  N   UNL     1      -8.485   5.249 -33.694  1.00  0.00    -0.174 NA
HETATM   17  N   UNL     1      -7.198   5.617 -33.644  1.00  0.00    -0.288 N 
HETATM   18  H   UNL     1      -6.986   6.598 -33.500  1.00  0.00     0.188 HD
HETATM   19  C   UNL     1      -6.330   4.583 -33.788  1.00  0.00     0.124 A 
BRANCH  15  20
HETATM   20  C   UNL     1      -9.699   3.170 -34.097  1.00  0.00    -0.005 A 
HETATM   21  C   UNL     1     -10.671   3.583 -35.018  1.00  0.00     0.014 A 
HETATM   22  C   UNL     1     -11.858   2.859 -35.178  1.00  0.00     0.007 A 
HETATM   23  C   UNL     1     -12.104   1.720 -34.405  1.00  0.00    -0.062 A 
HETATM   24  C   UNL     1     -13.373   0.938 -34.569  1.00  0.00     0.048 C 
HETATM   25  C   UNL     1     -11.141   1.309 -33.478  1.00  0.00     0.007 A 
HETATM   26  C   UNL     1      -9.953   2.029 -33.323  1.00  0.00     0.014 A 
ENDBRANCH  15  20
ENDBRANCH  13  14
ENDBRANCH   1  12
BRANCH   7  27
HETATM   27  C   UNL     1      -4.118   0.966 -31.844  1.00  0.00     0.274 C 
BRANCH  27  28
HETATM   28  O   UNL     1      -3.356   1.933 -32.551  1.00  0.00    -0.293 OA
BRANCH  28  29
HETATM   29  N   UNL     1      -2.823   2.840 -31.629  1.00  0.00    -0.171 NA
HETATM   30  H   UNL     1      -1.801   2.873 -31.624  1.00  0.00     0.160 HD
BRANCH  29  31
HETATM   31  C   UNL     1      -3.381   4.103 -31.557  1.00  0.00     0.035 C 
HETATM   32  C   UNL     1      -4.440   4.447 -30.808  1.00  0.00     0.039 C 
BRANCH  31  33
HETATM   33  C   UNL     1      -2.717   5.153 -32.356  1.00  0.00    -0.014 A 
HETATM   34  C   UNL     1      -2.814   6.494 -31.962  1.00  0.00     0.013 A 
HETATM   35  C   UNL     1      -2.194   7.498 -32.709  1.00  0.00     0.001 A 
HETATM   36  C   UNL     1      -1.468   7.167 -33.853  1.00  0.00     0.000 A 
HETATM   37  C   UNL     1      -1.357   5.835 -34.248  1.00  0.00     0.001 A 
HETATM   38  C   UNL     1      -1.980   4.831 -33.503  1.00  0.00     0.013 A 
ENDBRANCH  31  33
ENDBRANCH  29  31
ENDBRANCH  28  29
ENDBRANCH  27  28
ENDBRANCH   7  27
TORSDOF 8
ENDMDL
MODEL 8
REMARK VINA RESULT:      -9.8      2.247      7.286
REMARK  8 active torsions:
REMARK  status: ('A' for Active; 'I' for Inactive)
REMARK    1  A    between atoms: C_5  and  C_6 
REMARK    2  A    between atoms: C_11  and  C_12 
REMARK    3  A    between atoms: N_13  and  N_14 
REMARK    4  A    between atoms: C_20  and  C_21 
REMARK    5  A    between atoms: C_21  and  O_22 
REMARK    6  A    between atoms: O_22  and  N_23 
REMARK    7  A    between atoms: N_23  and  C_24 
REMARK    8  A    between atoms: C_24  and  C_25 
ROOT
HETATM    1  N   UNL     1      -6.475   0.287 -33.527  1.00  0.00    -0.180 N 
HETATM    2  C   UNL     1      -5.302  -0.447 -33.299  1.00  0.00     0.282 C 
HETATM    3  O   UNL     1      -4.313  -0.051 -32.682  1.00  0.00    -0.265 OA
HETATM    4  C   UNL     1      -5.301  -1.828 -33.814  1.00  0.00     0.063 A 
HETATM    5  C   UNL     1      -6.480  -2.319 -34.373  1.00  0.00     0.074 A 
HETATM    6  N   UNL     1      -7.645  -1.552 -34.465  1.00  0.00    -0.230 NA
HETATM    7  C   UNL     1      -7.608  -0.318 -34.055  1.00  0.00     0.157 C 
HETATM    8  C   UNL     1      -4.157  -2.633 -33.720  1.00  0.00     0.019 A 
HETATM    9  C   UNL     1      -4.195  -3.944 -34.192  1.00  0.00     0.001 A 
HETATM   10  C   UNL     1      -5.369  -4.446 -34.751  1.00  0.00     0.002 A 
HETATM   11  C   UNL     1      -6.504  -3.635 -34.840  1.00  0.00     0.032 A 
ENDROOT
BRANCH   1  12
HETATM   12  N   UNL     1      -6.619   1.577 -33.034  1.00  0.00    -0.174 NA
HETATM   13  C   UNL     1      -6.503   1.748 -31.757  1.00  0.00     0.154 C 
BRANCH  13  14
HETATM   14  C   UNL     1      -6.708   3.069 -31.208  1.00  0.00     0.031 A 
HETATM   15  C   UNL     1      -6.002   4.280 -31.491  1.00  0.00     0.100 A 
HETATM   16  N   UNL     1      -6.551   5.312 -30.823  1.00  0.00    -0.174 NA
HETATM   17  N   UNL     1      -7.533   4.765 -30.097  1.00  0.00    -0.288 N 
HETATM   18  H   UNL     1      -8.078   5.371 -29.494  1.00  0.00     0.188 HD
HETATM   19  C   UNL     1      -7.671   3.427 -30.287  1.00  0.00     0.124 A 
BRANCH  15  20
HETATM   20  C   UNL     1      -4.832   4.489 -32.350  1.00  0.00    -0.005 A 
HETATM   21  C   UNL     1      -3.541   4.167 -31.914  1.00  0.00     0.014 A 
HETATM   22  C   UNL     1      -2.433   4.378 -32.743  1.00  0.00     0.007 A 
HETATM   23  C   UNL     1      -2.594   4.935 -34.015  1.00  0.00    -0.062 A 
HETATM   24  C   UNL     1      -1.413   5.166 -34.910  1.00  0.00     0.048 C 
HETATM   25  C   UNL     1      -3.881   5.268 -34.451  1.00  0.00     0.007 A 
HETATM   26  C   UNL     1      -4.988   5.051 -33.625  1.00  0.00     0.014 A 
ENDBRANCH  15  20
ENDBRANCH  13  14
ENDBRANCH   1  12
BRANCH   7  27
HETATM   27  C   UNL     1      -8.895   0.514 -34.145  1.00  0.00     0.274 C 
BRANCH  27  28
HETATM   28  O   UNL     1      -9.879   0.340 -33.137  1.00  0.00    -0.293 OA
BRANCH  28  29
HETATM   29  N   UNL     1      -9.985   1.530 -32.409  1.00  0.00    -0.171 NA
HETATM   30  H   UNL     1      -9.088   1.894 -32.079  1.00  0.00     0.160 HD
BRANCH  29  31
HETATM   31  C   UNL     1     -10.798   2.532 -32.908  1.00  0.00     0.035 C 
HETATM   32  C   UNL     1     -12.063   2.373 -33.326  1.00  0.00     0.039 C 
BRANCH  31  33
HETATM   33  C   UNL     1     -10.213   3.887 -32.941  1.00  0.00    -0.014 A 
HETATM   34  C   UNL     1      -9.173   4.175 -33.836  1.00  0.00     0.013 A 
HETATM   35  C   UNL     1      -8.607   5.451 -33.876  1.00  0.00     0.001 A 
HETATM   36  C   UNL     1      -9.081   6.450 -33.026  1.00  0.00     0.000 A 
HETATM   37  C   UNL     1     -10.121   6.177 -32.139  1.00  0.00     0.001 A 
HETATM   38  C   UNL     1     -10.685   4.900 -32.096  1.00  0.00     0.013 A 
ENDBRANCH  31  33
ENDBRANCH  29  31
ENDBRANCH  28  29
ENDBRANCH  27  28
ENDBRANCH   7  27
TORSDOF 8
ENDMDL
MODEL 9
REMARK VINA RESULT:      -9.8      2.469      8.328
REMARK  8 active torsions:
REMARK  status: ('A' for Active; 'I' for Inactive)
REMARK    1  A    between atoms: C_5  and  C_6 
REMARK    2  A    between atoms: C_11  and  C_12 
REMARK    3  A    between atoms: N_13  and  N_14 
REMARK    4  A    between atoms: C_20  and  C_21 
REMARK    5  A    between atoms: C_21  and  O_22 
REMARK    6  A    between atoms: O_22  and  N_23 
REMARK    7  A    between atoms: N_23  and  C_24 
REMARK    8  A    between atoms: C_24  and  C_25 
ROOT
HETATM    1  N   UNL     1      -5.457   0.006 -32.828  1.00  0.00    -0.180 N 
HETATM    2  C   UNL     1      -4.571  -1.081 -32.868  1.00  0.00     0.282 C 
HETATM    3  O   UNL     1      -3.481  -1.143 -32.298  1.00  0.00    -0.265 OA
HETATM    4  C   UNL     1      -5.035  -2.256 -33.625  1.00  0.00     0.063 A 
HETATM    5  C   UNL     1      -6.333  -2.237 -34.134  1.00  0.00     0.074 A 
HETATM    6  N   UNL     1      -7.194  -1.149 -33.958  1.00  0.00    -0.230 NA
HETATM    7  C   UNL     1      -6.745  -0.100 -33.334  1.00  0.00     0.157 C 
HETATM    8  C   UNL     1      -4.206  -3.372 -33.805  1.00  0.00     0.019 A 
HETATM    9  C   UNL     1      -4.682  -4.481 -34.504  1.00  0.00     0.001 A 
HETATM   10  C   UNL     1      -5.979  -4.473 -35.016  1.00  0.00     0.002 A 
HETATM   11  C   UNL     1      -6.797  -3.355 -34.831  1.00  0.00     0.032 A 
ENDROOT
BRANCH   1  12
HETATM   12  N   UNL     1      -5.158   1.146 -32.094  1.00  0.00    -0.174 NA
HETATM   13  C   UNL     1      -4.490   2.083 -32.685  1.00  0.00     0.154 C 
BRANCH  13  14
HETATM   14  C   UNL     1      -4.112   3.255 -31.928  1.00  0.00     0.031 A 
HETATM   15  C   UNL     1      -4.942   4.158 -31.193  1.00  0.00     0.100 A 
HETATM   16  N   UNL     1      -4.192   5.082 -30.565  1.00  0.00    -0.174 NA
HETATM   17  N   UNL     1      -2.934   4.811 -30.936  1.00  0.00    -0.288 N 
HETATM   18  H   UNL     1      -2.192   5.406 -30.586  1.00  0.00     0.188 HD
HETATM   19  C   UNL     1      -2.828   3.730 -31.751  1.00  0.00     0.124 A 
BRANCH  15  20
HETATM   20  C   UNL     1      -6.403   4.183 -31.076  1.00  0.00    -0.005 A 
HETATM   21  C   UNL     1      -7.066   3.481 -30.061  1.00  0.00     0.014 A 
HETATM   22  C   UNL     1      -8.462   3.509 -29.966  1.00  0.00     0.007 A 
HETATM   23  C   UNL     1      -9.222   4.223 -30.897  1.00  0.00    -0.062 A 
HETATM   24  C   UNL     1     -10.719   4.259 -30.804  1.00  0.00     0.048 C 
HETATM   25  C   UNL     1      -8.565   4.919 -31.919  1.00  0.00     0.007 A 
HETATM   26  C   UNL     1      -7.171   4.895 -32.009  1.00  0.00     0.014 A 
ENDBRANCH  15  20
ENDBRANCH  13  14
ENDBRANCH   1  12
BRANCH   7  27
HETATM   27  C   UNL     1      -7.701   1.084 -33.130  1.00  0.00     0.274 C 
BRANCH  27  28
HETATM   28  O   UNL     1      -8.999   0.819 -32.620  1.00  0.00    -0.293 OA
BRANCH  28  29
HETATM   29  N   UNL     1      -9.889   0.723 -33.696  1.00  0.00    -0.171 NA
HETATM   30  H   UNL     1     -10.405  -0.159 -33.727  1.00  0.00     0.160 HD
BRANCH  29  31
HETATM   31  C   UNL     1     -10.700   1.808 -33.972  1.00  0.00     0.035 C 
HETATM   32  C   UNL     1     -10.292   2.972 -34.499  1.00  0.00     0.039 C 
BRANCH  31  33
HETATM   33  C   UNL     1     -12.139   1.633 -33.686  1.00  0.00    -0.014 A 
HETATM   34  C   UNL     1     -12.747   0.390 -33.909  1.00  0.00     0.013 A 
HETATM   35  C   UNL     1     -14.107   0.210 -33.647  1.00  0.00     0.001 A 
HETATM   36  C   UNL     1     -14.867   1.271 -33.153  1.00  0.00     0.000 A 
HETATM   37  C   UNL     1     -14.270   2.508 -32.919  1.00  0.00     0.001 A 
HETATM   38  C   UNL     1     -12.910   2.690 -33.184  1.00  0.00     0.013 A 
ENDBRANCH  31  33
ENDBRANCH  29  31
ENDBRANCH  28  29
ENDBRANCH  27  28
ENDBRANCH   7  27
TORSDOF 8
ENDMDL
MODEL 10
REMARK VINA RESULT:      -9.8      2.332      8.332
REMARK  8 active torsions:
REMARK  status: ('A' for Active; 'I' for Inactive)
REMARK    1  A    between atoms: C_5  and  C_6 
REMARK    2  A    between atoms: C_11  and  C_12 
REMARK    3  A    between atoms: N_13  and  N_14 
REMARK    4  A    between atoms: C_20  and  C_21 
REMARK    5  A    between atoms: C_21  and  O_22 
REMARK    6  A    between atoms: O_22  and  N_23 
REMARK    7  A    between atoms: N_23  and  C_24 
REMARK    8  A    between atoms: C_24  and  C_25 
ROOT
HETATM    1  N   UNL     1      -6.255   0.776 -33.152  1.00  0.00    -0.180 N 
HETATM    2  C   UNL     1      -5.129  -0.061 -33.181  1.00  0.00     0.282 C 
HETATM    3  O   UNL     1      -4.018   0.211 -32.725  1.00  0.00    -0.265 OA
HETATM    4  C   UNL     1      -5.339  -1.395 -33.771  1.00  0.00     0.063 A 
HETATM    5  C   UNL     1      -6.634  -1.751 -34.140  1.00  0.00     0.074 A 
HETATM    6  N   UNL     1      -7.726  -0.892 -33.979  1.00  0.00    -0.230 NA
HETATM    7  C   UNL     1      -7.510   0.301 -33.507  1.00  0.00     0.157 C 
HETATM    8  C   UNL     1      -4.271  -2.289 -33.930  1.00  0.00     0.019 A 
HETATM    9  C   UNL     1      -4.505  -3.554 -34.467  1.00  0.00     0.001 A 
HETATM   10  C   UNL     1      -5.797  -3.922 -34.838  1.00  0.00     0.002 A 
HETATM   11  C   UNL     1      -6.854  -3.022 -34.676  1.00  0.00     0.032 A 
ENDROOT
BRANCH   1  12
HETATM   12  N   UNL     1      -6.197   2.032 -32.564  1.00  0.00    -0.174 NA
HETATM   13  C   UNL     1      -6.268   2.096 -31.274  1.00  0.00     0.154 C 
BRANCH  13  14
HETATM   14  C   UNL     1      -6.271   3.392 -30.638  1.00  0.00     0.031 A 
HETATM   15  C   UNL     1      -5.511   4.559 -30.966  1.00  0.00     0.100 A 
HETATM   16  N   UNL     1      -5.862   5.588 -30.174  1.00  0.00    -0.174 NA
HETATM   17  N   UNL     1      -6.771   5.078 -29.333  1.00  0.00    -0.288 N 
HETATM   18  H   UNL     1      -7.165   5.688 -28.626  1.00  0.00     0.188 HD
HETATM   19  C   UNL     1      -7.053   3.770 -29.564  1.00  0.00     0.124 A 
BRANCH  15  20
HETATM   20  C   UNL     1      -4.468   4.726 -31.982  1.00  0.00    -0.005 A 
HETATM   21  C   UNL     1      -4.733   5.363 -33.201  1.00  0.00     0.014 A 
HETATM   22  C   UNL     1      -3.729   5.509 -34.165  1.00  0.00     0.007 A 
HETATM   23  C   UNL     1      -2.446   5.002 -33.935  1.00  0.00    -0.062 A 
HETATM   24  C   UNL     1      -1.363   5.154 -34.961  1.00  0.00     0.048 C 
HETATM   25  C   UNL     1      -2.178   4.357 -32.723  1.00  0.00     0.007 A 
HETATM   26  C   UNL     1      -3.181   4.217 -31.759  1.00  0.00     0.014 A 
ENDBRANCH  15  20
ENDBRANCH  13  14
ENDBRANCH   1  12
BRANCH   7  27
HETATM   27  C   UNL     1      -8.715   1.233 -33.318  1.00  0.00     0.274 C 
BRANCH  27  28
HETATM   28  O   UNL     1      -9.129   2.027 -34.420  1.00  0.00    -0.293 OA
BRANCH  28  29
HETATM   29  N   UNL     1     -10.419   1.632 -34.793  1.00  0.00    -0.171 NA
HETATM   30  H   UNL     1     -10.725   0.759 -34.358  1.00  0.00     0.160 HD
BRANCH  29  31
HETATM   31  C   UNL     1     -11.419   2.587 -34.799  1.00  0.00     0.035 C 
HETATM   32  C   UNL     1     -11.324   3.813 -35.336  1.00  0.00     0.039 C 
BRANCH  31  33
HETATM   33  C   UNL     1     -12.702   2.186 -34.187  1.00  0.00    -0.014 A 
HETATM   34  C   UNL     1     -13.243   2.947 -33.142  1.00  0.00     0.013 A 
HETATM   35  C   UNL     1     -14.453   2.579 -32.550  1.00  0.00     0.001 A 
HETATM   36  C   UNL     1     -15.135   1.450 -33.005  1.00  0.00     0.000 A 
HETATM   37  C   UNL     1     -14.610   0.691 -34.050  1.00  0.00     0.001 A 
HETATM   38  C   UNL     1     -13.398   1.057 -34.640  1.00  0.00     0.013 A 
ENDBRANCH  31  33
ENDBRANCH  29  31
ENDBRANCH  28  29
ENDBRANCH  27  28
ENDBRANCH   7  27
TORSDOF 8
ENDMDL
