MODEL 1
REMARK VINA RESULT:     -10.0      0.000      0.000
REMARK  6 active torsions:
REMARK  status: ('A' for Active; 'I' for Inactive)
REMARK    1  A    between atoms: C_2  and  C_3 
REMARK    2  A    between atoms: C_3  and  N_4 
REMARK    3  A    between atoms: C_10  and  S_11 
REMARK    4  A    between atoms: S_11  and  C_12 
REMARK    5  A    between atoms: C_12  and  C_13 
REMARK       I    between atoms: C_13  and  N_14 
REMARK    6  A    between atoms: N_14  and  C_15 
ROOT
HETATM    1  N   UNL     1      -2.385   4.738 -33.908  1.00  0.00    -0.063 N 
HETATM    2  H   UNL     1      -2.225   4.112 -34.707  1.00  0.00     0.280 HD
HETATM    3  C   UNL     1      -2.793   3.848 -32.739  1.00  0.00     0.281 C 
HETATM    4  C   UNL     1      -4.227   3.447 -32.768  1.00  0.00     0.060 A 
HETATM    5  C   UNL     1      -5.142   3.919 -33.627  1.00  0.00     0.052 A 
HETATM    6  N   UNL     1      -6.466   3.564 -33.604  1.00  0.00    -0.228 NA
HETATM    7  C   UNL     1      -6.839   2.710 -32.710  1.00  0.00     0.169 A 
HETATM    8  N   UNL     1      -5.997   2.145 -31.805  1.00  0.00    -0.302 N 
HETATM    9  C   UNL     1      -4.677   2.472 -31.755  1.00  0.00     0.257 A 
HETATM   10  O   UNL     1      -3.890   2.025 -30.933  1.00  0.00    -0.267 OA
HETATM   11  C   UNL     1      -4.758   4.940 -34.665  1.00  0.00     0.088 C 
HETATM   12  C   UNL     1      -3.487   5.702 -34.293  1.00  0.00     0.241 C 
HETATM   13  H   UNL     1      -6.358   1.486 -31.130  1.00  0.00     0.171 HD
ENDROOT
BRANCH   7  14
HETATM   14  S   UNL     1      -8.485   2.184 -32.540  1.00  0.00    -0.083 SA
BRANCH  14  15
HETATM   15  C   UNL     1      -8.729   1.454 -34.189  1.00  0.00     0.185 C 
BRANCH  15  16
HETATM   16  C   UNL     1      -7.606   0.531 -34.630  1.00  0.00     0.232 C 
HETATM   17  N   UNL     1      -7.276  -0.465 -33.729  1.00  0.00    -0.324 N 
HETATM   18  H   UNL     1      -7.468  -0.251 -32.756  1.00  0.00     0.169 HD
HETATM   19  O   UNL     1      -7.094   0.686 -35.736  1.00  0.00    -0.272 OA
BRANCH  17  20
HETATM   20  C   UNL     1      -6.437  -1.570 -33.996  1.00  0.00     0.076 A 
HETATM   21  C   UNL     1      -5.052  -1.581 -33.763  1.00  0.00     0.143 A 
HETATM   22  F   UNL     1      -4.406  -0.478 -33.357  1.00  0.00    -0.204 F 
HETATM   23  C   UNL     1      -4.279  -2.707 -34.050  1.00  0.00     0.047 A 
HETATM   24  C   UNL     1      -4.880  -3.840 -34.591  1.00  0.00     0.045 A 
HETATM   25  C   UNL     1      -6.245  -3.820 -34.857  1.00  0.00     0.118 A 
HETATM   26  F   UNL     1      -6.825  -4.902 -35.394  1.00  0.00    -0.206 F 
HETATM   27  C   UNL     1      -7.024  -2.699 -34.578  1.00  0.00     0.074 A 
ENDBRANCH  17  20
ENDBRANCH  15  16
ENDBRANCH  14  15
ENDBRANCH   7  14
BRANCH   1  28
HETATM   28  C   UNL     1      -1.084   5.466 -33.663  1.00  0.00     0.273 C 
BRANCH  28  29
HETATM   29  C   UNL     1      -0.933   5.983 -32.259  1.00  0.00    -0.030 A 
HETATM   30  C   UNL     1      -1.576   7.181 -31.864  1.00  0.00     0.012 A 
HETATM   31  C   UNL     1      -1.426   7.684 -30.567  1.00  0.00     0.040 A 
HETATM   32  C   UNL     1      -0.632   6.978 -29.691  1.00  0.00     0.105 A 
HETATM   33  C   UNL     1      -0.010   5.812 -30.063  1.00  0.00     0.105 A 
HETATM   34  O   UNL     1      -0.363   7.323 -28.406  1.00  0.00    -0.323 OA
HETATM   35  C   UNL     1      -0.139   5.286 -31.331  1.00  0.00     0.048 A 
HETATM   36  O   UNL     1       0.730   5.275 -29.057  1.00  0.00    -0.323 OA
HETATM   37  C   UNL     1       0.531   6.258 -28.015  1.00  0.00     0.352 A 
ENDBRANCH  28  29
ENDBRANCH   1  28
TORSDOF 6
ENDMDL
MODEL 2
REMARK VINA RESULT:      -9.9      1.466      2.206
REMARK  6 active torsions:
REMARK  status: ('A' for Active; 'I' for Inactive)
REMARK    1  A    between atoms: C_2  and  C_3 
REMARK    2  A    between atoms: C_3  and  N_4 
REMARK    3  A    between atoms: C_10  and  S_11 
REMARK    4  A    between atoms: S_11  and  C_12 
REMARK    5  A    between atoms: C_12  and  C_13 
REMARK       I    between atoms: C_13  and  N_14 
REMARK    6  A    between atoms: N_14  and  C_15 
ROOT
HETATM    1  N   UNL     1      -3.216   4.212 -31.778  1.00  0.00    -0.063 N 
HETATM    2  H   UNL     1      -3.458   4.676 -30.893  1.00  0.00     0.280 HD
HETATM    3  C   UNL     1      -4.291   4.614 -32.782  1.00  0.00     0.281 C 
HETATM    4  C   UNL     1      -5.546   3.822 -32.659  1.00  0.00     0.060 A 
HETATM    5  C   UNL     1      -5.709   2.752 -31.867  1.00  0.00     0.052 A 
HETATM    6  N   UNL     1      -6.863   2.016 -31.805  1.00  0.00    -0.228 NA
HETATM    7  C   UNL     1      -7.852   2.394 -32.545  1.00  0.00     0.169 A 
HETATM    8  N   UNL     1      -7.813   3.476 -33.366  1.00  0.00    -0.302 N 
HETATM    9  C   UNL     1      -6.690   4.236 -33.495  1.00  0.00     0.257 A 
HETATM   10  O   UNL     1      -6.592   5.191 -34.252  1.00  0.00    -0.267 OA
HETATM   11  C   UNL     1      -4.572   2.257 -31.013  1.00  0.00     0.088 C 
HETATM   12  C   UNL     1      -3.210   2.719 -31.527  1.00  0.00     0.241 C 
HETATM   13  H   UNL     1      -8.623   3.712 -33.920  1.00  0.00     0.171 HD
ENDROOT
BRANCH   7  14
HETATM   14  S   UNL     1      -9.367   1.547 -32.595  1.00  0.00    -0.083 SA
BRANCH  14  15
HETATM   15  C   UNL     1      -9.264   0.868 -34.281  1.00  0.00     0.185 C 
BRANCH  15  16
HETATM   16  C   UNL     1      -7.942   0.189 -34.596  1.00  0.00     0.232 C 
HETATM   17  N   UNL     1      -7.609  -0.863 -33.763  1.00  0.00    -0.324 N 
HETATM   18  H   UNL     1      -8.000  -0.817 -32.828  1.00  0.00     0.169 HD
HETATM   19  O   UNL     1      -7.280   0.570 -35.559  1.00  0.00    -0.272 OA
BRANCH  17  20
HETATM   20  C   UNL     1      -6.562  -1.785 -33.984  1.00  0.00     0.076 A 
HETATM   21  C   UNL     1      -5.222  -1.555 -33.629  1.00  0.00     0.143 A 
HETATM   22  F   UNL     1      -4.826  -0.371 -33.140  1.00  0.00    -0.204 F 
HETATM   23  C   UNL     1      -4.234  -2.509 -33.876  1.00  0.00     0.047 A 
HETATM   24  C   UNL     1      -4.570  -3.709 -34.497  1.00  0.00     0.045 A 
HETATM   25  C   UNL     1      -5.888  -3.926 -34.881  1.00  0.00     0.118 A 
HETATM   26  F   UNL     1      -6.213  -5.072 -35.495  1.00  0.00    -0.206 F 
HETATM   27  C   UNL     1      -6.881  -2.977 -34.644  1.00  0.00     0.074 A 
ENDBRANCH  17  20
ENDBRANCH  15  16
ENDBRANCH  14  15
ENDBRANCH   7  14
BRANCH   1  28
HETATM   28  C   UNL     1      -1.841   4.707 -32.163  1.00  0.00     0.273 C 
BRANCH  28  29
HETATM   29  C   UNL     1      -1.125   5.430 -31.056  1.00  0.00    -0.030 A 
HETATM   30  C   UNL     1      -0.041   4.816 -30.383  1.00  0.00     0.012 A 
HETATM   31  C   UNL     1       0.619   5.469 -29.338  1.00  0.00     0.040 A 
HETATM   32  C   UNL     1       0.181   6.726 -28.984  1.00  0.00     0.105 A 
HETATM   33  C   UNL     1      -0.864   7.333 -29.636  1.00  0.00     0.105 A 
HETATM   34  O   UNL     1       0.690   7.497 -27.989  1.00  0.00    -0.323 OA
HETATM   35  C   UNL     1      -1.536   6.719 -30.673  1.00  0.00     0.048 A 
HETATM   36  O   UNL     1      -1.145   8.564 -29.133  1.00  0.00    -0.323 OA
HETATM   37  C   UNL     1      -0.175   8.651 -28.062  1.00  0.00     0.352 A 
ENDBRANCH  28  29
ENDBRANCH   1  28
TORSDOF 6
ENDMDL
MODEL 3
REMARK VINA RESULT:      -9.6      3.314      8.836
REMARK  6 active torsions:
REMARK  status: ('A' for Active; 'I' for Inactive)
REMARK    1  A    between atoms: C_2  and  C_3 
REMARK    2  A    between atoms: C_3  and  N_4 
REMARK    3  A    between atoms: C_10  and  S_11 
REMARK    4  A    between atoms: S_11  and  C_12 
REMARK    5  A    between atoms: C_12  and  C_13 
REMARK       I    between atoms: C_13  and  N_14 
REMARK    6  A    between atoms: N_14  and  C_15 
ROOT
HETATM    1  N   UNL     1      -6.406   0.553 -33.761  1.00  0.00    -0.063 N 
HETATM    2  H   UNL     1      -5.400   0.438 -33.586  1.00  0.00     0.280 HD
HETATM    3  C   UNL     1      -6.622   2.029 -34.078  1.00  0.00     0.281 C 
HETATM    4  C   UNL     1      -6.689   2.893 -32.867  1.00  0.00     0.060 A 
HETATM    5  C   UNL     1      -6.718   2.448 -31.602  1.00  0.00     0.052 A 
HETATM    6  N   UNL     1      -6.824   3.265 -30.507  1.00  0.00    -0.228 NA
HETATM    7  C   UNL     1      -6.880   4.538 -30.715  1.00  0.00     0.169 A 
HETATM    8  N   UNL     1      -6.833   5.106 -31.950  1.00  0.00    -0.302 N 
HETATM    9  C   UNL     1      -6.755   4.352 -33.081  1.00  0.00     0.257 A 
HETATM   10  O   UNL     1      -6.754   4.814 -34.213  1.00  0.00    -0.267 OA
HETATM   11  C   UNL     1      -6.687   0.970 -31.314  1.00  0.00     0.088 C 
HETATM   12  C   UNL     1      -7.142   0.132 -32.507  1.00  0.00     0.241 C 
HETATM   13  H   UNL     1      -6.885   6.110 -32.040  1.00  0.00     0.171 HD
ENDROOT
BRANCH   7  14
HETATM   14  S   UNL     1      -7.042   5.696 -29.432  1.00  0.00    -0.083 SA
BRANCH  14  15
HETATM   15  C   UNL     1      -5.295   5.826 -28.936  1.00  0.00     0.185 C 
BRANCH  15  16
HETATM   16  C   UNL     1      -4.398   6.460 -29.985  1.00  0.00     0.232 C 
HETATM   17  N   UNL     1      -3.507   5.597 -30.595  1.00  0.00    -0.324 N 
HETATM   18  H   UNL     1      -3.229   4.796 -30.038  1.00  0.00     0.169 HD
HETATM   19  O   UNL     1      -4.531   7.652 -30.255  1.00  0.00    -0.272 OA
BRANCH  17  20
HETATM   20  C   UNL     1      -2.737   5.888 -31.743  1.00  0.00     0.076 A 
HETATM   21  C   UNL     1      -1.569   6.668 -31.730  1.00  0.00     0.143 A 
HETATM   22  F   UNL     1      -1.158   7.287 -30.614  1.00  0.00    -0.204 F 
HETATM   23  C   UNL     1      -0.853   6.918 -32.902  1.00  0.00     0.047 A 
HETATM   24  C   UNL     1      -1.306   6.401 -34.114  1.00  0.00     0.045 A 
HETATM   25  C   UNL     1      -2.481   5.659 -34.136  1.00  0.00     0.118 A 
HETATM   26  F   UNL     1      -2.930   5.174 -35.301  1.00  0.00    -0.206 F 
HETATM   27  C   UNL     1      -3.204   5.408 -32.971  1.00  0.00     0.074 A 
ENDBRANCH  17  20
ENDBRANCH  15  16
ENDBRANCH  14  15
ENDBRANCH   7  14
BRANCH   1  28
HETATM   28  C   UNL     1      -6.747  -0.350 -34.924  1.00  0.00     0.273 C 
BRANCH  28  29
HETATM   29  C   UNL     1      -6.250  -1.760 -34.763  1.00  0.00    -0.030 A 
HETATM   30  C   UNL     1      -7.060  -2.854 -35.153  1.00  0.00     0.012 A 
HETATM   31  C   UNL     1      -6.618  -4.171 -34.989  1.00  0.00     0.040 A 
HETATM   32  C   UNL     1      -5.373  -4.368 -34.435  1.00  0.00     0.105 A 
HETATM   33  C   UNL     1      -4.577  -3.313 -34.061  1.00  0.00     0.105 A 
HETATM   34  O   UNL     1      -4.791  -5.570 -34.189  1.00  0.00    -0.323 OA
HETATM   35  C   UNL     1      -4.980  -2.003 -34.212  1.00  0.00     0.048 A 
HETATM   36  O   UNL     1      -3.392  -3.718 -33.531  1.00  0.00    -0.323 OA
HETATM   37  C   UNL     1      -3.547  -5.156 -33.583  1.00  0.00     0.352 A 
ENDBRANCH  28  29
ENDBRANCH   1  28
TORSDOF 6
ENDMDL
MODEL 4
REMARK VINA RESULT:      -9.4      3.440      9.240
REMARK  6 active torsions:
REMARK  status: ('A' for Active; 'I' for Inactive)
REMARK    1  A    between atoms: C_2  and  C_3 
REMARK    2  A    between atoms: C_3  and  N_4 
REMARK    3  A    between atoms: C_10  and  S_11 
REMARK    4  A    between atoms: S_11  and  C_12 
REMARK    5  A    between atoms: C_12  and  C_13 
REMARK       I    between atoms: C_13  and  N_14 
REMARK    6  A    between atoms: N_14  and  C_15 
ROOT
HETATM    1  N   UNL     1      -6.842   0.667 -33.724  1.00  0.00    -0.063 N 
HETATM    2  H   UNL     1      -6.033   0.323 -33.193  1.00  0.00     0.280 HD
HETATM    3  C   UNL     1      -6.477   2.068 -34.203  1.00  0.00     0.281 C 
HETATM    4  C   UNL     1      -6.656   3.119 -33.163  1.00  0.00     0.060 A 
HETATM    5  C   UNL     1      -7.223   2.928 -31.963  1.00  0.00     0.052 A 
HETATM    6  N   UNL     1      -7.414   3.923 -31.040  1.00  0.00    -0.228 NA
HETATM    7  C   UNL     1      -7.004   5.108 -31.348  1.00  0.00     0.169 A 
HETATM    8  N   UNL     1      -6.391   5.416 -32.522  1.00  0.00    -0.302 N 
HETATM    9  C   UNL     1      -6.194   4.482 -33.492  1.00  0.00     0.257 A 
HETATM   10  O   UNL     1      -5.689   4.719 -34.580  1.00  0.00    -0.267 OA
HETATM   11  C   UNL     1      -7.746   1.569 -31.575  1.00  0.00     0.088 C 
HETATM   12  C   UNL     1      -8.032   0.685 -32.788  1.00  0.00     0.241 C 
HETATM   13  H   UNL     1      -6.099   6.366 -32.698  1.00  0.00     0.171 HD
ENDROOT
BRANCH   7  14
HETATM   14  S   UNL     1      -7.199   6.475 -30.295  1.00  0.00    -0.083 SA
BRANCH  14  15
HETATM   15  C   UNL     1      -5.702   6.275 -29.279  1.00  0.00     0.185 C 
BRANCH  15  16
HETATM   16  C   UNL     1      -4.432   6.781 -29.941  1.00  0.00     0.232 C 
HETATM   17  N   UNL     1      -3.257   6.260 -29.432  1.00  0.00    -0.324 N 
HETATM   18  H   UNL     1      -3.297   5.965 -28.462  1.00  0.00     0.169 HD
HETATM   19  O   UNL     1      -4.511   7.567 -30.883  1.00  0.00    -0.272 OA
BRANCH  17  20
HETATM   20  C   UNL     1      -1.977   6.395 -30.016  1.00  0.00     0.076 A 
HETATM   21  C   UNL     1      -1.609   5.825 -31.246  1.00  0.00     0.143 A 
HETATM   22  F   UNL     1      -2.439   5.009 -31.910  1.00  0.00    -0.204 F 
HETATM   23  C   UNL     1      -0.326   5.997 -31.767  1.00  0.00     0.047 A 
HETATM   24  C   UNL     1       0.618   6.734 -31.056  1.00  0.00     0.045 A 
HETATM   25  C   UNL     1       0.268   7.270 -29.822  1.00  0.00     0.118 A 
HETATM   26  F   UNL     1       1.177   7.966 -29.126  1.00  0.00    -0.206 F 
HETATM   27  C   UNL     1      -1.010   7.099 -29.291  1.00  0.00     0.074 A 
ENDBRANCH  17  20
ENDBRANCH  15  16
ENDBRANCH  14  15
ENDBRANCH   7  14
BRANCH   1  28
HETATM   28  C   UNL     1      -7.057  -0.303 -34.862  1.00  0.00     0.273 C 
BRANCH  28  29
HETATM   29  C   UNL     1      -6.356  -1.620 -34.677  1.00  0.00    -0.030 A 
HETATM   30  C   UNL     1      -6.892  -2.802 -35.241  1.00  0.00     0.012 A 
HETATM   31  C   UNL     1      -6.261  -4.037 -35.058  1.00  0.00     0.040 A 
HETATM   32  C   UNL     1      -5.104  -4.065 -34.311  1.00  0.00     0.105 A 
HETATM   33  C   UNL     1      -4.573  -2.922 -33.766  1.00  0.00     0.105 A 
HETATM   34  O   UNL     1      -4.371  -5.169 -34.019  1.00  0.00    -0.323 OA
HETATM   35  C   UNL     1      -5.167  -1.688 -33.929  1.00  0.00     0.048 A 
HETATM   36  O   UNL     1      -3.436  -3.163 -33.062  1.00  0.00    -0.323 OA
HETATM   37  C   UNL     1      -3.329  -4.600 -33.196  1.00  0.00     0.352 A 
ENDBRANCH  28  29
ENDBRANCH   1  28
TORSDOF 6
ENDMDL
MODEL 5
REMARK VINA RESULT:      -9.4      3.944     10.108
REMARK  6 active torsions:
REMARK  status: ('A' for Active; 'I' for Inactive)
REMARK    1  A    between atoms: C_2  and  C_3 
REMARK    2  A    between atoms: C_3  and  N_4 
REMARK    3  A    between atoms: C_10  and  S_11 
REMARK    4  A    between atoms: S_11  and  C_12 
REMARK    5  A    between atoms: C_12  and  C_13 
REMARK       I    between atoms: C_13  and  N_14 
REMARK    6  A    between atoms: N_14  and  C_15 
ROOT
HETATM    1  N   UNL     1      -5.618   1.737 -32.430  1.00  0.00    -0.063 N 
HETATM    2  H   UNL     1      -4.733   1.219 -32.372  1.00  0.00     0.280 HD
HETATM    3  C   UNL     1      -5.433   2.785 -33.522  1.00  0.00     0.281 C 
HETATM    4  C   UNL     1      -4.701   3.999 -33.064  1.00  0.00     0.060 A 
HETATM    5  C   UNL     1      -4.357   4.259 -31.794  1.00  0.00     0.052 A 
HETATM    6  N   UNL     1      -3.720   5.405 -31.394  1.00  0.00    -0.228 NA
HETATM    7  C   UNL     1      -3.424   6.271 -32.304  1.00  0.00     0.169 A 
HETATM    8  N   UNL     1      -3.699   6.106 -33.626  1.00  0.00    -0.302 N 
HETATM    9  C   UNL     1      -4.352   5.004 -34.087  1.00  0.00     0.257 A 
HETATM   10  O   UNL     1      -4.660   4.830 -35.258  1.00  0.00    -0.267 OA
HETATM   11  C   UNL     1      -4.711   3.291 -30.696  1.00  0.00     0.088 C 
HETATM   12  C   UNL     1      -5.869   2.371 -31.078  1.00  0.00     0.241 C 
HETATM   13  H   UNL     1      -3.442   6.827 -34.284  1.00  0.00     0.171 HD
ENDROOT
BRANCH   7  14
HETATM   14  S   UNL     1      -2.644   7.781 -31.949  1.00  0.00    -0.083 SA
BRANCH  14  15
HETATM   15  C   UNL     1      -0.917   7.296 -32.262  1.00  0.00     0.185 C 
BRANCH  15  16
HETATM   16  C   UNL     1      -0.107   7.040 -31.003  1.00  0.00     0.232 C 
HETATM   17  N   UNL     1      -0.518   7.745 -29.887  1.00  0.00    -0.324 N 
HETATM   18  H   UNL     1      -0.983   8.626 -30.078  1.00  0.00     0.169 HD
HETATM   19  O   UNL     1       0.811   6.223 -31.030  1.00  0.00    -0.272 OA
BRANCH  17  20
HETATM   20  C   UNL     1      -0.080   7.515 -28.564  1.00  0.00     0.076 A 
HETATM   21  C   UNL     1       1.069   8.096 -28.002  1.00  0.00     0.143 A 
HETATM   22  F   UNL     1       1.901   8.844 -28.741  1.00  0.00    -0.204 F 
HETATM   23  C   UNL     1       1.446   7.827 -26.686  1.00  0.00     0.047 A 
HETATM   24  C   UNL     1       0.684   6.956 -25.911  1.00  0.00     0.045 A 
HETATM   25  C   UNL     1      -0.434   6.351 -26.475  1.00  0.00     0.118 A 
HETATM   26  F   UNL     1      -1.160   5.499 -25.739  1.00  0.00    -0.206 F 
HETATM   27  C   UNL     1      -0.816   6.611 -27.790  1.00  0.00     0.074 A 
ENDBRANCH  17  20
ENDBRANCH  15  16
ENDBRANCH  14  15
ENDBRANCH   7  14
BRANCH   1  28
HETATM   28  C   UNL     1      -6.689   0.726 -32.766  1.00  0.00     0.273 C 
BRANCH  28  29
HETATM   29  C   UNL     1      -6.150  -0.589 -33.258  1.00  0.00    -0.030 A 
HETATM   30  C   UNL     1      -4.785  -0.916 -33.075  1.00  0.00     0.012 A 
HETATM   31  C   UNL     1      -4.266  -2.126 -33.548  1.00  0.00     0.040 A 
HETATM   32  C   UNL     1      -5.124  -2.985 -34.197  1.00  0.00     0.105 A 
HETATM   33  C   UNL     1      -6.451  -2.680 -34.373  1.00  0.00     0.105 A 
HETATM   34  O   UNL     1      -4.793  -4.188 -34.732  1.00  0.00    -0.323 OA
HETATM   35  C   UNL     1      -6.997  -1.498 -33.917  1.00  0.00     0.048 A 
HETATM   36  O   UNL     1      -7.124  -3.653 -35.040  1.00  0.00    -0.323 OA
HETATM   37  C   UNL     1      -6.057  -4.597 -35.298  1.00  0.00     0.352 A 
ENDBRANCH  28  29
ENDBRANCH   1  28
TORSDOF 6
ENDMDL
MODEL 6
REMARK VINA RESULT:      -9.3      3.844      9.563
REMARK  6 active torsions:
REMARK  status: ('A' for Active; 'I' for Inactive)
REMARK    1  A    between atoms: C_2  and  C_3 
REMARK    2  A    between atoms: C_3  and  N_4 
REMARK    3  A    between atoms: C_10  and  S_11 
REMARK    4  A    between atoms: S_11  and  C_12 
REMARK    5  A    between atoms: C_12  and  C_13 
REMARK       I    between atoms: C_13  and  N_14 
REMARK    6  A    between atoms: N_14  and  C_15 
ROOT
HETATM    1  N   UNL     1      -6.770   2.521 -32.320  1.00  0.00    -0.063 N 
HETATM    2  H   UNL     1      -7.200   3.161 -31.641  1.00  0.00     0.280 HD
HETATM    3  C   UNL     1      -5.298   2.413 -31.938  1.00  0.00     0.281 C 
HETATM    4  C   UNL     1      -4.472   3.553 -32.423  1.00  0.00     0.060 A 
HETATM    5  C   UNL     1      -4.901   4.520 -33.247  1.00  0.00     0.052 A 
HETATM    6  N   UNL     1      -4.107   5.536 -33.712  1.00  0.00    -0.228 NA
HETATM    7  C   UNL     1      -2.879   5.563 -33.314  1.00  0.00     0.169 A 
HETATM    8  N   UNL     1      -2.340   4.652 -32.460  1.00  0.00    -0.302 N 
HETATM    9  C   UNL     1      -3.065   3.605 -31.981  1.00  0.00     0.257 A 
HETATM   10  O   UNL     1      -2.613   2.737 -31.247  1.00  0.00    -0.267 OA
HETATM   11  C   UNL     1      -6.316   4.510 -33.762  1.00  0.00     0.088 C 
HETATM   12  C   UNL     1      -6.952   3.123 -33.698  1.00  0.00     0.241 C 
HETATM   13  H   UNL     1      -1.369   4.732 -32.193  1.00  0.00     0.171 HD
ENDROOT
BRANCH   7  14
HETATM   14  S   UNL     1      -1.745   6.769 -33.838  1.00  0.00    -0.083 SA
BRANCH  14  15
HETATM   15  C   UNL     1      -1.821   7.882 -32.399  1.00  0.00     0.185 C 
BRANCH  15  16
HETATM   16  C   UNL     1      -0.964   7.437 -31.226  1.00  0.00     0.232 C 
HETATM   17  N   UNL     1      -1.244   8.063 -30.025  1.00  0.00    -0.324 N 
HETATM   18  H   UNL     1      -1.637   8.994 -30.102  1.00  0.00     0.169 HD
HETATM   19  O   UNL     1      -0.127   6.553 -31.389  1.00  0.00    -0.272 OA
BRANCH  17  20
HETATM   20  C   UNL     1      -0.752   7.669 -28.760  1.00  0.00     0.076 A 
HETATM   21  C   UNL     1       0.582   7.830 -28.350  1.00  0.00     0.143 A 
HETATM   22  F   UNL     1       1.520   8.284 -29.194  1.00  0.00    -0.204 F 
HETATM   23  C   UNL     1       1.004   7.419 -27.085  1.00  0.00     0.047 A 
HETATM   24  C   UNL     1       0.097   6.825 -26.211  1.00  0.00     0.045 A 
HETATM   25  C   UNL     1      -1.215   6.632 -26.627  1.00  0.00     0.118 A 
HETATM   26  F   UNL     1      -2.088   6.045 -25.796  1.00  0.00    -0.206 F 
HETATM   27  C   UNL     1      -1.645   7.035 -27.890  1.00  0.00     0.074 A 
ENDBRANCH  17  20
ENDBRANCH  15  16
ENDBRANCH  14  15
ENDBRANCH   7  14
BRANCH   1  28
HETATM   28  C   UNL     1      -7.504   1.205 -32.198  1.00  0.00     0.273 C 
BRANCH  28  29
HETATM   29  C   UNL     1      -6.931   0.109 -33.053  1.00  0.00    -0.030 A 
HETATM   30  C   UNL     1      -7.552  -0.245 -34.275  1.00  0.00     0.012 A 
HETATM   31  C   UNL     1      -7.041  -1.278 -35.068  1.00  0.00     0.040 A 
HETATM   32  C   UNL     1      -5.919  -1.938 -34.622  1.00  0.00     0.105 A 
HETATM   33  C   UNL     1      -5.305  -1.597 -33.442  1.00  0.00     0.105 A 
HETATM   34  O   UNL     1      -5.298  -2.969 -35.250  1.00  0.00    -0.323 OA
HETATM   35  C   UNL     1      -5.779  -0.582 -32.637  1.00  0.00     0.048 A 
HETATM   36  O   UNL     1      -4.219  -2.371 -33.178  1.00  0.00    -0.323 OA
HETATM   37  C   UNL     1      -4.238  -3.266 -34.315  1.00  0.00     0.352 A 
ENDBRANCH  28  29
ENDBRANCH   1  28
TORSDOF 6
ENDMDL
MODEL 7
REMARK VINA RESULT:      -9.2      1.736      2.174
REMARK  6 active torsions:
REMARK  status: ('A' for Active; 'I' for Inactive)
REMARK    1  A    between atoms: C_2  and  C_3 
REMARK    2  A    between atoms: C_3  and  N_4 
REMARK    3  A    between atoms: C_10  and  S_11 
REMARK    4  A    between atoms: S_11  and  C_12 
REMARK    5  A    between atoms: C_12  and  C_13 
REMARK       I    between atoms: C_13  and  N_14 
REMARK    6  A    between atoms: N_14  and  C_15 
ROOT
HETATM    1  N   UNL     1      -2.055   6.048 -32.853  1.00  0.00    -0.063 N 
HETATM    2  H   UNL     1      -1.625   5.115 -32.850  1.00  0.00     0.280 HD
HETATM    3  C   UNL     1      -3.232   5.983 -31.884  1.00  0.00     0.281 C 
HETATM    4  C   UNL     1      -4.454   5.368 -32.473  1.00  0.00     0.060 A 
HETATM    5  C   UNL     1      -4.604   5.033 -33.763  1.00  0.00     0.052 A 
HETATM    6  N   UNL     1      -5.756   4.508 -34.287  1.00  0.00    -0.228 NA
HETATM    7  C   UNL     1      -6.744   4.312 -33.478  1.00  0.00     0.169 A 
HETATM    8  N   UNL     1      -6.699   4.588 -32.148  1.00  0.00    -0.302 N 
HETATM    9  C   UNL     1      -5.596   5.135 -31.568  1.00  0.00     0.257 A 
HETATM   10  O   UNL     1      -5.523   5.441 -30.386  1.00  0.00    -0.267 OA
HETATM   11  C   UNL     1      -3.490   5.274 -34.747  1.00  0.00     0.088 C 
HETATM   12  C   UNL     1      -2.507   6.341 -34.268  1.00  0.00     0.241 C 
HETATM   13  H   UNL     1      -7.512   4.413 -31.574  1.00  0.00     0.171 HD
ENDROOT
BRANCH   7  14
HETATM   14  S   UNL     1      -8.275   3.680 -33.998  1.00  0.00    -0.083 SA
BRANCH  14  15
HETATM   15  C   UNL     1      -8.681   2.668 -32.540  1.00  0.00     0.185 C 
BRANCH  15  16
HETATM   16  C   UNL     1      -8.161   1.243 -32.611  1.00  0.00     0.232 C 
HETATM   17  N   UNL     1      -7.332   0.973 -33.683  1.00  0.00    -0.324 N 
HETATM   18  H   UNL     1      -7.483   1.549 -34.504  1.00  0.00     0.169 HD
HETATM   19  O   UNL     1      -8.461   0.444 -31.725  1.00  0.00    -0.272 OA
BRANCH  17  20
HETATM   20  C   UNL     1      -6.550  -0.193 -33.844  1.00  0.00     0.076 A 
HETATM   21  C   UNL     1      -5.198  -0.292 -33.477  1.00  0.00     0.143 A 
HETATM   22  F   UNL     1      -4.518   0.776 -33.035  1.00  0.00    -0.204 F 
HETATM   23  C   UNL     1      -4.482  -1.476 -33.664  1.00  0.00     0.047 A 
HETATM   24  C   UNL     1      -5.108  -2.580 -34.236  1.00  0.00     0.045 A 
HETATM   25  C   UNL     1      -6.436  -2.476 -34.633  1.00  0.00     0.118 A 
HETATM   26  F   UNL     1      -7.037  -3.530 -35.200  1.00  0.00    -0.206 F 
HETATM   27  C   UNL     1      -7.157  -1.296 -34.455  1.00  0.00     0.074 A 
ENDBRANCH  17  20
ENDBRANCH  15  16
ENDBRANCH  14  15
ENDBRANCH   7  14
BRANCH   1  28
HETATM   28  C   UNL     1      -0.985   7.018 -32.409  1.00  0.00     0.273 C 
BRANCH  28  29
HETATM   29  C   UNL     1      -0.527   6.810 -30.992  1.00  0.00    -0.030 A 
HETATM   30  C   UNL     1       0.182   5.638 -30.634  1.00  0.00     0.012 A 
HETATM   31  C   UNL     1       0.594   5.422 -29.315  1.00  0.00     0.040 A 
HETATM   32  C   UNL     1       0.287   6.384 -28.379  1.00  0.00     0.105 A 
HETATM   33  C   UNL     1      -0.394   7.527 -28.718  1.00  0.00     0.105 A 
HETATM   34  O   UNL     1       0.593   6.335 -27.057  1.00  0.00    -0.323 OA
HETATM   35  C   UNL     1      -0.813   7.774 -30.009  1.00  0.00     0.048 A 
HETATM   36  O   UNL     1      -0.603   8.343 -27.652  1.00  0.00    -0.323 OA
HETATM   37  C   UNL     1      -0.003   7.565 -26.589  1.00  0.00     0.352 A 
ENDBRANCH  28  29
ENDBRANCH   1  28
TORSDOF 6
ENDMDL
MODEL 8
REMARK VINA RESULT:      -9.2      1.822      2.299
REMARK  6 active torsions:
REMARK  status: ('A' for Active; 'I' for Inactive)
REMARK    1  A    between atoms: C_2  and  C_3 
REMARK    2  A    between atoms: C_3  and  N_4 
REMARK    3  A    between atoms: C_10  and  S_11 
REMARK    4  A    between atoms: S_11  and  C_12 
REMARK    5  A    between atoms: C_12  and  C_13 
REMARK       I    between atoms: C_13  and  N_14 
REMARK    6  A    between atoms: N_14  and  C_15 
ROOT
HETATM    1  N   UNL     1      -2.237   5.440 -30.958  1.00  0.00    -0.063 N 
HETATM    2  H   UNL     1      -1.964   4.963 -30.089  1.00  0.00     0.280 HD
HETATM    3  C   UNL     1      -3.676   5.905 -30.760  1.00  0.00     0.281 C 
HETATM    4  C   UNL     1      -4.683   4.831 -30.981  1.00  0.00     0.060 A 
HETATM    5  C   UNL     1      -4.414   3.606 -31.457  1.00  0.00     0.052 A 
HETATM    6  N   UNL     1      -5.368   2.650 -31.691  1.00  0.00    -0.228 NA
HETATM    7  C   UNL     1      -6.593   2.951 -31.417  1.00  0.00     0.169 A 
HETATM    8  N   UNL     1      -6.983   4.149 -30.907  1.00  0.00    -0.302 N 
HETATM    9  C   UNL     1      -6.091   5.152 -30.675  1.00  0.00     0.257 A 
HETATM   10  O   UNL     1      -6.398   6.260 -30.259  1.00  0.00    -0.267 OA
HETATM   11  C   UNL     1      -3.003   3.224 -31.820  1.00  0.00     0.088 C 
HETATM   12  C   UNL     1      -2.118   4.440 -32.088  1.00  0.00     0.241 C 
HETATM   13  H   UNL     1      -7.961   4.318 -30.719  1.00  0.00     0.171 HD
ENDROOT
BRANCH   7  14
HETATM   14  S   UNL     1      -7.914   1.856 -31.685  1.00  0.00    -0.083 SA
BRANCH  14  15
HETATM   15  C   UNL     1      -7.987   1.928 -33.502  1.00  0.00     0.185 C 
BRANCH  15  16
HETATM   16  C   UNL     1      -7.170   0.853 -34.198  1.00  0.00     0.232 C 
HETATM   17  N   UNL     1      -6.647  -0.118 -33.365  1.00  0.00    -0.324 N 
HETATM   18  H   UNL     1      -6.477   0.175 -32.410  1.00  0.00     0.169 HD
HETATM   19  O   UNL     1      -7.053   0.879 -35.422  1.00  0.00    -0.272 OA
BRANCH  17  20
HETATM   20  C   UNL     1      -6.054  -1.329 -33.787  1.00  0.00     0.076 A 
HETATM   21  C   UNL     1      -4.673  -1.586 -33.745  1.00  0.00     0.143 A 
HETATM   22  F   UNL     1      -3.800  -0.633 -33.388  1.00  0.00    -0.204 F 
HETATM   23  C   UNL     1      -4.151  -2.805 -34.178  1.00  0.00     0.047 A 
HETATM   24  C   UNL     1      -5.004  -3.787 -34.676  1.00  0.00     0.045 A 
HETATM   25  C   UNL     1      -6.366  -3.523 -34.753  1.00  0.00     0.118 A 
HETATM   26  F   UNL     1      -7.189  -4.457 -35.248  1.00  0.00    -0.206 F 
HETATM   27  C   UNL     1      -6.897  -2.306 -34.327  1.00  0.00     0.074 A 
ENDBRANCH  17  20
ENDBRANCH  15  16
ENDBRANCH  14  15
ENDBRANCH   7  14
BRANCH   1  28
HETATM   28  C   UNL     1      -1.271   6.588 -31.142  1.00  0.00     0.273 C 
BRANCH  28  29
HETATM   29  C   UNL     1      -0.872   7.257 -29.856  1.00  0.00    -0.030 A 
HETATM   30  C   UNL     1      -1.496   8.461 -29.450  1.00  0.00     0.012 A 
HETATM   31  C   UNL     1      -1.118   9.104 -28.267  1.00  0.00     0.040 A 
HETATM   32  C   UNL     1      -0.120   8.529 -27.512  1.00  0.00     0.105 A 
HETATM   33  C   UNL     1       0.486   7.358 -27.893  1.00  0.00     0.105 A 
HETATM   34  O   UNL     1       0.382   9.020 -26.350  1.00  0.00    -0.323 OA
HETATM   35  C   UNL     1       0.136   6.696 -29.051  1.00  0.00     0.048 A 
HETATM   36  O   UNL     1       1.447   6.962 -27.018  1.00  0.00    -0.323 OA
HETATM   37  C   UNL     1       1.402   8.041 -26.054  1.00  0.00     0.352 A 
ENDBRANCH  28  29
ENDBRANCH   1  28
TORSDOF 6
ENDMDL
MODEL 9
REMARK VINA RESULT:      -9.2      4.286     10.728
REMARK  6 active torsions:
REMARK  status: ('A' for Active; 'I' for Inactive)
REMARK    1  A    between atoms: C_2  and  C_3 
REMARK    2  A    between atoms: C_3  and  N_4 
REMARK    3  A    between atoms: C_10  and  S_11 
REMARK    4  A    between atoms: S_11  and  C_12 
REMARK    5  A    between atoms: C_12  and  C_13 
REMARK       I    between atoms: C_13  and  N_14 
REMARK    6  A    between atoms: N_14  and  C_15 
ROOT
HETATM    1  N   UNL     1      -4.988   1.608 -32.707  1.00  0.00    -0.063 N 
HETATM    2  H   UNL     1      -4.291   1.126 -33.288  1.00  0.00     0.280 HD
HETATM    3  C   UNL     1      -5.145   3.007 -33.294  1.00  0.00     0.281 C 
HETATM    4  C   UNL     1      -4.075   3.952 -32.872  1.00  0.00     0.060 A 
HETATM    5  C   UNL     1      -3.136   3.693 -31.950  1.00  0.00     0.052 A 
HETATM    6  N   UNL     1      -2.188   4.598 -31.550  1.00  0.00    -0.228 NA
HETATM    7  C   UNL     1      -2.198   5.761 -32.112  1.00  0.00     0.169 A 
HETATM    8  N   UNL     1      -3.083   6.128 -33.076  1.00  0.00    -0.302 N 
HETATM    9  C   UNL     1      -4.066   5.287 -33.502  1.00  0.00     0.257 A 
HETATM   10  O   UNL     1      -4.912   5.586 -34.333  1.00  0.00    -0.267 OA
HETATM   11  C   UNL     1      -3.107   2.363 -31.245  1.00  0.00     0.088 C 
HETATM   12  C   UNL     1      -4.457   1.648 -31.290  1.00  0.00     0.241 C 
HETATM   13  H   UNL     1      -3.036   7.056 -33.471  1.00  0.00     0.171 HD
ENDROOT
BRANCH   7  14
HETATM   14  S   UNL     1      -1.079   7.020 -31.691  1.00  0.00    -0.083 SA
BRANCH  14  15
HETATM   15  C   UNL     1       0.233   6.004 -30.943  1.00  0.00     0.185 C 
BRANCH  15  16
HETATM   16  C   UNL     1       0.502   6.318 -29.482  1.00  0.00     0.232 C 
HETATM   17  N   UNL     1       0.459   7.660 -29.152  1.00  0.00    -0.324 N 
HETATM   18  H   UNL     1       0.682   8.300 -29.906  1.00  0.00     0.169 HD
HETATM   19  O   UNL     1       0.699   5.398 -28.690  1.00  0.00    -0.272 OA
BRANCH  17  20
HETATM   20  C   UNL     1       0.449   8.184 -27.839  1.00  0.00     0.076 A 
HETATM   21  C   UNL     1      -0.719   8.490 -27.122  1.00  0.00     0.143 A 
HETATM   22  F   UNL     1      -1.929   8.400 -27.693  1.00  0.00    -0.204 F 
HETATM   23  C   UNL     1      -0.658   9.005 -25.827  1.00  0.00     0.047 A 
HETATM   24  C   UNL     1       0.579   9.237 -25.231  1.00  0.00     0.045 A 
HETATM   25  C   UNL     1       1.737   8.968 -25.950  1.00  0.00     0.118 A 
HETATM   26  F   UNL     1       2.930   9.206 -25.388  1.00  0.00    -0.206 F 
HETATM   27  C   UNL     1       1.686   8.458 -27.246  1.00  0.00     0.074 A 
ENDBRANCH  17  20
ENDBRANCH  15  16
ENDBRANCH  14  15
ENDBRANCH   7  14
BRANCH   1  28
HETATM   28  C   UNL     1      -6.257   0.792 -32.791  1.00  0.00     0.273 C 
BRANCH  28  29
HETATM   29  C   UNL     1      -6.065  -0.568 -33.402  1.00  0.00    -0.030 A 
HETATM   30  C   UNL     1      -7.075  -1.138 -34.214  1.00  0.00     0.012 A 
HETATM   31  C   UNL     1      -6.918  -2.412 -34.770  1.00  0.00     0.040 A 
HETATM   32  C   UNL     1      -5.752  -3.092 -34.500  1.00  0.00     0.105 A 
HETATM   33  C   UNL     1      -4.763  -2.546 -33.719  1.00  0.00     0.105 A 
HETATM   34  O   UNL     1      -5.436  -4.338 -34.940  1.00  0.00    -0.323 OA
HETATM   35  C   UNL     1      -4.884  -1.291 -33.159  1.00  0.00     0.048 A 
HETATM   36  O   UNL     1      -3.699  -3.378 -33.570  1.00  0.00    -0.323 OA
HETATM   37  C   UNL     1      -4.146  -4.532 -34.320  1.00  0.00     0.352 A 
ENDBRANCH  28  29
ENDBRANCH   1  28
TORSDOF 6
ENDMDL
MODEL 10
REMARK VINA RESULT:      -9.1      3.550      8.588
REMARK  6 active torsions:
REMARK  status: ('A' for Active; 'I' for Inactive)
REMARK    1  A    between atoms: C_2  and  C_3 
REMARK    2  A    between atoms: C_3  and  N_4 
REMARK    3  A    between atoms: C_10  and  S_11 
REMARK    4  A    between atoms: S_11  and  C_12 
REMARK    5  A    between atoms: C_12  and  C_13 
REMARK       I    between atoms: C_13  and  N_14 
REMARK    6  A    between atoms: N_14  and  C_15 
ROOT
HETATM    1  N   UNL     1      -6.928   2.118 -32.015  1.00  0.00    -0.063 N 
HETATM    2  H   UNL     1      -5.988   2.046 -32.424  1.00  0.00     0.280 HD
HETATM    3  C   UNL     1      -7.533   3.410 -32.553  1.00  0.00     0.281 C 
HETATM    4  C   UNL     1      -7.076   4.628 -31.828  1.00  0.00     0.060 A 
HETATM    5  C   UNL     1      -6.333   4.627 -30.712  1.00  0.00     0.052 A 
HETATM    6  N   UNL     1      -5.962   5.763 -30.040  1.00  0.00    -0.228 NA
HETATM    7  C   UNL     1      -6.342   6.896 -30.529  1.00  0.00     0.169 A 
HETATM    8  N   UNL     1      -7.075   7.022 -31.666  1.00  0.00    -0.302 N 
HETATM    9  C   UNL     1      -7.499   5.935 -32.368  1.00  0.00     0.257 A 
HETATM   10  O   UNL     1      -8.197   5.995 -33.370  1.00  0.00    -0.267 OA
HETATM   11  C   UNL     1      -5.895   3.328 -30.089  1.00  0.00     0.088 C 
HETATM   12  C   UNL     1      -6.775   2.152 -30.510  1.00  0.00     0.241 C 
HETATM   13  H   UNL     1      -7.342   7.941 -31.990  1.00  0.00     0.171 HD
ENDROOT
BRANCH   7  14
HETATM   14  S   UNL     1      -5.974   8.417 -29.776  1.00  0.00    -0.083 SA
BRANCH  14  15
HETATM   15  C   UNL     1      -4.170   8.232 -29.616  1.00  0.00     0.185 C 
BRANCH  15  16
HETATM   16  C   UNL     1      -3.453   7.986 -30.932  1.00  0.00     0.232 C 
HETATM   17  N   UNL     1      -3.240   6.657 -31.245  1.00  0.00    -0.324 N 
HETATM   18  H   UNL     1      -3.171   6.030 -30.451  1.00  0.00     0.169 HD
HETATM   19  O   UNL     1      -3.145   8.941 -31.643  1.00  0.00    -0.272 OA
BRANCH  17  20
HETATM   20  C   UNL     1      -2.805   6.167 -32.498  1.00  0.00     0.076 A 
HETATM   21  C   UNL     1      -1.457   6.067 -32.879  1.00  0.00     0.143 A 
HETATM   22  F   UNL     1      -0.476   6.539 -32.097  1.00  0.00    -0.204 F 
HETATM   23  C   UNL     1      -1.096   5.573 -34.134  1.00  0.00     0.047 A 
HETATM   24  C   UNL     1      -2.082   5.184 -35.036  1.00  0.00     0.045 A 
HETATM   25  C   UNL     1      -3.419   5.314 -34.675  1.00  0.00     0.118 A 
HETATM   26  F   UNL     1      -4.372   4.957 -35.546  1.00  0.00    -0.206 F 
HETATM   27  C   UNL     1      -3.789   5.811 -33.426  1.00  0.00     0.074 A 
ENDBRANCH  17  20
ENDBRANCH  15  16
ENDBRANCH  14  15
ENDBRANCH   7  14
BRANCH   1  28
HETATM   28  C   UNL     1      -7.687   0.888 -32.459  1.00  0.00     0.273 C 
BRANCH  28  29
HETATM   29  C   UNL     1      -6.813  -0.187 -33.043  1.00  0.00    -0.030 A 
HETATM   30  C   UNL     1      -5.403  -0.078 -32.976  1.00  0.00     0.012 A 
HETATM   31  C   UNL     1      -4.579  -1.060 -33.535  1.00  0.00     0.040 A 
HETATM   32  C   UNL     1      -5.183  -2.133 -34.152  1.00  0.00     0.105 A 
HETATM   33  C   UNL     1      -6.549  -2.251 -34.216  1.00  0.00     0.105 A 
HETATM   34  O   UNL     1      -4.544  -3.166 -34.759  1.00  0.00    -0.323 OA
HETATM   35  C   UNL     1      -7.391  -1.303 -33.673  1.00  0.00     0.048 A 
HETATM   36  O   UNL     1      -6.944  -3.374 -34.870  1.00  0.00    -0.323 OA
HETATM   37  C   UNL     1      -5.664  -3.937 -35.245  1.00  0.00     0.352 A 
ENDBRANCH  28  29
ENDBRANCH   1  28
TORSDOF 6
ENDMDL
