MODEL 1
REMARK VINA RESULT:      -8.4      0.000      0.000
REMARK  6 active torsions:
REMARK  status: ('A' for Active; 'I' for Inactive)
REMARK    1  A    between atoms: C_3  and  O_4 
REMARK    2  A    between atoms: O_4  and  C_5 
REMARK    3  A    between atoms: C_5  and  C_6 
REMARK    4  A    between atoms: C_15  and  C_16 
REMARK       I    between atoms: C_16  and  N_17 
REMARK    5  A    between atoms: N_17  and  N_18 
REMARK       I    between atoms: N_18  and  C_19 
REMARK    6  A    between atoms: C_19  and  C_20 
ROOT
HETATM    1  C   UNL     1      -8.287   2.206 -33.956  1.00  0.00     0.051 C 
HETATM    2  C   UNL     1      -7.123   1.972 -33.034  1.00  0.00    -0.027 A 
HETATM    3  C   UNL     1      -6.589   0.687 -32.831  1.00  0.00     0.081 A 
HETATM    4  C   UNL     1      -5.545   0.479 -31.914  1.00  0.00    -0.027 A 
HETATM    5  C   UNL     1      -5.020  -0.889 -31.580  1.00  0.00     0.051 C 
HETATM    6  C   UNL     1      -4.952   1.596 -31.303  1.00  0.00     0.026 A 
HETATM    7  C   UNL     1      -5.419   2.893 -31.556  1.00  0.00     0.034 A 
HETATM    8  C   UNL     1      -6.519   3.072 -32.402  1.00  0.00     0.026 A 
ENDROOT
BRANCH   7   9
HETATM    9  C   UNL     1      -4.726   4.029 -30.884  1.00  0.00     0.270 C 
HETATM   10  N   UNL     1      -3.401   4.237 -31.213  1.00  0.00    -0.263 N 
HETATM   11  H   UNL     1      -2.835   3.592 -31.759  1.00  0.00     0.190 HD
HETATM   12  O   UNL     1      -5.311   4.721 -30.053  1.00  0.00    -0.266 OA
BRANCH  10  13
HETATM   13  N   UNL     1      -2.698   5.216 -30.503  1.00  0.00    -0.262 N 
HETATM   14  C   UNL     1      -1.327   5.278 -30.623  1.00  0.00     0.286 C 
HETATM   15  O   UNL     1      -0.706   4.501 -31.349  1.00  0.00    -0.264 OA
HETATM   16  H   UNL     1      -3.247   5.834 -29.912  1.00  0.00     0.190 HD
BRANCH  14  17
HETATM   17  C   UNL     1      -0.677   6.308 -29.843  1.00  0.00     0.102 A 
HETATM   18  N   UNL     1      -1.221   6.760 -28.657  1.00  0.00    -0.361 N 
HETATM   19  H   UNL     1      -2.086   6.407 -28.266  1.00  0.00     0.165 HD
HETATM   20  C   UNL     1      -0.425   7.729 -28.108  1.00  0.00     0.088 A 
HETATM   21  C   UNL     1       0.647   7.918 -28.947  1.00  0.00     0.019 A 
HETATM   22  C   UNL     1       0.493   7.026 -30.037  1.00  0.00     0.036 A 
ENDBRANCH  14  17
ENDBRANCH  10  13
ENDBRANCH   7   9
BRANCH   3  23
HETATM   23  O   UNL     1      -7.171  -0.355 -33.510  1.00  0.00    -0.346 OA
BRANCH  23  24
HETATM   24  C   UNL     1      -6.423  -0.721 -34.680  1.00  0.00     0.216 C 
BRANCH  24  25
HETATM   25  C   UNL     1      -6.033  -2.176 -34.670  1.00  0.00    -0.017 A 
HETATM   26  C   UNL     1      -4.696  -2.519 -34.477  1.00  0.00     0.125 A 
HETATM   27  N   UNL     1      -4.229  -3.787 -34.431  1.00  0.00    -0.272 NA
HETATM   28  C   UNL     1      -5.140  -4.771 -34.578  1.00  0.00     0.116 A 
HETATM   29  C   UNL     1      -6.493  -4.544 -34.763  1.00  0.00     0.020 A 
HETATM   30  C   UNL     1      -6.945  -3.227 -34.802  1.00  0.00     0.012 A 
ENDBRANCH  24  25
ENDBRANCH  23  24
ENDBRANCH   3  23
TORSDOF 6
ENDMDL
MODEL 2
REMARK VINA RESULT:      -8.3      0.791      1.853
REMARK  6 active torsions:
REMARK  status: ('A' for Active; 'I' for Inactive)
REMARK    1  A    between atoms: C_3  and  O_4 
REMARK    2  A    between atoms: O_4  and  C_5 
REMARK    3  A    between atoms: C_5  and  C_6 
REMARK    4  A    between atoms: C_15  and  C_16 
REMARK       I    between atoms: C_16  and  N_17 
REMARK    5  A    between atoms: N_17  and  N_18 
REMARK       I    between atoms: N_18  and  C_19 
REMARK    6  A    between atoms: C_19  and  C_20 
ROOT
HETATM    1  C   UNL     1      -4.059  -0.670 -31.537  1.00  0.00     0.051 C 
HETATM    2  C   UNL     1      -4.679   0.662 -31.855  1.00  0.00    -0.027 A 
HETATM    3  C   UNL     1      -5.847   0.766 -32.631  1.00  0.00     0.081 A 
HETATM    4  C   UNL     1      -6.373   2.023 -32.974  1.00  0.00    -0.027 A 
HETATM    5  C   UNL     1      -7.550   2.186 -33.893  1.00  0.00     0.051 C 
HETATM    6  C   UNL     1      -5.789   3.172 -32.417  1.00  0.00     0.026 A 
HETATM    7  C   UNL     1      -4.672   3.082 -31.574  1.00  0.00     0.034 A 
HETATM    8  C   UNL     1      -4.108   1.828 -31.318  1.00  0.00     0.026 A 
ENDROOT
BRANCH   7   9
HETATM    9  C   UNL     1      -4.121   4.345 -31.006  1.00  0.00     0.270 C 
HETATM   10  N   UNL     1      -2.746   4.457 -30.949  1.00  0.00    -0.263 N 
HETATM   11  H   UNL     1      -2.098   3.693 -31.126  1.00  0.00     0.190 HD
HETATM   12  O   UNL     1      -4.868   5.224 -30.582  1.00  0.00    -0.266 OA
BRANCH  10  13
HETATM   13  N   UNL     1      -2.208   5.578 -30.306  1.00  0.00    -0.262 N 
HETATM   14  C   UNL     1      -0.869   5.589 -29.983  1.00  0.00     0.286 C 
HETATM   15  O   UNL     1      -0.131   4.641 -30.257  1.00  0.00    -0.264 OA
HETATM   16  H   UNL     1      -2.852   6.335 -30.094  1.00  0.00     0.190 HD
BRANCH  14  17
HETATM   17  C   UNL     1      -0.399   6.776 -29.306  1.00  0.00     0.102 A 
HETATM   18  N   UNL     1      -1.230   7.859 -29.097  1.00  0.00    -0.361 N 
HETATM   19  H   UNL     1      -2.197   7.890 -29.395  1.00  0.00     0.165 HD
HETATM   20  C   UNL     1      -0.558   8.854 -28.439  1.00  0.00     0.088 A 
HETATM   21  C   UNL     1       0.728   8.420 -28.220  1.00  0.00     0.019 A 
HETATM   22  C   UNL     1       0.830   7.115 -28.762  1.00  0.00     0.036 A 
ENDBRANCH  14  17
ENDBRANCH  10  13
ENDBRANCH   7   9
BRANCH   3  23
HETATM   23  O   UNL     1      -6.408  -0.400 -33.091  1.00  0.00    -0.346 OA
BRANCH  23  24
HETATM   24  C   UNL     1      -5.889  -0.778 -34.376  1.00  0.00     0.216 C 
BRANCH  24  25
HETATM   25  C   UNL     1      -5.714  -2.270 -34.499  1.00  0.00    -0.017 A 
HETATM   26  C   UNL     1      -4.458  -2.827 -34.268  1.00  0.00     0.125 A 
HETATM   27  N   UNL     1      -4.183  -4.149 -34.330  1.00  0.00    -0.272 NA
HETATM   28  C   UNL     1      -5.213  -4.966 -34.634  1.00  0.00     0.116 A 
HETATM   29  C   UNL     1      -6.503  -4.520 -34.869  1.00  0.00     0.020 A 
HETATM   30  C   UNL     1      -6.756  -3.153 -34.794  1.00  0.00     0.012 A 
ENDBRANCH  24  25
ENDBRANCH  23  24
ENDBRANCH   3  23
TORSDOF 6
ENDMDL
MODEL 3
REMARK VINA RESULT:      -8.2      3.414      4.916
REMARK  6 active torsions:
REMARK  status: ('A' for Active; 'I' for Inactive)
REMARK    1  A    between atoms: C_3  and  O_4 
REMARK    2  A    between atoms: O_4  and  C_5 
REMARK    3  A    between atoms: C_5  and  C_6 
REMARK    4  A    between atoms: C_15  and  C_16 
REMARK       I    between atoms: C_16  and  N_17 
REMARK    5  A    between atoms: N_17  and  N_18 
REMARK       I    between atoms: N_18  and  C_19 
REMARK    6  A    between atoms: C_19  and  C_20 
ROOT
HETATM    1  C   UNL     1      -7.357  -1.233 -34.120  1.00  0.00     0.051 C 
HETATM    2  C   UNL     1      -7.134   0.213 -33.773  1.00  0.00    -0.027 A 
HETATM    3  C   UNL     1      -8.159   1.168 -33.895  1.00  0.00     0.081 A 
HETATM    4  C   UNL     1      -7.913   2.525 -33.631  1.00  0.00    -0.027 A 
HETATM    5  C   UNL     1      -8.943   3.595 -33.857  1.00  0.00     0.051 C 
HETATM    6  C   UNL     1      -6.661   2.894 -33.113  1.00  0.00     0.026 A 
HETATM    7  C   UNL     1      -5.653   1.942 -32.907  1.00  0.00     0.034 A 
HETATM    8  C   UNL     1      -5.887   0.610 -33.262  1.00  0.00     0.026 A 
ENDROOT
BRANCH   7   9
HETATM    9  C   UNL     1      -4.357   2.408 -32.336  1.00  0.00     0.270 C 
HETATM   10  N   UNL     1      -4.379   3.582 -31.609  1.00  0.00    -0.263 N 
HETATM   11  H   UNL     1      -5.174   4.215 -31.562  1.00  0.00     0.190 HD
HETATM   12  O   UNL     1      -3.318   1.783 -32.538  1.00  0.00    -0.266 OA
BRANCH  10  13
HETATM   13  N   UNL     1      -3.157   4.102 -31.171  1.00  0.00    -0.262 N 
HETATM   14  C   UNL     1      -2.636   5.213 -31.798  1.00  0.00     0.286 C 
HETATM   15  O   UNL     1      -3.227   5.766 -32.727  1.00  0.00    -0.264 OA
HETATM   16  H   UNL     1      -2.700   3.613 -30.406  1.00  0.00     0.190 HD
BRANCH  14  17
HETATM   17  C   UNL     1      -1.362   5.675 -31.296  1.00  0.00     0.102 A 
HETATM   18  N   UNL     1      -0.790   5.118 -30.170  1.00  0.00    -0.361 N 
HETATM   19  H   UNL     1      -1.214   4.367 -29.637  1.00  0.00     0.165 HD
HETATM   20  C   UNL     1       0.408   5.721 -29.896  1.00  0.00     0.088 A 
HETATM   21  C   UNL     1       0.619   6.688 -30.850  1.00  0.00     0.019 A 
HETATM   22  C   UNL     1      -0.490   6.660 -31.732  1.00  0.00     0.036 A 
ENDBRANCH  14  17
ENDBRANCH  10  13
ENDBRANCH   7   9
BRANCH   3  23
HETATM   23  O   UNL     1      -9.381   0.731 -34.345  1.00  0.00    -0.346 OA
BRANCH  23  24
HETATM   24  C   UNL     1     -10.299   0.494 -33.266  1.00  0.00     0.216 C 
BRANCH  24  25
HETATM   25  C   UNL     1     -11.734   0.646 -33.701  1.00  0.00    -0.017 A 
HETATM   26  C   UNL     1     -12.088   1.728 -34.505  1.00  0.00     0.125 A 
HETATM   27  N   UNL     1     -13.335   1.960 -34.971  1.00  0.00    -0.272 NA
HETATM   28  C   UNL     1     -14.285   1.067 -34.625  1.00  0.00     0.116 A 
HETATM   29  C   UNL     1     -14.041  -0.049 -33.842  1.00  0.00     0.020 A 
HETATM   30  C   UNL     1     -12.745  -0.263 -33.380  1.00  0.00     0.012 A 
ENDBRANCH  24  25
ENDBRANCH  23  24
ENDBRANCH   3  23
TORSDOF 6
ENDMDL
MODEL 4
REMARK VINA RESULT:      -8.1      3.377      4.640
REMARK  6 active torsions:
REMARK  status: ('A' for Active; 'I' for Inactive)
REMARK    1  A    between atoms: C_3  and  O_4 
REMARK    2  A    between atoms: O_4  and  C_5 
REMARK    3  A    between atoms: C_5  and  C_6 
REMARK    4  A    between atoms: C_15  and  C_16 
REMARK       I    between atoms: C_16  and  N_17 
REMARK    5  A    between atoms: N_17  and  N_18 
REMARK       I    between atoms: N_18  and  C_19 
REMARK    6  A    between atoms: C_19  and  C_20 
ROOT
HETATM    1  C   UNL     1      -9.410   2.439 -30.933  1.00  0.00     0.051 C 
HETATM    2  C   UNL     1      -8.173   1.795 -31.495  1.00  0.00    -0.027 A 
HETATM    3  C   UNL     1      -8.246   0.750 -32.433  1.00  0.00     0.081 A 
HETATM    4  C   UNL     1      -7.081   0.117 -32.896  1.00  0.00    -0.027 A 
HETATM    5  C   UNL     1      -7.114  -1.077 -33.807  1.00  0.00     0.051 C 
HETATM    6  C   UNL     1      -5.834   0.635 -32.509  1.00  0.00     0.026 A 
HETATM    7  C   UNL     1      -5.742   1.730 -31.640  1.00  0.00     0.034 A 
HETATM    8  C   UNL     1      -6.913   2.289 -31.117  1.00  0.00     0.026 A 
ENDROOT
BRANCH   7   9
HETATM    9  C   UNL     1      -4.383   2.235 -31.291  1.00  0.00     0.270 C 
HETATM   10  N   UNL     1      -4.261   3.589 -31.051  1.00  0.00    -0.263 N 
HETATM   11  H   UNL     1      -4.989   4.275 -31.237  1.00  0.00     0.190 HD
HETATM   12  O   UNL     1      -3.419   1.474 -31.255  1.00  0.00    -0.266 OA
BRANCH  10  13
HETATM   13  N   UNL     1      -2.976   4.102 -30.846  1.00  0.00    -0.262 N 
HETATM   14  C   UNL     1      -2.697   5.393 -31.240  1.00  0.00     0.286 C 
HETATM   15  O   UNL     1      -3.556   6.110 -31.757  1.00  0.00    -0.264 OA
HETATM   16  H   UNL     1      -2.297   3.477 -30.422  1.00  0.00     0.190 HD
BRANCH  14  17
HETATM   17  C   UNL     1      -1.342   5.839 -31.008  1.00  0.00     0.102 A 
HETATM   18  N   UNL     1      -0.704   5.600 -29.807  1.00  0.00    -0.361 N 
HETATM   19  H   UNL     1      -1.133   5.108 -29.032  1.00  0.00     0.165 HD
HETATM   20  C   UNL     1       0.563   6.116 -29.831  1.00  0.00     0.088 A 
HETATM   21  C   UNL     1       0.755   6.704 -31.059  1.00  0.00     0.019 A 
HETATM   22  C   UNL     1      -0.439   6.531 -31.801  1.00  0.00     0.036 A 
ENDBRANCH  14  17
ENDBRANCH  10  13
ENDBRANCH   7   9
BRANCH   3  23
HETATM   23  O   UNL     1      -9.496   0.333 -32.820  1.00  0.00    -0.346 OA
BRANCH  23  24
HETATM   24  C   UNL     1      -9.986   1.074 -33.948  1.00  0.00     0.216 C 
BRANCH  24  25
HETATM   25  C   UNL     1     -11.487   1.008 -34.060  1.00  0.00    -0.017 A 
HETATM   26  C   UNL     1     -12.153   1.962 -34.827  1.00  0.00     0.125 A 
HETATM   27  N   UNL     1     -13.491   1.995 -35.016  1.00  0.00    -0.272 NA
HETATM   28  C   UNL     1     -14.210   1.023 -34.417  1.00  0.00     0.116 A 
HETATM   29  C   UNL     1     -13.649   0.019 -33.645  1.00  0.00     0.020 A 
HETATM   30  C   UNL     1     -12.267   0.010 -33.471  1.00  0.00     0.012 A 
ENDBRANCH  24  25
ENDBRANCH  23  24
ENDBRANCH   3  23
TORSDOF 6
ENDMDL
MODEL 5
REMARK VINA RESULT:      -8.0      4.279      9.611
REMARK  6 active torsions:
REMARK  status: ('A' for Active; 'I' for Inactive)
REMARK    1  A    between atoms: C_3  and  O_4 
REMARK    2  A    between atoms: O_4  and  C_5 
REMARK    3  A    between atoms: C_5  and  C_6 
REMARK    4  A    between atoms: C_15  and  C_16 
REMARK       I    between atoms: C_16  and  N_17 
REMARK    5  A    between atoms: N_17  and  N_18 
REMARK       I    between atoms: N_18  and  C_19 
REMARK    6  A    between atoms: C_19  and  C_20 
ROOT
HETATM    1  C   UNL     1      -3.888   0.448 -32.382  1.00  0.00     0.051 C 
HETATM    2  C   UNL     1      -4.869   1.513 -31.978  1.00  0.00    -0.027 A 
HETATM    3  C   UNL     1      -4.453   2.820 -31.668  1.00  0.00     0.081 A 
HETATM    4  C   UNL     1      -5.377   3.782 -31.228  1.00  0.00    -0.027 A 
HETATM    5  C   UNL     1      -4.964   5.155 -30.778  1.00  0.00     0.051 C 
HETATM    6  C   UNL     1      -6.743   3.456 -31.230  1.00  0.00     0.026 A 
HETATM    7  C   UNL     1      -7.183   2.182 -31.614  1.00  0.00     0.034 A 
HETATM    8  C   UNL     1      -6.241   1.208 -31.962  1.00  0.00     0.026 A 
ENDROOT
BRANCH   7   9
HETATM    9  C   UNL     1      -8.650   1.917 -31.608  1.00  0.00     0.270 C 
HETATM   10  N   UNL     1      -9.132   1.042 -32.562  1.00  0.00    -0.263 N 
HETATM   11  H   UNL     1      -8.589   0.688 -33.345  1.00  0.00     0.190 HD
HETATM   12  O   UNL     1      -9.390   2.485 -30.807  1.00  0.00    -0.266 OA
BRANCH  10  13
HETATM   13  N   UNL     1     -10.518   0.877 -32.655  1.00  0.00    -0.262 N 
HETATM   14  C   UNL     1     -11.211   1.550 -33.637  1.00  0.00     0.286 C 
HETATM   15  O   UNL     1     -10.638   2.285 -34.443  1.00  0.00    -0.264 OA
HETATM   16  H   UNL     1     -10.952   0.266 -31.968  1.00  0.00     0.190 HD
BRANCH  14  17
HETATM   17  C   UNL     1     -12.640   1.337 -33.653  1.00  0.00     0.102 A 
HETATM   18  N   UNL     1     -13.455   1.868 -32.673  1.00  0.00    -0.361 N 
HETATM   19  H   UNL     1     -13.114   2.429 -31.902  1.00  0.00     0.165 HD
HETATM   20  C   UNL     1     -14.761   1.530 -32.906  1.00  0.00     0.088 A 
HETATM   21  C   UNL     1     -14.800   0.764 -34.046  1.00  0.00     0.019 A 
HETATM   22  C   UNL     1     -13.470   0.642 -34.519  1.00  0.00     0.036 A 
ENDBRANCH  14  17
ENDBRANCH  10  13
ENDBRANCH   7   9
BRANCH   3  23
HETATM   23  O   UNL     1      -3.110   3.094 -31.750  1.00  0.00    -0.346 OA
BRANCH  23  24
HETATM   24  C   UNL     1      -2.720   3.491 -33.073  1.00  0.00     0.216 C 
BRANCH  24  25
HETATM   25  C   UNL     1      -2.184   4.899 -33.107  1.00  0.00    -0.017 A 
HETATM   26  C   UNL     1      -2.658   5.781 -34.075  1.00  0.00     0.125 A 
HETATM   27  N   UNL     1      -2.267   7.070 -34.194  1.00  0.00    -0.272 NA
HETATM   28  C   UNL     1      -1.360   7.511 -33.298  1.00  0.00     0.116 A 
HETATM   29  C   UNL     1      -0.834   6.723 -32.287  1.00  0.00     0.020 A 
HETATM   30  C   UNL     1      -1.258   5.400 -32.189  1.00  0.00     0.012 A 
ENDBRANCH  24  25
ENDBRANCH  23  24
ENDBRANCH   3  23
TORSDOF 6
ENDMDL
MODEL 6
REMARK VINA RESULT:      -7.7      2.873      3.521
REMARK  6 active torsions:
REMARK  status: ('A' for Active; 'I' for Inactive)
REMARK    1  A    between atoms: C_3  and  O_4 
REMARK    2  A    between atoms: O_4  and  C_5 
REMARK    3  A    between atoms: C_5  and  C_6 
REMARK    4  A    between atoms: C_15  and  C_16 
REMARK       I    between atoms: C_16  and  N_17 
REMARK    5  A    between atoms: N_17  and  N_18 
REMARK       I    between atoms: N_18  and  C_19 
REMARK    6  A    between atoms: C_19  and  C_20 
ROOT
HETATM    1  C   UNL     1      -4.529  -0.040 -30.935  1.00  0.00     0.051 C 
HETATM    2  C   UNL     1      -5.680   0.923 -30.861  1.00  0.00    -0.027 A 
HETATM    3  C   UNL     1      -6.902   0.665 -31.507  1.00  0.00     0.081 A 
HETATM    4  C   UNL     1      -7.943   1.608 -31.482  1.00  0.00    -0.027 A 
HETATM    5  C   UNL     1      -9.220   1.426 -32.251  1.00  0.00     0.051 C 
HETATM    6  C   UNL     1      -7.792   2.756 -30.686  1.00  0.00     0.026 A 
HETATM    7  C   UNL     1      -6.612   2.990 -29.968  1.00  0.00     0.034 A 
HETATM    8  C   UNL     1      -5.552   2.084 -30.079  1.00  0.00     0.026 A 
ENDROOT
BRANCH   7   9
HETATM    9  C   UNL     1      -6.535   4.222 -29.132  1.00  0.00     0.270 C 
HETATM   10  N   UNL     1      -5.379   4.410 -28.400  1.00  0.00    -0.263 N 
HETATM   11  H   UNL     1      -4.653   3.708 -28.280  1.00  0.00     0.190 HD
HETATM   12  O   UNL     1      -7.478   5.008 -29.080  1.00  0.00    -0.266 OA
BRANCH  10  13
HETATM   13  N   UNL     1      -5.336   5.492 -27.514  1.00  0.00    -0.262 N 
HETATM   14  C   UNL     1      -4.630   6.621 -27.865  1.00  0.00     0.286 C 
HETATM   15  O   UNL     1      -4.045   6.707 -28.946  1.00  0.00    -0.264 OA
HETATM   16  H   UNL     1      -5.827   5.378 -26.631  1.00  0.00     0.190 HD
BRANCH  14  17
HETATM   17  C   UNL     1      -4.623   7.684 -26.886  1.00  0.00     0.102 A 
HETATM   18  N   UNL     1      -4.259   7.449 -25.575  1.00  0.00    -0.361 N 
HETATM   19  H   UNL     1      -3.979   6.541 -25.224  1.00  0.00     0.165 HD
HETATM   20  C   UNL     1      -4.331   8.605 -24.846  1.00  0.00     0.088 A 
HETATM   21  C   UNL     1      -4.753   9.607 -25.688  1.00  0.00     0.019 A 
HETATM   22  C   UNL     1      -4.935   9.032 -26.970  1.00  0.00     0.036 A 
ENDBRANCH  14  17
ENDBRANCH  10  13
ENDBRANCH   7   9
BRANCH   3  23
HETATM   23  O   UNL     1      -7.008  -0.508 -32.214  1.00  0.00    -0.346 OA
BRANCH  23  24
HETATM   24  C   UNL     1      -6.300  -0.451 -33.462  1.00  0.00     0.216 C 
BRANCH  24  25
HETATM   25  C   UNL     1      -6.008  -1.824 -34.010  1.00  0.00    -0.017 A 
HETATM   26  C   UNL     1      -4.693  -2.285 -34.020  1.00  0.00     0.125 A 
HETATM   27  N   UNL     1      -4.311  -3.502 -34.468  1.00  0.00    -0.272 NA
HETATM   28  C   UNL     1      -5.289  -4.311 -34.927  1.00  0.00     0.116 A 
HETATM   29  C   UNL     1      -6.628  -3.958 -34.951  1.00  0.00     0.020 A 
HETATM   30  C   UNL     1      -6.991  -2.699 -34.480  1.00  0.00     0.012 A 
ENDBRANCH  24  25
ENDBRANCH  23  24
ENDBRANCH   3  23
TORSDOF 6
ENDMDL
MODEL 7
REMARK VINA RESULT:      -7.7      1.982      2.869
REMARK  6 active torsions:
REMARK  status: ('A' for Active; 'I' for Inactive)
REMARK    1  A    between atoms: C_3  and  O_4 
REMARK    2  A    between atoms: O_4  and  C_5 
REMARK    3  A    between atoms: C_5  and  C_6 
REMARK    4  A    between atoms: C_15  and  C_16 
REMARK       I    between atoms: C_16  and  N_17 
REMARK    5  A    between atoms: N_17  and  N_18 
REMARK       I    between atoms: N_18  and  C_19 
REMARK    6  A    between atoms: C_19  and  C_20 
ROOT
HETATM    1  C   UNL     1      -2.970  -0.012 -31.166  1.00  0.00     0.051 C 
HETATM    2  C   UNL     1      -3.679   1.171 -31.765  1.00  0.00    -0.027 A 
HETATM    3  C   UNL     1      -4.819   1.017 -32.573  1.00  0.00     0.081 A 
HETATM    4  C   UNL     1      -5.427   2.130 -33.178  1.00  0.00    -0.027 A 
HETATM    5  C   UNL     1      -6.575   2.003 -34.139  1.00  0.00     0.051 C 
HETATM    6  C   UNL     1      -4.959   3.413 -32.852  1.00  0.00     0.026 A 
HETATM    7  C   UNL     1      -3.874   3.590 -31.982  1.00  0.00     0.034 A 
HETATM    8  C   UNL     1      -3.224   2.466 -31.463  1.00  0.00     0.026 A 
ENDROOT
BRANCH   7   9
HETATM    9  C   UNL     1      -3.447   4.983 -31.671  1.00  0.00     0.270 C 
HETATM   10  N   UNL     1      -2.674   5.163 -30.541  1.00  0.00    -0.263 N 
HETATM   11  H   UNL     1      -2.503   4.447 -29.840  1.00  0.00     0.190 HD
HETATM   12  O   UNL     1      -3.802   5.924 -32.378  1.00  0.00    -0.266 OA
BRANCH  10  13
HETATM   13  N   UNL     1      -2.368   6.474 -30.161  1.00  0.00    -0.262 N 
HETATM   14  C   UNL     1      -3.189   7.123 -29.266  1.00  0.00     0.286 C 
HETATM   15  O   UNL     1      -4.179   6.573 -28.781  1.00  0.00    -0.264 OA
HETATM   16  H   UNL     1      -1.546   6.893 -30.588  1.00  0.00     0.190 HD
BRANCH  14  17
HETATM   17  C   UNL     1      -2.811   8.480 -28.940  1.00  0.00     0.102 A 
HETATM   18  N   UNL     1      -2.508   8.849 -27.645  1.00  0.00    -0.361 N 
HETATM   19  H   UNL     1      -2.528   8.209 -26.859  1.00  0.00     0.165 HD
HETATM   20  C   UNL     1      -2.182  10.177 -27.592  1.00  0.00     0.088 A 
HETATM   21  C   UNL     1      -2.278  10.685 -28.866  1.00  0.00     0.019 A 
HETATM   22  C   UNL     1      -2.672   9.621 -29.715  1.00  0.00     0.036 A 
ENDBRANCH  14  17
ENDBRANCH  10  13
ENDBRANCH   7   9
BRANCH   3  23
HETATM   23  O   UNL     1      -5.267  -0.261 -32.799  1.00  0.00    -0.346 OA
BRANCH  23  24
HETATM   24  C   UNL     1      -4.526  -0.917 -33.840  1.00  0.00     0.216 C 
BRANCH  24  25
HETATM   25  C   UNL     1      -5.109  -2.261 -34.190  1.00  0.00    -0.017 A 
HETATM   26  C   UNL     1      -4.299  -3.392 -34.111  1.00  0.00     0.125 A 
HETATM   27  N   UNL     1      -4.713  -4.651 -34.381  1.00  0.00    -0.272 NA
HETATM   28  C   UNL     1      -6.004  -4.797 -34.744  1.00  0.00     0.116 A 
HETATM   29  C   UNL     1      -6.898  -3.744 -34.842  1.00  0.00     0.020 A 
HETATM   30  C   UNL     1      -6.443  -2.460 -34.554  1.00  0.00     0.012 A 
ENDBRANCH  24  25
ENDBRANCH  23  24
ENDBRANCH   3  23
TORSDOF 6
ENDMDL
MODEL 8
REMARK VINA RESULT:      -7.7      2.298     10.168
REMARK  6 active torsions:
REMARK  status: ('A' for Active; 'I' for Inactive)
REMARK    1  A    between atoms: C_3  and  O_4 
REMARK    2  A    between atoms: O_4  and  C_5 
REMARK    3  A    between atoms: C_5  and  C_6 
REMARK    4  A    between atoms: C_15  and  C_16 
REMARK       I    between atoms: C_16  and  N_17 
REMARK    5  A    between atoms: N_17  and  N_18 
REMARK       I    between atoms: N_18  and  C_19 
REMARK    6  A    between atoms: C_19  and  C_20 
ROOT
HETATM    1  C   UNL     1      -4.238   6.666 -29.491  1.00  0.00     0.051 C 
HETATM    2  C   UNL     1      -3.744   5.862 -30.661  1.00  0.00    -0.027 A 
HETATM    3  C   UNL     1      -2.489   6.106 -31.248  1.00  0.00     0.081 A 
HETATM    4  C   UNL     1      -2.074   5.388 -32.382  1.00  0.00    -0.027 A 
HETATM    5  C   UNL     1      -0.795   5.692 -33.109  1.00  0.00     0.051 C 
HETATM    6  C   UNL     1      -2.874   4.329 -32.840  1.00  0.00     0.026 A 
HETATM    7  C   UNL     1      -4.090   4.018 -32.216  1.00  0.00     0.034 A 
HETATM    8  C   UNL     1      -4.531   4.803 -31.145  1.00  0.00     0.026 A 
ENDROOT
BRANCH   7   9
HETATM    9  C   UNL     1      -4.875   2.868 -32.748  1.00  0.00     0.270 C 
HETATM   10  N   UNL     1      -4.395   1.603 -32.474  1.00  0.00    -0.263 N 
HETATM   11  H   UNL     1      -3.482   1.408 -32.070  1.00  0.00     0.190 HD
HETATM   12  O   UNL     1      -5.884   3.053 -33.426  1.00  0.00    -0.266 OA
BRANCH  10  13
HETATM   13  N   UNL     1      -5.044   0.515 -33.068  1.00  0.00    -0.262 N 
HETATM   14  C   UNL     1      -4.354  -0.664 -33.247  1.00  0.00     0.286 C 
HETATM   15  O   UNL     1      -3.183  -0.788 -32.884  1.00  0.00    -0.264 OA
HETATM   16  H   UNL     1      -6.007   0.660 -33.357  1.00  0.00     0.190 HD
BRANCH  14  17
HETATM   17  C   UNL     1      -5.092  -1.731 -33.883  1.00  0.00     0.102 A 
HETATM   18  N   UNL     1      -6.472  -1.758 -33.865  1.00  0.00    -0.361 N 
HETATM   19  H   UNL     1      -7.042  -1.050 -33.418  1.00  0.00     0.165 HD
HETATM   20  C   UNL     1      -6.935  -2.861 -34.530  1.00  0.00     0.088 A 
HETATM   21  C   UNL     1      -5.846  -3.567 -34.983  1.00  0.00     0.019 A 
HETATM   22  C   UNL     1      -4.687  -2.859 -34.579  1.00  0.00     0.036 A 
ENDBRANCH  14  17
ENDBRANCH  10  13
ENDBRANCH   7   9
BRANCH   3  23
HETATM   23  O   UNL     1      -1.724   7.113 -30.711  1.00  0.00    -0.346 OA
BRANCH  23  24
HETATM   24  C   UNL     1      -0.771   6.616 -29.759  1.00  0.00     0.216 C 
BRANCH  24  25
HETATM   25  C   UNL     1      -0.280   7.699 -28.833  1.00  0.00    -0.017 A 
HETATM   26  C   UNL     1      -1.194   8.617 -28.318  1.00  0.00     0.125 A 
HETATM   27  N   UNL     1      -0.877   9.618 -27.467  1.00  0.00    -0.272 NA
HETATM   28  C   UNL     1       0.418   9.711 -27.099  1.00  0.00     0.116 A 
HETATM   29  C   UNL     1       1.405   8.845 -27.540  1.00  0.00     0.020 A 
HETATM   30  C   UNL     1       1.047   7.821 -28.414  1.00  0.00     0.012 A 
ENDBRANCH  24  25
ENDBRANCH  23  24
ENDBRANCH   3  23
TORSDOF 6
ENDMDL
MODEL 9
REMARK VINA RESULT:      -7.6     16.807     20.323
REMARK  6 active torsions:
REMARK  status: ('A' for Active; 'I' for Inactive)
REMARK    1  A    between atoms: C_3  and  O_4 
REMARK    2  A    between atoms: O_4  and  C_5 
REMARK    3  A    between atoms: C_5  and  C_6 
REMARK    4  A    between atoms: C_15  and  C_16 
REMARK       I    between atoms: C_16  and  N_17 
REMARK    5  A    between atoms: N_17  and  N_18 
REMARK       I    between atoms: N_18  and  C_19 
REMARK    6  A    between atoms: C_19  and  C_20 
ROOT
HETATM    1  C   UNL     1      -8.671 -12.461 -40.266  1.00  0.00     0.051 C 
HETATM    2  C   UNL     1      -7.199 -12.742 -40.148  1.00  0.00    -0.027 A 
HETATM    3  C   UNL     1      -6.533 -12.688 -38.910  1.00  0.00     0.081 A 
HETATM    4  C   UNL     1      -5.145 -12.888 -38.831  1.00  0.00    -0.027 A 
HETATM    5  C   UNL     1      -4.375 -12.728 -37.551  1.00  0.00     0.051 C 
HETATM    6  C   UNL     1      -4.453 -13.277 -39.990  1.00  0.00     0.026 A 
HETATM    7  C   UNL     1      -5.115 -13.415 -41.217  1.00  0.00     0.034 A 
HETATM    8  C   UNL     1      -6.481 -13.123 -41.295  1.00  0.00     0.026 A 
ENDROOT
BRANCH   7   9
HETATM    9  C   UNL     1      -4.316 -13.849 -42.398  1.00  0.00     0.270 C 
HETATM   10  N   UNL     1      -5.016 -14.162 -43.547  1.00  0.00    -0.263 N 
HETATM   11  H   UNL     1      -6.027 -14.257 -43.597  1.00  0.00     0.190 HD
HETATM   12  O   UNL     1      -3.093 -13.951 -42.329  1.00  0.00    -0.266 OA
BRANCH  10  13
HETATM   13  N   UNL     1      -4.298 -14.690 -44.625  1.00  0.00    -0.262 N 
HETATM   14  C   UNL     1      -4.581 -15.966 -45.060  1.00  0.00     0.286 C 
HETATM   15  O   UNL     1      -5.459 -16.649 -44.531  1.00  0.00    -0.264 OA
HETATM   16  H   UNL     1      -3.579 -14.096 -45.030  1.00  0.00     0.190 HD
BRANCH  14  17
HETATM   17  C   UNL     1      -3.782 -16.441 -46.168  1.00  0.00     0.102 A 
HETATM   18  N   UNL     1      -4.348 -16.706 -47.399  1.00  0.00    -0.361 N 
HETATM   19  H   UNL     1      -5.334 -16.585 -47.601  1.00  0.00     0.165 HD
HETATM   20  C   UNL     1      -3.394 -17.141 -48.278  1.00  0.00     0.088 A 
HETATM   21  C   UNL     1      -2.190 -17.167 -47.613  1.00  0.00     0.019 A 
HETATM   22  C   UNL     1      -2.431 -16.727 -46.288  1.00  0.00     0.036 A 
ENDBRANCH  14  17
ENDBRANCH  10  13
ENDBRANCH   7   9
BRANCH   3  23
HETATM   23  O   UNL     1      -7.280 -12.368 -37.803  1.00  0.00    -0.346 OA
BRANCH  23  24
HETATM   24  C   UNL     1      -7.942 -13.516 -37.249  1.00  0.00     0.216 C 
BRANCH  24  25
HETATM   25  C   UNL     1      -7.268 -14.005 -35.993  1.00  0.00    -0.017 A 
HETATM   26  C   UNL     1      -6.688 -15.272 -35.985  1.00  0.00     0.125 A 
HETATM   27  N   UNL     1      -6.041 -15.811 -34.927  1.00  0.00    -0.272 NA
HETATM   28  C   UNL     1      -5.960 -15.050 -33.816  1.00  0.00     0.116 A 
HETATM   29  C   UNL     1      -6.490 -13.774 -33.720  1.00  0.00     0.020 A 
HETATM   30  C   UNL     1      -7.147 -13.244 -34.828  1.00  0.00     0.012 A 
ENDBRANCH  24  25
ENDBRANCH  23  24
ENDBRANCH   3  23
TORSDOF 6
ENDMDL
MODEL 10
REMARK VINA RESULT:      -7.6      4.450      9.654
REMARK  6 active torsions:
REMARK  status: ('A' for Active; 'I' for Inactive)
REMARK    1  A    between atoms: C_3  and  O_4 
REMARK    2  A    between atoms: O_4  and  C_5 
REMARK    3  A    between atoms: C_5  and  C_6 
REMARK    4  A    between atoms: C_15  and  C_16 
REMARK       I    between atoms: C_16  and  N_17 
REMARK    5  A    between atoms: N_17  and  N_18 
REMARK       I    between atoms: N_18  and  C_19 
REMARK    6  A    between atoms: C_19  and  C_20 
ROOT
HETATM    1  C   UNL     1      -5.170   4.255 -34.055  1.00  0.00     0.051 C 
HETATM    2  C   UNL     1      -5.589   3.061 -33.245  1.00  0.00    -0.027 A 
HETATM    3  C   UNL     1      -4.660   2.302 -32.512  1.00  0.00     0.081 A 
HETATM    4  C   UNL     1      -5.061   1.150 -31.816  1.00  0.00    -0.027 A 
HETATM    5  C   UNL     1      -4.087   0.247 -31.114  1.00  0.00     0.051 C 
HETATM    6  C   UNL     1      -6.430   0.844 -31.753  1.00  0.00     0.026 A 
HETATM    7  C   UNL     1      -7.381   1.636 -32.411  1.00  0.00     0.034 A 
HETATM    8  C   UNL     1      -6.953   2.727 -33.175  1.00  0.00     0.026 A 
ENDROOT
BRANCH   7   9
HETATM    9  C   UNL     1      -8.817   1.257 -32.282  1.00  0.00     0.270 C 
HETATM   10  N   UNL     1      -9.700   1.837 -33.171  1.00  0.00    -0.263 N 
HETATM   11  H   UNL     1      -9.465   2.602 -33.799  1.00  0.00     0.190 HD
HETATM   12  O   UNL     1      -9.189   0.487 -31.399  1.00  0.00    -0.266 OA
BRANCH  10  13
HETATM   13  N   UNL     1     -11.065   1.594 -32.989  1.00  0.00    -0.262 N 
HETATM   14  C   UNL     1     -11.981   2.498 -33.481  1.00  0.00     0.286 C 
HETATM   15  O   UNL     1     -11.627   3.509 -34.089  1.00  0.00    -0.264 OA
HETATM   16  H   UNL     1     -11.314   0.751 -32.478  1.00  0.00     0.190 HD
BRANCH  14  17
HETATM   17  C   UNL     1     -13.369   2.179 -33.235  1.00  0.00     0.102 A 
HETATM   18  N   UNL     1     -14.078   1.355 -34.086  1.00  0.00    -0.361 N 
HETATM   19  H   UNL     1     -13.680   0.930 -34.916  1.00  0.00     0.165 HD
HETATM   20  C   UNL     1     -15.364   1.206 -33.643  1.00  0.00     0.088 A 
HETATM   21  C   UNL     1     -15.500   1.945 -32.492  1.00  0.00     0.019 A 
HETATM   22  C   UNL     1     -14.249   2.557 -32.232  1.00  0.00     0.036 A 
ENDBRANCH  14  17
ENDBRANCH  10  13
ENDBRANCH   7   9
BRANCH   3  23
HETATM   23  O   UNL     1      -3.344   2.694 -32.561  1.00  0.00    -0.346 OA
BRANCH  23  24
HETATM   24  C   UNL     1      -2.984   3.514 -31.439  1.00  0.00     0.216 C 
BRANCH  24  25
HETATM   25  C   UNL     1      -2.229   4.749 -31.860  1.00  0.00    -0.017 A 
HETATM   26  C   UNL     1      -1.951   5.730 -30.910  1.00  0.00     0.125 A 
HETATM   27  N   UNL     1      -1.268   6.869 -31.163  1.00  0.00    -0.272 NA
HETATM   28  C   UNL     1      -0.830   7.042 -32.427  1.00  0.00     0.116 A 
HETATM   29  C   UNL     1      -1.039   6.126 -33.445  1.00  0.00     0.020 A 
HETATM   30  C   UNL     1      -1.744   4.961 -33.152  1.00  0.00     0.012 A 
ENDBRANCH  24  25
ENDBRANCH  23  24
ENDBRANCH   3  23
TORSDOF 6
ENDMDL
