MODEL 1
REMARK VINA RESULT:      -9.6      0.000      0.000
REMARK  8 active torsions:
REMARK  status: ('A' for Active; 'I' for Inactive)
REMARK    1  A    between atoms: C_6  and  C_7 
REMARK       I    between atoms: C_7  and  N_8 
REMARK    2  A    between atoms: N_8  and  C_9 
REMARK    3  A    between atoms: C_9  and  C_10 
REMARK    4  A    between atoms: N_15  and  C_17 
REMARK    5  A    between atoms: C_17  and  C_18 
REMARK    6  A    between atoms: C_21  and  C_22 
REMARK    7  A    between atoms: C_23  and  C_24 
REMARK    8  A    between atoms: C_24  and  O_25 
ROOT
HETATM    1  C   UNL     1      -5.371   5.039 -33.816  1.00  0.00     0.140 C 
HETATM    2  O   UNL     1      -4.461   4.883 -32.701  1.00  0.00    -0.373 OA
HETATM    3  C   UNL     1      -3.172   5.394 -33.106  1.00  0.00     0.064 C 
HETATM    4  C   UNL     1      -2.129   4.330 -32.751  1.00  0.00     0.066 C 
HETATM    5  C   UNL     1      -2.048   4.118 -31.245  1.00  0.00     0.238 C 
HETATM    6  N   UNL     1      -1.753   5.418 -30.534  1.00  0.00    -0.067 N 
HETATM    7  H   UNL     1      -1.855   5.202 -29.535  1.00  0.00     0.280 HD
HETATM    8  C   UNL     1      -2.808   6.455 -30.839  1.00  0.00     0.238 C 
HETATM    9  C   UNL     1      -2.913   6.696 -32.339  1.00  0.00     0.066 C 
HETATM   10  C   UNL     1      -3.252   5.635 -34.620  1.00  0.00     0.041 C 
HETATM   11  C   UNL     1      -4.484   4.863 -35.033  1.00  0.00     0.036 C 
ENDROOT
BRANCH   1  12
HETATM   12  C   UNL     1      -6.512   4.019 -33.757  1.00  0.00     0.155 C 
BRANCH  12  13
HETATM   13  N   UNL     1      -6.093   2.645 -33.977  1.00  0.00    -0.353 N 
HETATM   14  C   UNL     1      -6.201   1.677 -33.000  1.00  0.00     0.270 C 
HETATM   15  O   UNL     1      -6.530   1.964 -31.853  1.00  0.00    -0.266 OA
HETATM   16  H   UNL     1      -5.903   2.359 -34.924  1.00  0.00     0.162 HD
BRANCH  14  17
HETATM   17  C   UNL     1      -5.889   0.332 -33.429  1.00  0.00     0.122 A 
HETATM   18  N   UNL     1      -4.658  -0.266 -33.271  1.00  0.00    -0.269 N 
HETATM   19  N   UNL     1      -4.594  -1.517 -33.765  1.00  0.00    -0.177 NA
HETATM   20  C   UNL     1      -3.474   0.298 -32.661  1.00  0.00     0.180 C 
HETATM   21  C   UNL     1      -5.827  -1.763 -34.209  1.00  0.00     0.053 A 
HETATM   22  C   UNL     1      -6.173  -3.083 -34.791  1.00  0.00     0.072 C 
HETATM   23  C   UNL     1      -6.667  -0.642 -34.037  1.00  0.00     0.065 A 
ENDBRANCH  14  17
ENDBRANCH  12  13
ENDBRANCH   1  12
BRANCH   6  24
HETATM   24  C   UNL     1      -0.338   5.942 -30.669  1.00  0.00     0.273 C 
BRANCH  24  25
HETATM   25  C   UNL     1       0.190   6.584 -29.415  1.00  0.00    -0.033 A 
HETATM   26  C   UNL     1       0.781   7.855 -29.466  1.00  0.00     0.010 A 
HETATM   27  C   UNL     1       1.319   8.435 -28.315  1.00  0.00     0.021 A 
HETATM   28  C   UNL     1       1.272   7.752 -27.100  1.00  0.00     0.017 A 
HETATM   29  C   UNL     1       0.671   6.494 -27.034  1.00  0.00     0.021 A 
HETATM   30  C   UNL     1       0.132   5.910 -28.184  1.00  0.00     0.010 A 
BRANCH  28  31
HETATM   31  C   UNL     1       1.843   8.337 -25.930  1.00  0.00    -0.064 C 
HETATM   32  C   UNL     1       2.335   8.831 -24.951  1.00  0.00    -0.064 C 
BRANCH  32  33
HETATM   33  C   UNL     1       2.946   9.430 -23.752  1.00  0.00     0.114 C 
HETATM   34  C   UNL     1       1.881  10.092 -22.879  1.00  0.00     0.060 C 
HETATM   35  C   UNL     1       3.714   8.376 -22.959  1.00  0.00     0.060 C 
BRANCH  33  36
HETATM   36  O   UNL     1       3.879  10.426 -24.165  1.00  0.00    -0.378 OA
HETATM   37  H   UNL     1       3.417  11.280 -24.144  1.00  0.00     0.211 HD
ENDBRANCH  33  36
ENDBRANCH  32  33
ENDBRANCH  28  31
ENDBRANCH  24  25
ENDBRANCH   6  24
TORSDOF 8
ENDMDL
MODEL 2
REMARK VINA RESULT:      -8.4      2.595      3.399
REMARK  8 active torsions:
REMARK  status: ('A' for Active; 'I' for Inactive)
REMARK    1  A    between atoms: C_6  and  C_7 
REMARK       I    between atoms: C_7  and  N_8 
REMARK    2  A    between atoms: N_8  and  C_9 
REMARK    3  A    between atoms: C_9  and  C_10 
REMARK    4  A    between atoms: N_15  and  C_17 
REMARK    5  A    between atoms: C_17  and  C_18 
REMARK    6  A    between atoms: C_21  and  C_22 
REMARK    7  A    between atoms: C_23  and  C_24 
REMARK    8  A    between atoms: C_24  and  O_25 
ROOT
HETATM    1  C   UNL     1      -5.513   4.115 -33.717  1.00  0.00     0.140 C 
HETATM    2  O   UNL     1      -4.546   4.953 -33.041  1.00  0.00    -0.373 OA
HETATM    3  C   UNL     1      -3.545   4.091 -32.455  1.00  0.00     0.064 C 
HETATM    4  C   UNL     1      -3.376   4.520 -30.995  1.00  0.00     0.066 C 
HETATM    5  C   UNL     1      -2.826   5.937 -30.896  1.00  0.00     0.238 C 
HETATM    6  N   UNL     1      -1.522   6.061 -31.647  1.00  0.00    -0.067 N 
HETATM    7  H   UNL     1      -1.307   7.066 -31.640  1.00  0.00     0.280 HD
HETATM    8  C   UNL     1      -1.695   5.691 -33.101  1.00  0.00     0.238 C 
HETATM    9  C   UNL     1      -2.240   4.275 -33.237  1.00  0.00     0.066 C 
HETATM   10  C   UNL     1      -4.079   2.657 -32.573  1.00  0.00     0.041 C 
HETATM   11  C   UNL     1      -5.547   2.853 -32.878  1.00  0.00     0.036 C 
ENDROOT
BRANCH   1  12
HETATM   12  C   UNL     1      -6.878   4.802 -33.818  1.00  0.00     0.155 C 
BRANCH  12  13
HETATM   13  N   UNL     1      -7.995   3.883 -33.962  1.00  0.00    -0.353 N 
HETATM   14  C   UNL     1      -8.966   3.749 -32.992  1.00  0.00     0.270 C 
HETATM   15  O   UNL     1      -8.857   4.299 -31.900  1.00  0.00    -0.266 OA
HETATM   16  H   UNL     1      -8.162   3.486 -34.873  1.00  0.00     0.162 HD
BRANCH  14  17
HETATM   17  C   UNL     1     -10.089   2.914 -33.356  1.00  0.00     0.122 A 
HETATM   18  N   UNL     1     -10.180   1.569 -33.069  1.00  0.00    -0.269 N 
HETATM   19  N   UNL     1     -11.309   0.991 -33.524  1.00  0.00    -0.177 NA
HETATM   20  C   UNL     1      -9.219   0.749 -32.365  1.00  0.00     0.180 C 
HETATM   21  C   UNL     1     -11.996   1.993 -34.075  1.00  0.00     0.053 A 
HETATM   22  C   UNL     1     -13.342   1.759 -34.654  1.00  0.00     0.072 C 
HETATM   23  C   UNL     1     -11.277   3.205 -34.009  1.00  0.00     0.065 A 
ENDBRANCH  14  17
ENDBRANCH  12  13
ENDBRANCH   1  12
BRANCH   6  24
HETATM   24  C   UNL     1      -0.318   5.408 -30.999  1.00  0.00     0.273 C 
BRANCH  24  25
HETATM   25  C   UNL     1       0.190   6.146 -29.791  1.00  0.00    -0.033 A 
HETATM   26  C   UNL     1       0.451   7.523 -29.862  1.00  0.00     0.010 A 
HETATM   27  C   UNL     1       0.972   8.205 -28.759  1.00  0.00     0.021 A 
HETATM   28  C   UNL     1       1.236   7.519 -27.574  1.00  0.00     0.017 A 
HETATM   29  C   UNL     1       0.965   6.153 -27.487  1.00  0.00     0.021 A 
HETATM   30  C   UNL     1       0.444   5.467 -28.588  1.00  0.00     0.010 A 
BRANCH  28  31
HETATM   31  C   UNL     1       1.790   8.214 -26.456  1.00  0.00    -0.064 C 
HETATM   32  C   UNL     1       2.265   8.789 -25.513  1.00  0.00    -0.064 C 
BRANCH  32  33
HETATM   33  C   UNL     1       2.845   9.485 -24.352  1.00  0.00     0.114 C 
HETATM   34  C   UNL     1       2.049  10.748 -24.030  1.00  0.00     0.060 C 
HETATM   35  C   UNL     1       2.897   8.557 -23.142  1.00  0.00     0.060 C 
BRANCH  33  36
HETATM   36  O   UNL     1       4.184   9.860 -24.669  1.00  0.00    -0.378 OA
HETATM   37  H   UNL     1       4.194  10.824 -24.788  1.00  0.00     0.211 HD
ENDBRANCH  33  36
ENDBRANCH  32  33
ENDBRANCH  28  31
ENDBRANCH  24  25
ENDBRANCH   6  24
TORSDOF 8
ENDMDL
MODEL 3
REMARK VINA RESULT:      -8.4      3.678     11.809
REMARK  8 active torsions:
REMARK  status: ('A' for Active; 'I' for Inactive)
REMARK    1  A    between atoms: C_6  and  C_7 
REMARK       I    between atoms: C_7  and  N_8 
REMARK    2  A    between atoms: N_8  and  C_9 
REMARK    3  A    between atoms: C_9  and  C_10 
REMARK    4  A    between atoms: N_15  and  C_17 
REMARK    5  A    between atoms: C_17  and  C_18 
REMARK    6  A    between atoms: C_21  and  C_22 
REMARK    7  A    between atoms: C_23  and  C_24 
REMARK    8  A    between atoms: C_24  and  O_25 
ROOT
HETATM    1  C   UNL     1       0.102   5.302 -30.850  1.00  0.00     0.140 C 
HETATM    2  O   UNL     1      -1.285   4.920 -30.997  1.00  0.00    -0.373 OA
HETATM    3  C   UNL     1      -1.802   5.573 -32.178  1.00  0.00     0.064 C 
HETATM    4  C   UNL     1      -3.119   6.249 -31.783  1.00  0.00     0.066 C 
HETATM    5  C   UNL     1      -4.165   5.222 -31.373  1.00  0.00     0.238 C 
HETATM    6  N   UNL     1      -4.389   4.212 -32.474  1.00  0.00    -0.067 N 
HETATM    7  H   UNL     1      -4.996   3.496 -32.057  1.00  0.00     0.280 HD
HETATM    8  C   UNL     1      -3.104   3.504 -32.831  1.00  0.00     0.238 C 
HETATM    9  C   UNL     1      -2.034   4.503 -33.251  1.00  0.00     0.066 C 
HETATM   10  C   UNL     1      -0.742   6.593 -32.614  1.00  0.00     0.041 C 
HETATM   11  C   UNL     1       0.148   6.715 -31.399  1.00  0.00     0.036 C 
ENDROOT
BRANCH   1  12
HETATM   12  C   UNL     1       0.559   5.213 -29.391  1.00  0.00     0.155 C 
BRANCH  12  13
HETATM   13  N   UNL     1      -0.316   5.897 -28.453  1.00  0.00    -0.353 N 
HETATM   14  C   UNL     1       0.023   7.103 -27.876  1.00  0.00     0.270 C 
HETATM   15  O   UNL     1       1.141   7.587 -28.022  1.00  0.00    -0.266 OA
HETATM   16  H   UNL     1      -1.268   5.574 -28.378  1.00  0.00     0.162 HD
BRANCH  14  17
HETATM   17  C   UNL     1      -1.021   7.725 -27.091  1.00  0.00     0.122 A 
HETATM   18  N   UNL     1      -1.783   8.789 -27.521  1.00  0.00    -0.269 N 
HETATM   19  N   UNL     1      -2.681   9.217 -26.613  1.00  0.00    -0.177 NA
HETATM   20  C   UNL     1      -1.710   9.471 -28.794  1.00  0.00     0.180 C 
HETATM   21  C   UNL     1      -2.539   8.379 -25.585  1.00  0.00     0.053 A 
HETATM   22  C   UNL     1      -3.405   8.497 -24.386  1.00  0.00     0.072 C 
HETATM   23  C   UNL     1      -1.512   7.441 -25.826  1.00  0.00     0.065 A 
ENDBRANCH  14  17
ENDBRANCH  12  13
ENDBRANCH   1  12
BRANCH   6  24
HETATM   24  C   UNL     1      -5.158   4.708 -33.682  1.00  0.00     0.273 C 
BRANCH  24  25
HETATM   25  C   UNL     1      -6.538   4.121 -33.801  1.00  0.00    -0.033 A 
HETATM   26  C   UNL     1      -7.665   4.958 -33.804  1.00  0.00     0.010 A 
HETATM   27  C   UNL     1      -8.951   4.416 -33.862  1.00  0.00     0.021 A 
HETATM   28  C   UNL     1      -9.126   3.034 -33.917  1.00  0.00     0.017 A 
HETATM   29  C   UNL     1      -8.012   2.193 -33.931  1.00  0.00     0.021 A 
HETATM   30  C   UNL     1      -6.724   2.731 -33.873  1.00  0.00     0.010 A 
BRANCH  28  31
HETATM   31  C   UNL     1     -10.443   2.482 -33.953  1.00  0.00    -0.064 C 
HETATM   32  C   UNL     1     -11.549   2.013 -33.971  1.00  0.00    -0.064 C 
BRANCH  32  33
HETATM   33  C   UNL     1     -12.901   1.428 -33.991  1.00  0.00     0.114 C 
HETATM   34  C   UNL     1     -12.848  -0.058 -33.644  1.00  0.00     0.060 C 
HETATM   35  C   UNL     1     -13.822   2.174 -33.030  1.00  0.00     0.060 C 
BRANCH  33  36
HETATM   36  O   UNL     1     -13.439   1.570 -35.304  1.00  0.00    -0.378 OA
HETATM   37  H   UNL     1     -12.792   1.193 -35.924  1.00  0.00     0.211 HD
ENDBRANCH  33  36
ENDBRANCH  32  33
ENDBRANCH  28  31
ENDBRANCH  24  25
ENDBRANCH   6  24
TORSDOF 8
ENDMDL
MODEL 4
REMARK VINA RESULT:      -8.3      2.967     11.326
REMARK  8 active torsions:
REMARK  status: ('A' for Active; 'I' for Inactive)
REMARK    1  A    between atoms: C_6  and  C_7 
REMARK       I    between atoms: C_7  and  N_8 
REMARK    2  A    between atoms: N_8  and  C_9 
REMARK    3  A    between atoms: C_9  and  C_10 
REMARK    4  A    between atoms: N_15  and  C_17 
REMARK    5  A    between atoms: C_17  and  C_18 
REMARK    6  A    between atoms: C_21  and  C_22 
REMARK    7  A    between atoms: C_23  and  C_24 
REMARK    8  A    between atoms: C_24  and  O_25 
ROOT
HETATM    1  C   UNL     1      -0.588   5.836 -32.223  1.00  0.00     0.140 C 
HETATM    2  O   UNL     1      -1.744   5.401 -31.470  1.00  0.00    -0.373 OA
HETATM    3  C   UNL     1      -2.817   5.155 -32.407  1.00  0.00     0.064 C 
HETATM    4  C   UNL     1      -4.055   5.886 -31.881  1.00  0.00     0.066 C 
HETATM    5  C   UNL     1      -4.514   5.308 -30.549  1.00  0.00     0.238 C 
HETATM    6  N   UNL     1      -4.775   3.825 -30.668  1.00  0.00    -0.067 N 
HETATM    7  H   UNL     1      -4.941   3.508 -29.704  1.00  0.00     0.280 HD
HETATM    8  C   UNL     1      -3.541   3.092 -31.134  1.00  0.00     0.238 C 
HETATM    9  C   UNL     1      -3.057   3.642 -32.469  1.00  0.00     0.066 C 
HETATM   10  C   UNL     1      -2.353   5.711 -33.759  1.00  0.00     0.041 C 
HETATM   11  C   UNL     1      -1.183   6.595 -33.393  1.00  0.00     0.036 C 
ENDROOT
BRANCH   1  12
HETATM   12  C   UNL     1       0.350   6.694 -31.369  1.00  0.00     0.155 C 
BRANCH  12  13
HETATM   13  N   UNL     1      -0.210   7.089 -30.087  1.00  0.00    -0.353 N 
HETATM   14  C   UNL     1       0.112   6.442 -28.913  1.00  0.00     0.270 C 
HETATM   15  O   UNL     1       0.782   5.413 -28.915  1.00  0.00    -0.266 OA
HETATM   16  H   UNL     1      -0.689   7.974 -30.037  1.00  0.00     0.162 HD
BRANCH  14  17
HETATM   17  C   UNL     1      -0.405   7.055 -27.709  1.00  0.00     0.122 A 
HETATM   18  N   UNL     1       0.248   8.039 -27.000  1.00  0.00    -0.269 N 
HETATM   19  N   UNL     1      -0.415   8.446 -25.900  1.00  0.00    -0.177 NA
HETATM   20  C   UNL     1       1.525   8.647 -27.301  1.00  0.00     0.180 C 
HETATM   21  C   UNL     1      -1.552   7.750 -25.919  1.00  0.00     0.053 A 
HETATM   22  C   UNL     1      -2.586   7.958 -24.877  1.00  0.00     0.072 C 
HETATM   23  C   UNL     1      -1.589   6.861 -27.015  1.00  0.00     0.065 A 
ENDBRANCH  14  17
ENDBRANCH  12  13
ENDBRANCH   1  12
BRANCH   6  24
HETATM   24  C   UNL     1      -6.030   3.431 -31.420  1.00  0.00     0.273 C 
BRANCH  24  25
HETATM   25  C   UNL     1      -5.961   2.058 -32.030  1.00  0.00    -0.033 A 
HETATM   26  C   UNL     1      -6.051   1.897 -33.422  1.00  0.00     0.010 A 
HETATM   27  C   UNL     1      -6.039   0.622 -33.991  1.00  0.00     0.021 A 
HETATM   28  C   UNL     1      -5.936  -0.506 -33.178  1.00  0.00     0.017 A 
HETATM   29  C   UNL     1      -5.829  -0.358 -31.795  1.00  0.00     0.021 A 
HETATM   30  C   UNL     1      -5.841   0.917 -31.221  1.00  0.00     0.010 A 
BRANCH  28  31
HETATM   31  C   UNL     1      -5.947  -1.810 -33.761  1.00  0.00    -0.064 C 
HETATM   32  C   UNL     1      -5.968  -2.904 -34.258  1.00  0.00    -0.064 C 
BRANCH  32  33
HETATM   33  C   UNL     1      -6.003  -4.247 -34.862  1.00  0.00     0.114 C 
HETATM   34  C   UNL     1      -5.921  -4.153 -36.385  1.00  0.00     0.060 C 
HETATM   35  C   UNL     1      -4.872  -5.112 -34.314  1.00  0.00     0.060 C 
BRANCH  33  36
HETATM   36  O   UNL     1      -7.236  -4.872 -34.512  1.00  0.00    -0.378 OA
HETATM   37  H   UNL     1      -7.414  -5.555 -35.180  1.00  0.00     0.211 HD
ENDBRANCH  33  36
ENDBRANCH  32  33
ENDBRANCH  28  31
ENDBRANCH  24  25
ENDBRANCH   6  24
TORSDOF 8
ENDMDL
MODEL 5
REMARK VINA RESULT:      -8.3      2.485      3.491
REMARK  8 active torsions:
REMARK  status: ('A' for Active; 'I' for Inactive)
REMARK    1  A    between atoms: C_6  and  C_7 
REMARK       I    between atoms: C_7  and  N_8 
REMARK    2  A    between atoms: N_8  and  C_9 
REMARK    3  A    between atoms: C_9  and  C_10 
REMARK    4  A    between atoms: N_15  and  C_17 
REMARK    5  A    between atoms: C_17  and  C_18 
REMARK    6  A    between atoms: C_21  and  C_22 
REMARK    7  A    between atoms: C_23  and  C_24 
REMARK    8  A    between atoms: C_24  and  O_25 
ROOT
HETATM    1  C   UNL     1      -2.401   5.535 -33.065  1.00  0.00     0.140 C 
HETATM    2  O   UNL     1      -2.206   5.860 -31.668  1.00  0.00    -0.373 OA
HETATM    3  C   UNL     1      -1.505   7.121 -31.600  1.00  0.00     0.064 C 
HETATM    4  C   UNL     1      -0.327   6.934 -30.640  1.00  0.00     0.066 C 
HETATM    5  C   UNL     1      -0.809   6.640 -29.226  1.00  0.00     0.238 C 
HETATM    6  N   UNL     1      -1.735   7.728 -28.736  1.00  0.00    -0.067 N 
HETATM    7  H   UNL     1      -2.109   7.376 -27.846  1.00  0.00     0.280 HD
HETATM    8  C   UNL     1      -2.926   7.880 -29.650  1.00  0.00     0.238 C 
HETATM    9  C   UNL     1      -2.480   8.181 -31.075  1.00  0.00     0.066 C 
HETATM   10  C   UNL     1      -1.037   7.439 -33.027  1.00  0.00     0.041 C 
HETATM   11  C   UNL     1      -1.178   6.117 -33.746  1.00  0.00     0.036 C 
ENDROOT
BRANCH   1  12
HETATM   12  C   UNL     1      -2.540   4.024 -33.276  1.00  0.00     0.155 C 
BRANCH  12  13
HETATM   13  N   UNL     1      -3.847   3.493 -32.926  1.00  0.00    -0.353 N 
HETATM   14  C   UNL     1      -4.020   2.572 -31.915  1.00  0.00     0.270 C 
HETATM   15  O   UNL     1      -3.059   2.055 -31.353  1.00  0.00    -0.266 OA
HETATM   16  H   UNL     1      -4.658   3.957 -33.304  1.00  0.00     0.162 HD
BRANCH  14  17
HETATM   17  C   UNL     1      -5.396   2.266 -31.589  1.00  0.00     0.122 A 
HETATM   18  N   UNL     1      -6.122   2.911 -30.611  1.00  0.00    -0.269 N 
HETATM   19  N   UNL     1      -7.378   2.444 -30.470  1.00  0.00    -0.177 NA
HETATM   20  C   UNL     1      -5.685   3.988 -29.751  1.00  0.00     0.180 C 
HETATM   21  C   UNL     1      -7.492   1.508 -31.414  1.00  0.00     0.053 A 
HETATM   22  C   UNL     1      -8.771   0.783 -31.611  1.00  0.00     0.072 C 
HETATM   23  C   UNL     1      -6.285   1.349 -32.127  1.00  0.00     0.065 A 
ENDBRANCH  14  17
ENDBRANCH  12  13
ENDBRANCH   1  12
BRANCH   6  24
HETATM   24  C   UNL     1      -1.078   9.046 -28.378  1.00  0.00     0.273 C 
BRANCH  24  25
HETATM   25  C   UNL     1      -0.069   8.936 -27.268  1.00  0.00    -0.033 A 
HETATM   26  C   UNL     1      -0.453   9.166 -25.938  1.00  0.00     0.010 A 
HETATM   27  C   UNL     1       0.489   9.116 -24.908  1.00  0.00     0.021 A 
HETATM   28  C   UNL     1       1.824   8.833 -25.195  1.00  0.00     0.017 A 
HETATM   29  C   UNL     1       2.214   8.586 -26.512  1.00  0.00     0.021 A 
HETATM   30  C   UNL     1       1.275   8.636 -27.545  1.00  0.00     0.010 A 
BRANCH  28  31
HETATM   31  C   UNL     1       2.790   8.805 -24.143  1.00  0.00    -0.064 C 
HETATM   32  C   UNL     1       3.593   8.778 -23.250  1.00  0.00    -0.064 C 
BRANCH  32  33
HETATM   33  C   UNL     1       4.571   8.750 -22.149  1.00  0.00     0.114 C 
HETATM   34  C   UNL     1       5.837   8.008 -22.573  1.00  0.00     0.060 C 
HETATM   35  C   UNL     1       4.905  10.167 -21.692  1.00  0.00     0.060 C 
BRANCH  33  36
HETATM   36  O   UNL     1       3.991   8.063 -21.041  1.00  0.00    -0.378 OA
HETATM   37  H   UNL     1       4.721   7.730 -20.493  1.00  0.00     0.211 HD
ENDBRANCH  33  36
ENDBRANCH  32  33
ENDBRANCH  28  31
ENDBRANCH  24  25
ENDBRANCH   6  24
TORSDOF 8
ENDMDL
MODEL 6
REMARK VINA RESULT:      -8.1      1.587      2.047
REMARK  8 active torsions:
REMARK  status: ('A' for Active; 'I' for Inactive)
REMARK    1  A    between atoms: C_6  and  C_7 
REMARK       I    between atoms: C_7  and  N_8 
REMARK    2  A    between atoms: N_8  and  C_9 
REMARK    3  A    between atoms: C_9  and  C_10 
REMARK    4  A    between atoms: N_15  and  C_17 
REMARK    5  A    between atoms: C_17  and  C_18 
REMARK    6  A    between atoms: C_21  and  C_22 
REMARK    7  A    between atoms: C_23  and  C_24 
REMARK    8  A    between atoms: C_24  and  O_25 
ROOT
HETATM    1  C   UNL     1      -4.545   3.626 -32.529  1.00  0.00     0.140 C 
HETATM    2  O   UNL     1      -4.219   4.632 -31.541  1.00  0.00    -0.373 OA
HETATM    3  C   UNL     1      -3.045   5.339 -31.997  1.00  0.00     0.064 C 
HETATM    4  C   UNL     1      -2.054   5.373 -30.830  1.00  0.00     0.066 C 
HETATM    5  C   UNL     1      -2.605   6.178 -29.661  1.00  0.00     0.238 C 
HETATM    6  N   UNL     1      -2.972   7.577 -30.097  1.00  0.00    -0.067 N 
HETATM    7  H   UNL     1      -3.455   7.987 -29.288  1.00  0.00     0.280 HD
HETATM    8  C   UNL     1      -3.990   7.549 -31.211  1.00  0.00     0.238 C 
HETATM    9  C   UNL     1      -3.468   6.755 -32.402  1.00  0.00     0.066 C 
HETATM   10  C   UNL     1      -2.496   4.548 -33.193  1.00  0.00     0.041 C 
HETATM   11  C   UNL     1      -3.195   3.213 -33.082  1.00  0.00     0.036 C 
ENDROOT
BRANCH   1  12
HETATM   12  C   UNL     1      -5.319   2.458 -31.909  1.00  0.00     0.155 C 
BRANCH  12  13
HETATM   13  N   UNL     1      -5.063   1.175 -32.541  1.00  0.00    -0.353 N 
HETATM   14  C   UNL     1      -5.675   0.013 -32.120  1.00  0.00     0.270 C 
HETATM   15  O   UNL     1      -6.361  -0.014 -31.102  1.00  0.00    -0.266 OA
HETATM   16  H   UNL     1      -4.580   1.175 -33.425  1.00  0.00     0.162 HD
BRANCH  14  17
HETATM   17  C   UNL     1      -5.436  -1.146 -32.952  1.00  0.00     0.122 A 
HETATM   18  N   UNL     1      -4.306  -1.931 -32.880  1.00  0.00    -0.269 N 
HETATM   19  N   UNL     1      -4.291  -2.944 -33.767  1.00  0.00    -0.177 NA
HETATM   20  C   UNL     1      -3.176  -1.774 -31.991  1.00  0.00     0.180 C 
HETATM   21  C   UNL     1      -5.463  -2.852 -34.397  1.00  0.00     0.053 A 
HETATM   22  C   UNL     1      -5.846  -3.842 -35.433  1.00  0.00     0.072 C 
HETATM   23  C   UNL     1      -6.206  -1.743 -33.938  1.00  0.00     0.065 A 
ENDBRANCH  14  17
ENDBRANCH  12  13
ENDBRANCH   1  12
BRANCH   6  24
HETATM   24  C   UNL     1      -1.811   8.514 -30.364  1.00  0.00     0.273 C 
BRANCH  24  25
HETATM   25  C   UNL     1      -0.882   8.672 -29.192  1.00  0.00    -0.033 A 
HETATM   26  C   UNL     1       0.309   7.932 -29.129  1.00  0.00     0.010 A 
HETATM   27  C   UNL     1       1.150   8.036 -28.019  1.00  0.00     0.021 A 
HETATM   28  C   UNL     1       0.813   8.880 -26.961  1.00  0.00     0.017 A 
HETATM   29  C   UNL     1      -0.361   9.632 -27.021  1.00  0.00     0.021 A 
HETATM   30  C   UNL     1      -1.205   9.532 -28.130  1.00  0.00     0.010 A 
BRANCH  28  31
HETATM   31  C   UNL     1       1.664   8.966 -25.818  1.00  0.00    -0.064 C 
HETATM   32  C   UNL     1       2.382   9.026 -24.856  1.00  0.00    -0.064 C 
BRANCH  32  33
HETATM   33  C   UNL     1       3.256   9.092 -23.672  1.00  0.00     0.114 C 
HETATM   34  C   UNL     1       4.661   9.546 -24.067  1.00  0.00     0.060 C 
HETATM   35  C   UNL     1       2.664  10.024 -22.619  1.00  0.00     0.060 C 
BRANCH  33  36
HETATM   36  O   UNL     1       3.345   7.789 -23.098  1.00  0.00    -0.378 OA
HETATM   37  H   UNL     1       3.024   7.855 -22.184  1.00  0.00     0.211 HD
ENDBRANCH  33  36
ENDBRANCH  32  33
ENDBRANCH  28  31
ENDBRANCH  24  25
ENDBRANCH   6  24
TORSDOF 8
ENDMDL
MODEL 7
REMARK VINA RESULT:      -7.8      3.939     11.856
REMARK  8 active torsions:
REMARK  status: ('A' for Active; 'I' for Inactive)
REMARK    1  A    between atoms: C_6  and  C_7 
REMARK       I    between atoms: C_7  and  N_8 
REMARK    2  A    between atoms: N_8  and  C_9 
REMARK    3  A    between atoms: C_9  and  C_10 
REMARK    4  A    between atoms: N_15  and  C_17 
REMARK    5  A    between atoms: C_17  and  C_18 
REMARK    6  A    between atoms: C_21  and  C_22 
REMARK    7  A    between atoms: C_23  and  C_24 
REMARK    8  A    between atoms: C_24  and  O_25 
ROOT
HETATM    1  C   UNL     1      -1.608   6.533 -32.845  1.00  0.00     0.140 C 
HETATM    2  O   UNL     1      -2.773   5.783 -32.428  1.00  0.00    -0.373 OA
HETATM    3  C   UNL     1      -2.946   4.683 -33.348  1.00  0.00     0.064 C 
HETATM    4  C   UNL     1      -4.409   4.693 -33.798  1.00  0.00     0.066 C 
HETATM    5  C   UNL     1      -5.348   4.421 -32.631  1.00  0.00     0.238 C 
HETATM    6  N   UNL     1      -5.003   3.114 -31.956  1.00  0.00    -0.067 N 
HETATM    7  H   UNL     1      -5.590   3.089 -31.113  1.00  0.00     0.280 HD
HETATM    8  C   UNL     1      -3.576   3.119 -31.462  1.00  0.00     0.238 C 
HETATM    9  C   UNL     1      -2.608   3.384 -32.608  1.00  0.00     0.066 C 
HETATM   10  C   UNL     1      -1.984   4.935 -34.517  1.00  0.00     0.041 C 
HETATM   11  C   UNL     1      -1.607   6.390 -34.355  1.00  0.00     0.036 C 
ENDROOT
BRANCH   1  12
HETATM   12  C   UNL     1      -1.682   7.991 -32.383  1.00  0.00     0.155 C 
BRANCH  12  13
HETATM   13  N   UNL     1      -1.674   8.157 -30.939  1.00  0.00    -0.353 N 
HETATM   14  C   UNL     1      -2.746   8.690 -30.254  1.00  0.00     0.270 C 
HETATM   15  O   UNL     1      -3.704   9.176 -30.848  1.00  0.00    -0.266 OA
HETATM   16  H   UNL     1      -0.948   7.693 -30.417  1.00  0.00     0.162 HD
BRANCH  14  17
HETATM   17  C   UNL     1      -2.642   8.641 -28.812  1.00  0.00     0.122 A 
HETATM   18  N   UNL     1      -2.582   9.753 -28.001  1.00  0.00    -0.269 N 
HETATM   19  N   UNL     1      -2.466   9.464 -26.691  1.00  0.00    -0.177 NA
HETATM   20  C   UNL     1      -2.618  11.142 -28.402  1.00  0.00     0.180 C 
HETATM   21  C   UNL     1      -2.506   8.132 -26.639  1.00  0.00     0.053 A 
HETATM   22  C   UNL     1      -2.454   7.423 -25.337  1.00  0.00     0.072 C 
HETATM   23  C   UNL     1      -2.600   7.571 -27.931  1.00  0.00     0.065 A 
ENDBRANCH  14  17
ENDBRANCH  12  13
ENDBRANCH   1  12
BRANCH   6  24
HETATM   24  C   UNL     1      -5.372   1.857 -32.717  1.00  0.00     0.273 C 
BRANCH  24  25
HETATM   25  C   UNL     1      -6.854   1.676 -32.899  1.00  0.00    -0.033 A 
HETATM   26  C   UNL     1      -7.408   1.630 -34.188  1.00  0.00     0.010 A 
HETATM   27  C   UNL     1      -8.789   1.515 -34.364  1.00  0.00     0.021 A 
HETATM   28  C   UNL     1      -9.631   1.442 -33.255  1.00  0.00     0.017 A 
HETATM   29  C   UNL     1      -9.090   1.471 -31.969  1.00  0.00     0.021 A 
HETATM   30  C   UNL     1      -7.709   1.586 -31.789  1.00  0.00     0.010 A 
BRANCH  28  31
HETATM   31  C   UNL     1     -11.044   1.348 -33.438  1.00  0.00    -0.064 C 
HETATM   32  C   UNL     1     -12.232   1.264 -33.603  1.00  0.00    -0.064 C 
BRANCH  32  33
HETATM   33  C   UNL     1     -13.686   1.167 -33.815  1.00  0.00     0.114 C 
HETATM   34  C   UNL     1     -14.152  -0.283 -33.689  1.00  0.00     0.060 C 
HETATM   35  C   UNL     1     -14.433   2.060 -32.828  1.00  0.00     0.060 C 
BRANCH  33  36
HETATM   36  O   UNL     1     -13.987   1.628 -35.130  1.00  0.00    -0.378 OA
HETATM   37  H   UNL     1     -13.457   1.100 -35.750  1.00  0.00     0.211 HD
ENDBRANCH  33  36
ENDBRANCH  32  33
ENDBRANCH  28  31
ENDBRANCH  24  25
ENDBRANCH   6  24
TORSDOF 8
ENDMDL
MODEL 8
REMARK VINA RESULT:      -7.8      5.928     12.641
REMARK  8 active torsions:
REMARK  status: ('A' for Active; 'I' for Inactive)
REMARK    1  A    between atoms: C_6  and  C_7 
REMARK       I    between atoms: C_7  and  N_8 
REMARK    2  A    between atoms: N_8  and  C_9 
REMARK    3  A    between atoms: C_9  and  C_10 
REMARK    4  A    between atoms: N_15  and  C_17 
REMARK    5  A    between atoms: C_17  and  C_18 
REMARK    6  A    between atoms: C_21  and  C_22 
REMARK    7  A    between atoms: C_23  and  C_24 
REMARK    8  A    between atoms: C_24  and  O_25 
ROOT
HETATM    1  C   UNL     1      -5.542  -0.721 -32.688  1.00  0.00     0.140 C 
HETATM    2  O   UNL     1      -6.574   0.279 -32.858  1.00  0.00    -0.373 OA
HETATM    3  C   UNL     1      -7.646  -0.316 -33.622  1.00  0.00     0.064 C 
HETATM    4  C   UNL     1      -7.984   0.652 -34.760  1.00  0.00     0.066 C 
HETATM    5  C   UNL     1      -8.525   1.969 -34.222  1.00  0.00     0.238 C 
HETATM    6  N   UNL     1      -9.730   1.735 -33.340  1.00  0.00    -0.067 N 
HETATM    7  H   UNL     1      -9.933   2.651 -32.921  1.00  0.00     0.280 HD
HETATM    8  C   UNL     1      -9.389   0.824 -32.186  1.00  0.00     0.238 C 
HETATM    9  C   UNL     1      -8.847  -0.508 -32.689  1.00  0.00     0.066 C 
HETATM   10  C   UNL     1      -7.118  -1.657 -34.148  1.00  0.00     0.041 C 
HETATM   11  C   UNL     1      -5.622  -1.544 -33.959  1.00  0.00     0.036 C 
ENDROOT
BRANCH   1  12
HETATM   12  C   UNL     1      -4.167  -0.081 -32.476  1.00  0.00     0.155 C 
BRANCH  12  13
HETATM   13  N   UNL     1      -4.134   1.350 -32.729  1.00  0.00    -0.353 N 
HETATM   14  C   UNL     1      -3.371   2.213 -31.971  1.00  0.00     0.270 C 
HETATM   15  O   UNL     1      -2.790   1.830 -30.960  1.00  0.00    -0.266 OA
HETATM   16  H   UNL     1      -4.525   1.683 -33.596  1.00  0.00     0.162 HD
BRANCH  14  17
HETATM   17  C   UNL     1      -3.325   3.577 -32.450  1.00  0.00     0.122 A 
HETATM   18  N   UNL     1      -4.244   4.547 -32.115  1.00  0.00    -0.269 N 
HETATM   19  N   UNL     1      -4.012   5.740 -32.696  1.00  0.00    -0.177 NA
HETATM   20  C   UNL     1      -5.392   4.414 -31.245  1.00  0.00     0.180 C 
HETATM   21  C   UNL     1      -2.884   5.560 -33.385  1.00  0.00     0.053 A 
HETATM   22  C   UNL     1      -2.269   6.681 -34.136  1.00  0.00     0.072 C 
HETATM   23  C   UNL     1      -2.423   4.230 -33.277  1.00  0.00     0.065 A 
ENDBRANCH  14  17
ENDBRANCH  12  13
ENDBRANCH   1  12
BRANCH   6  24
HETATM   24  C   UNL     1     -11.009   1.349 -34.054  1.00  0.00     0.273 C 
BRANCH  24  25
HETATM   25  C   UNL     1     -12.222   2.091 -33.561  1.00  0.00    -0.033 A 
HETATM   26  C   UNL     1     -12.122   3.441 -33.189  1.00  0.00     0.010 A 
HETATM   27  C   UNL     1     -13.231   4.121 -32.681  1.00  0.00     0.021 A 
HETATM   28  C   UNL     1     -14.452   3.462 -32.542  1.00  0.00     0.017 A 
HETATM   29  C   UNL     1     -14.567   2.125 -32.925  1.00  0.00     0.021 A 
HETATM   30  C   UNL     1     -13.460   1.441 -33.433  1.00  0.00     0.010 A 
BRANCH  28  31
HETATM   31  C   UNL     1     -15.579   4.154 -32.002  1.00  0.00    -0.064 C 
HETATM   32  C   UNL     1     -16.534   4.732 -31.556  1.00  0.00    -0.064 C 
BRANCH  32  33
HETATM   33  C   UNL     1     -17.706   5.444 -31.019  1.00  0.00     0.114 C 
HETATM   34  C   UNL     1     -17.303   6.333 -29.845  1.00  0.00     0.060 C 
HETATM   35  C   UNL     1     -18.380   6.267 -32.113  1.00  0.00     0.060 C 
BRANCH  33  36
HETATM   36  O   UNL     1     -18.651   4.481 -30.557  1.00  0.00    -0.378 OA
HETATM   37  H   UNL     1     -19.032   4.051 -31.340  1.00  0.00     0.211 HD
ENDBRANCH  33  36
ENDBRANCH  32  33
ENDBRANCH  28  31
ENDBRANCH  24  25
ENDBRANCH   6  24
TORSDOF 8
ENDMDL
MODEL 9
REMARK VINA RESULT:      -7.8      5.713     12.348
REMARK  8 active torsions:
REMARK  status: ('A' for Active; 'I' for Inactive)
REMARK    1  A    between atoms: C_6  and  C_7 
REMARK       I    between atoms: C_7  and  N_8 
REMARK    2  A    between atoms: N_8  and  C_9 
REMARK    3  A    between atoms: C_9  and  C_10 
REMARK    4  A    between atoms: N_15  and  C_17 
REMARK    5  A    between atoms: C_17  and  C_18 
REMARK    6  A    between atoms: C_21  and  C_22 
REMARK    7  A    between atoms: C_23  and  C_24 
REMARK    8  A    between atoms: C_24  and  O_25 
ROOT
HETATM    1  C   UNL     1      -5.350  -0.522 -32.467  1.00  0.00     0.140 C 
HETATM    2  O   UNL     1      -6.510   0.339 -32.392  1.00  0.00    -0.373 OA
HETATM    3  C   UNL     1      -7.478  -0.137 -33.354  1.00  0.00     0.064 C 
HETATM    4  C   UNL     1      -7.935   1.073 -34.174  1.00  0.00     0.066 C 
HETATM    5  C   UNL     1      -8.665   2.087 -33.303  1.00  0.00     0.238 C 
HETATM    6  N   UNL     1      -9.835   1.444 -32.596  1.00  0.00    -0.067 N 
HETATM    7  H   UNL     1     -10.171   2.159 -31.939  1.00  0.00     0.280 HD
HETATM    8  C   UNL     1      -9.383   0.284 -31.743  1.00  0.00     0.238 C 
HETATM    9  C   UNL     1      -8.651  -0.754 -32.585  1.00  0.00     0.066 C 
HETATM   10  C   UNL     1      -6.758  -1.178 -34.221  1.00  0.00     0.041 C 
HETATM   11  C   UNL     1      -5.296  -0.931 -33.927  1.00  0.00     0.036 C 
ENDROOT
BRANCH   1  12
HETATM   12  C   UNL     1      -4.082   0.202 -32.003  1.00  0.00     0.155 C 
BRANCH  12  13
HETATM   13  N   UNL     1      -3.838   1.465 -32.679  1.00  0.00    -0.353 N 
HETATM   14  C   UNL     1      -3.953   2.679 -32.034  1.00  0.00     0.270 C 
HETATM   15  O   UNL     1      -4.401   2.754 -30.894  1.00  0.00    -0.266 OA
HETATM   16  H   UNL     1      -3.389   1.436 -33.580  1.00  0.00     0.162 HD
BRANCH  14  17
HETATM   17  C   UNL     1      -3.525   3.827 -32.801  1.00  0.00     0.122 A 
HETATM   18  N   UNL     1      -4.326   4.507 -33.693  1.00  0.00    -0.269 N 
HETATM   19  N   UNL     1      -3.707   5.532 -34.308  1.00  0.00    -0.177 NA
HETATM   20  C   UNL     1      -5.707   4.232 -34.027  1.00  0.00     0.180 C 
HETATM   21  C   UNL     1      -2.488   5.558 -33.768  1.00  0.00     0.053 A 
HETATM   22  C   UNL     1      -1.507   6.598 -34.161  1.00  0.00     0.072 C 
HETATM   23  C   UNL     1      -2.319   4.511 -32.836  1.00  0.00     0.065 A 
ENDBRANCH  14  17
ENDBRANCH  12  13
ENDBRANCH   1  12
BRANCH   6  24
HETATM   24  C   UNL     1     -11.038   1.124 -33.460  1.00  0.00     0.273 C 
BRANCH  24  25
HETATM   25  C   UNL     1     -11.653   2.333 -34.109  1.00  0.00    -0.033 A 
HETATM   26  C   UNL     1     -11.910   2.342 -35.489  1.00  0.00     0.010 A 
HETATM   27  C   UNL     1     -12.433   3.481 -36.106  1.00  0.00     0.021 A 
HETATM   28  C   UNL     1     -12.707   4.622 -35.352  1.00  0.00     0.017 A 
HETATM   29  C   UNL     1     -12.471   4.618 -33.977  1.00  0.00     0.021 A 
HETATM   30  C   UNL     1     -11.947   3.481 -33.355  1.00  0.00     0.010 A 
BRANCH  28  31
HETATM   31  C   UNL     1     -13.220   5.792 -35.990  1.00  0.00    -0.064 C 
HETATM   32  C   UNL     1     -13.660   6.770 -36.533  1.00  0.00    -0.064 C 
BRANCH  32  33
HETATM   33  C   UNL     1     -14.197   7.963 -37.209  1.00  0.00     0.114 C 
HETATM   34  C   UNL     1     -15.664   8.176 -36.838  1.00  0.00     0.060 C 
HETATM   35  C   UNL     1     -13.368   9.196 -36.859  1.00  0.00     0.060 C 
BRANCH  33  36
HETATM   36  O   UNL     1     -14.109   7.767 -38.619  1.00  0.00    -0.378 OA
HETATM   37  H   UNL     1     -13.171   7.835 -38.862  1.00  0.00     0.211 HD
ENDBRANCH  33  36
ENDBRANCH  32  33
ENDBRANCH  28  31
ENDBRANCH  24  25
ENDBRANCH   6  24
TORSDOF 8
ENDMDL
MODEL 10
REMARK VINA RESULT:      -7.6      2.602      5.013
REMARK  8 active torsions:
REMARK  status: ('A' for Active; 'I' for Inactive)
REMARK    1  A    between atoms: C_6  and  C_7 
REMARK       I    between atoms: C_7  and  N_8 
REMARK    2  A    between atoms: N_8  and  C_9 
REMARK    3  A    between atoms: C_9  and  C_10 
REMARK    4  A    between atoms: N_15  and  C_17 
REMARK    5  A    between atoms: C_17  and  C_18 
REMARK    6  A    between atoms: C_21  and  C_22 
REMARK    7  A    between atoms: C_23  and  C_24 
REMARK    8  A    between atoms: C_24  and  O_25 
ROOT
HETATM    1  C   UNL     1      -1.672   6.190 -30.569  1.00  0.00     0.140 C 
HETATM    2  O   UNL     1      -0.987   6.357 -29.306  1.00  0.00    -0.373 OA
HETATM    3  C   UNL     1      -0.827   7.774 -29.073  1.00  0.00     0.064 C 
HETATM    4  C   UNL     1       0.641   8.010 -28.705  1.00  0.00     0.066 C 
HETATM    5  C   UNL     1       1.000   7.321 -27.395  1.00  0.00     0.238 C 
HETATM    6  N   UNL     1       0.086   7.775 -26.281  1.00  0.00    -0.067 N 
HETATM    7  H   UNL     1       0.312   7.163 -25.488  1.00  0.00     0.280 HD
HETATM    8  C   UNL     1      -1.359   7.496 -26.616  1.00  0.00     0.238 C 
HETATM    9  C   UNL     1      -1.754   8.176 -27.920  1.00  0.00     0.066 C 
HETATM   10  C   UNL     1      -1.210   8.479 -30.381  1.00  0.00     0.041 C 
HETATM   11  C   UNL     1      -1.191   7.364 -31.400  1.00  0.00     0.036 C 
ENDROOT
BRANCH   1  12
HETATM   12  C   UNL     1      -1.351   4.835 -31.208  1.00  0.00     0.155 C 
BRANCH  12  13
HETATM   13  N   UNL     1      -2.479   3.919 -31.255  1.00  0.00    -0.353 N 
HETATM   14  C   UNL     1      -3.066   3.536 -32.443  1.00  0.00     0.270 C 
HETATM   15  O   UNL     1      -2.750   4.059 -33.508  1.00  0.00    -0.266 OA
HETATM   16  H   UNL     1      -2.704   3.409 -30.416  1.00  0.00     0.162 HD
BRANCH  14  17
HETATM   17  C   UNL     1      -4.070   2.502 -32.328  1.00  0.00     0.122 A 
HETATM   18  N   UNL     1      -5.411   2.743 -32.124  1.00  0.00    -0.269 N 
HETATM   19  N   UNL     1      -6.156   1.625 -32.029  1.00  0.00    -0.177 NA
HETATM   20  C   UNL     1      -6.069   4.024 -31.996  1.00  0.00     0.180 C 
HETATM   21  C   UNL     1      -5.291   0.630 -32.229  1.00  0.00     0.053 A 
HETATM   22  C   UNL     1      -5.748  -0.780 -32.248  1.00  0.00     0.072 C 
HETATM   23  C   UNL     1      -3.979   1.120 -32.406  1.00  0.00     0.065 A 
ENDBRANCH  14  17
ENDBRANCH  12  13
ENDBRANCH   1  12
BRANCH   6  24
HETATM   24  C   UNL     1       0.323   9.179 -25.760  1.00  0.00     0.273 C 
BRANCH  24  25
HETATM   25  C   UNL     1       1.425   9.265 -24.740  1.00  0.00    -0.033 A 
HETATM   26  C   UNL     1       1.165   9.776 -23.459  1.00  0.00     0.010 A 
HETATM   27  C   UNL     1       2.194   9.907 -22.524  1.00  0.00     0.021 A 
HETATM   28  C   UNL     1       3.494   9.528 -22.857  1.00  0.00     0.017 A 
HETATM   29  C   UNL     1       3.761   9.003 -24.122  1.00  0.00     0.021 A 
HETATM   30  C   UNL     1       2.734   8.870 -25.061  1.00  0.00     0.010 A 
BRANCH  28  31
HETATM   31  C   UNL     1       4.549   9.684 -21.907  1.00  0.00    -0.064 C 
HETATM   32  C   UNL     1       5.428   9.821 -21.100  1.00  0.00    -0.064 C 
BRANCH  32  33
HETATM   33  C   UNL     1       6.503   9.998 -20.108  1.00  0.00     0.114 C 
HETATM   34  C   UNL     1       6.853   8.664 -19.451  1.00  0.00     0.060 C 
HETATM   35  C   UNL     1       7.736  10.619 -20.759  1.00  0.00     0.060 C 
BRANCH  33  36
HETATM   36  O   UNL     1       6.047  10.896 -19.098  1.00  0.00    -0.378 OA
HETATM   37  H   UNL     1       5.373  10.429 -18.579  1.00  0.00     0.211 HD
ENDBRANCH  33  36
ENDBRANCH  32  33
ENDBRANCH  28  31
ENDBRANCH  24  25
ENDBRANCH   6  24
TORSDOF 8
ENDMDL
