MODEL 1
REMARK VINA RESULT:      -8.1      0.000      0.000
REMARK  5 active torsions:
REMARK  status: ('A' for Active; 'I' for Inactive)
REMARK    1  A    between atoms: C_6  and  C_7 
REMARK    2  A    between atoms: C_7  and  C_8 
REMARK    3  A    between atoms: C_8  and  C_9 
REMARK    4  A    between atoms: C_9  and  N_10 
REMARK    5  A    between atoms: C_9  and  C_14 
ROOT
HETATM    1  C   UNL     1      -5.922   1.630 -30.592  1.00  0.00     0.253 C 
ENDROOT
BRANCH   1   2
HETATM    2  C   UNL     1      -4.820   0.847 -31.337  1.00  0.00     0.048 C 
BRANCH   2   3
HETATM    3  C   UNL     1      -4.879   0.850 -32.871  1.00  0.00     0.081 C 
BRANCH   3   4
HETATM    4  C   UNL     1      -5.051  -0.521 -33.420  1.00  0.00     0.105 A 
HETATM    5  N   UNL     1      -6.163  -0.976 -33.964  1.00  0.00    -0.233 NA
HETATM    6  C   UNL     1      -5.909  -2.304 -34.242  1.00  0.00     0.085 A 
HETATM    7  C   UNL     1      -4.612  -2.645 -33.873  1.00  0.00     0.062 A 
HETATM    8  C   UNL     1      -6.748  -3.284 -34.790  1.00  0.00     0.034 A 
HETATM    9  C   UNL     1      -4.088  -3.930 -34.017  1.00  0.00     0.032 A 
HETATM   10  N   UNL     1      -4.073  -1.483 -33.386  1.00  0.00    -0.343 N 
HETATM   11  C   UNL     1      -4.942  -4.898 -34.558  1.00  0.00     0.002 A 
HETATM   12  C   UNL     1      -6.248  -4.584 -34.939  1.00  0.00     0.002 A 
HETATM   13  H   UNL     1      -3.129  -1.375 -33.039  1.00  0.00     0.167 HD
ENDBRANCH   3   4
ENDBRANCH   2   3
ENDBRANCH   1   2
BRANCH   1  14
HETATM   14  N   UNL     1      -6.118   1.094 -29.223  1.00  0.00    -0.068 N 
HETATM   15  H   UNL     1      -5.238   1.139 -28.699  1.00  0.00     0.275 HD
HETATM   16  H   UNL     1      -6.795   1.658 -28.698  1.00  0.00     0.275 HD
HETATM   17  H   UNL     1      -6.409   0.101 -29.280  1.00  0.00     0.275 HD
ENDBRANCH   1  14
BRANCH   1  18
HETATM   18  C   UNL     1      -7.219   1.545 -31.329  1.00  0.00     0.136 A 
HETATM   19  N   UNL     1      -7.786   2.546 -31.973  1.00  0.00    -0.231 NA
HETATM   20  C   UNL     1      -8.942   2.024 -32.510  1.00  0.00     0.085 A 
HETATM   21  C   UNL     1      -9.053   0.670 -32.216  1.00  0.00     0.062 A 
HETATM   22  C   UNL     1      -9.944   2.647 -33.266  1.00  0.00     0.034 A 
HETATM   23  N   UNL     1      -7.944   0.387 -31.461  1.00  0.00    -0.341 N 
HETATM   24  C   UNL     1     -10.115  -0.126 -32.651  1.00  0.00     0.032 A 
HETATM   25  H   UNL     1      -7.719  -0.525 -31.083  1.00  0.00     0.167 HD
HETATM   26  C   UNL     1     -11.104   0.511 -33.407  1.00  0.00     0.002 A 
HETATM   27  C   UNL     1     -11.025   1.873 -33.708  1.00  0.00     0.002 A 
ENDBRANCH   1  18
TORSDOF 5
ENDMDL
MODEL 2
REMARK VINA RESULT:      -7.9      1.953      6.878
REMARK  5 active torsions:
REMARK  status: ('A' for Active; 'I' for Inactive)
REMARK    1  A    between atoms: C_6  and  C_7 
REMARK    2  A    between atoms: C_7  and  C_8 
REMARK    3  A    between atoms: C_8  and  C_9 
REMARK    4  A    between atoms: C_9  and  N_10 
REMARK    5  A    between atoms: C_9  and  C_14 
ROOT
HETATM    1  C   UNL     1      -6.471   0.656 -34.366  1.00  0.00     0.253 C 
ENDROOT
BRANCH   1   2
HETATM    2  C   UNL     1      -7.118   1.100 -33.036  1.00  0.00     0.048 C 
BRANCH   2   3
HETATM    3  C   UNL     1      -8.207   0.188 -32.454  1.00  0.00     0.081 C 
BRANCH   3   4
HETATM    4  C   UNL     1      -9.537   0.459 -33.061  1.00  0.00     0.105 A 
HETATM    5  N   UNL     1      -9.808   1.487 -33.844  1.00  0.00    -0.233 NA
HETATM    6  C   UNL     1     -11.163   1.400 -34.093  1.00  0.00     0.085 A 
HETATM    7  C   UNL     1     -11.710   0.289 -33.462  1.00  0.00     0.062 A 
HETATM    8  C   UNL     1     -11.997   2.250 -34.834  1.00  0.00     0.034 A 
HETATM    9  C   UNL     1     -13.066  -0.036 -33.522  1.00  0.00     0.032 A 
HETATM   10  N   UNL     1     -10.648  -0.316 -32.841  1.00  0.00    -0.343 N 
HETATM   11  C   UNL     1     -13.885   0.827 -34.258  1.00  0.00     0.002 A 
HETATM   12  C   UNL     1     -13.363   1.950 -34.905  1.00  0.00     0.002 A 
HETATM   13  H   UNL     1     -10.694  -1.167 -32.296  1.00  0.00     0.167 HD
ENDBRANCH   3   4
ENDBRANCH   2   3
ENDBRANCH   1   2
BRANCH   1  14
HETATM   14  N   UNL     1      -7.455   0.703 -35.475  1.00  0.00    -0.068 N 
HETATM   15  H   UNL     1      -7.932   1.610 -35.483  1.00  0.00     0.275 HD
HETATM   16  H   UNL     1      -6.992   0.611 -36.385  1.00  0.00     0.275 HD
HETATM   17  H   UNL     1      -8.169  -0.035 -35.333  1.00  0.00     0.275 HD
ENDBRANCH   1  14
BRANCH   1  18
HETATM   18  C   UNL     1      -5.940  -0.736 -34.255  1.00  0.00     0.136 A 
HETATM   19  N   UNL     1      -6.446  -1.786 -34.871  1.00  0.00    -0.231 NA
HETATM   20  C   UNL     1      -5.647  -2.845 -34.500  1.00  0.00     0.085 A 
HETATM   21  C   UNL     1      -4.613  -2.415 -33.675  1.00  0.00     0.062 A 
HETATM   22  C   UNL     1      -5.739  -4.203 -34.835  1.00  0.00     0.034 A 
HETATM   23  N   UNL     1      -4.822  -1.068 -33.531  1.00  0.00    -0.341 N 
HETATM   24  C   UNL     1      -3.634  -3.269 -33.164  1.00  0.00     0.032 A 
HETATM   25  H   UNL     1      -4.237  -0.448 -32.986  1.00  0.00     0.167 HD
HETATM   26  C   UNL     1      -3.739  -4.620 -33.511  1.00  0.00     0.002 A 
HETATM   27  C   UNL     1      -4.774  -5.082 -34.328  1.00  0.00     0.002 A 
ENDBRANCH   1  18
TORSDOF 5
ENDMDL
MODEL 3
REMARK VINA RESULT:      -7.9      3.754      5.660
REMARK  5 active torsions:
REMARK  status: ('A' for Active; 'I' for Inactive)
REMARK    1  A    between atoms: C_6  and  C_7 
REMARK    2  A    between atoms: C_7  and  C_8 
REMARK    3  A    between atoms: C_8  and  C_9 
REMARK    4  A    between atoms: C_9  and  N_10 
REMARK    5  A    between atoms: C_9  and  C_14 
ROOT
HETATM    1  C   UNL     1      -3.634   2.163 -31.082  1.00  0.00     0.253 C 
ENDROOT
BRANCH   1   2
HETATM    2  C   UNL     1      -3.701   1.000 -32.094  1.00  0.00     0.048 C 
BRANCH   2   3
HETATM    3  C   UNL     1      -5.020   0.816 -32.858  1.00  0.00     0.081 C 
BRANCH   3   4
HETATM    4  C   UNL     1      -5.148  -0.555 -33.417  1.00  0.00     0.105 A 
HETATM    5  N   UNL     1      -6.246  -1.041 -33.966  1.00  0.00    -0.233 NA
HETATM    6  C   UNL     1      -5.950  -2.358 -34.254  1.00  0.00     0.085 A 
HETATM    7  C   UNL     1      -4.644  -2.662 -33.884  1.00  0.00     0.062 A 
HETATM    8  C   UNL     1      -6.757  -3.360 -34.811  1.00  0.00     0.034 A 
HETATM    9  C   UNL     1      -4.080  -3.929 -34.037  1.00  0.00     0.032 A 
HETATM   10  N   UNL     1      -4.141  -1.487 -33.388  1.00  0.00    -0.343 N 
HETATM   11  C   UNL     1      -4.902  -4.919 -34.587  1.00  0.00     0.002 A 
HETATM   12  C   UNL     1      -6.216  -4.643 -34.969  1.00  0.00     0.002 A 
HETATM   13  H   UNL     1      -3.202  -1.352 -33.038  1.00  0.00     0.167 HD
ENDBRANCH   3   4
ENDBRANCH   2   3
ENDBRANCH   1   2
BRANCH   1  14
HETATM   14  N   UNL     1      -4.995   2.560 -30.642  1.00  0.00    -0.068 N 
HETATM   15  H   UNL     1      -5.701   2.077 -31.205  1.00  0.00     0.275 HD
HETATM   16  H   UNL     1      -5.164   2.285 -29.669  1.00  0.00     0.275 HD
HETATM   17  H   UNL     1      -5.117   3.580 -30.779  1.00  0.00     0.275 HD
ENDBRANCH   1  14
BRANCH   1  18
HETATM   18  C   UNL     1      -2.961   3.352 -31.687  1.00  0.00     0.136 A 
HETATM   19  N   UNL     1      -2.773   3.533 -32.979  1.00  0.00    -0.231 NA
HETATM   20  C   UNL     1      -2.137   4.750 -33.086  1.00  0.00     0.085 A 
HETATM   21  C   UNL     1      -1.976   5.333 -31.833  1.00  0.00     0.062 A 
HETATM   22  C   UNL     1      -1.672   5.427 -34.222  1.00  0.00     0.034 A 
HETATM   23  N   UNL     1      -2.507   4.422 -30.957  1.00  0.00    -0.341 N 
HETATM   24  C   UNL     1      -1.383   6.581 -31.638  1.00  0.00     0.032 A 
HETATM   25  H   UNL     1      -2.550   4.543 -29.953  1.00  0.00     0.167 HD
HETATM   26  C   UNL     1      -0.928   7.243 -32.783  1.00  0.00     0.002 A 
HETATM   27  C   UNL     1      -1.065   6.678 -34.053  1.00  0.00     0.002 A 
ENDBRANCH   1  18
TORSDOF 5
ENDMDL
MODEL 4
REMARK VINA RESULT:      -7.9      3.774      7.371
REMARK  5 active torsions:
REMARK  status: ('A' for Active; 'I' for Inactive)
REMARK    1  A    between atoms: C_6  and  C_7 
REMARK    2  A    between atoms: C_7  and  C_8 
REMARK    3  A    between atoms: C_8  and  C_9 
REMARK    4  A    between atoms: C_9  and  N_10 
REMARK    5  A    between atoms: C_9  and  C_14 
ROOT
HETATM    1  C   UNL     1      -5.047   0.829 -32.993  1.00  0.00     0.253 C 
ENDROOT
BRANCH   1   2
HETATM    2  C   UNL     1      -3.676   1.037 -32.315  1.00  0.00     0.048 C 
BRANCH   2   3
HETATM    3  C   UNL     1      -3.576   2.164 -31.278  1.00  0.00     0.081 C 
BRANCH   3   4
HETATM    4  C   UNL     1      -2.942   3.383 -31.846  1.00  0.00     0.105 A 
HETATM    5  N   UNL     1      -1.860   3.961 -31.359  1.00  0.00    -0.233 NA
HETATM    6  C   UNL     1      -1.685   5.096 -32.124  1.00  0.00     0.085 A 
HETATM    7  C   UNL     1      -2.672   5.190 -33.100  1.00  0.00     0.062 A 
HETATM    8  C   UNL     1      -0.716   6.105 -32.028  1.00  0.00     0.034 A 
HETATM    9  C   UNL     1      -2.757   6.250 -34.004  1.00  0.00     0.032 A 
HETATM   10  N   UNL     1      -3.439   4.068 -32.926  1.00  0.00    -0.343 N 
HETATM   11  C   UNL     1      -1.787   7.252 -33.888  1.00  0.00     0.002 A 
HETATM   12  C   UNL     1      -0.783   7.183 -32.920  1.00  0.00     0.002 A 
HETATM   13  H   UNL     1      -4.245   3.816 -33.484  1.00  0.00     0.167 HD
ENDBRANCH   3   4
ENDBRANCH   2   3
ENDBRANCH   1   2
BRANCH   1  14
HETATM   14  N   UNL     1      -6.153   1.157 -32.060  1.00  0.00    -0.068 N 
HETATM   15  H   UNL     1      -7.038   1.221 -32.574  1.00  0.00     0.275 HD
HETATM   16  H   UNL     1      -6.279   0.418 -31.360  1.00  0.00     0.275 HD
HETATM   17  H   UNL     1      -5.970   2.076 -31.618  1.00  0.00     0.275 HD
ENDBRANCH   1  14
BRANCH   1  18
HETATM   18  C   UNL     1      -5.204  -0.588 -33.442  1.00  0.00     0.136 A 
HETATM   19  N   UNL     1      -6.291  -1.086 -33.997  1.00  0.00    -0.231 NA
HETATM   20  C   UNL     1      -5.993  -2.404 -34.260  1.00  0.00     0.085 A 
HETATM   21  C   UNL     1      -4.684  -2.695 -33.893  1.00  0.00     0.062 A 
HETATM   22  C   UNL     1      -6.789  -3.413 -34.819  1.00  0.00     0.034 A 
HETATM   23  N   UNL     1      -4.201  -1.522 -33.372  1.00  0.00    -0.341 N 
HETATM   24  C   UNL     1      -4.099  -3.952 -34.065  1.00  0.00     0.032 A 
HETATM   25  H   UNL     1      -3.265  -1.393 -33.010  1.00  0.00     0.167 HD
HETATM   26  C   UNL     1      -4.908  -4.945 -34.627  1.00  0.00     0.002 A 
HETATM   27  C   UNL     1      -6.230  -4.685 -34.995  1.00  0.00     0.002 A 
ENDBRANCH   1  18
TORSDOF 5
ENDMDL
MODEL 5
REMARK VINA RESULT:      -7.9      1.641      2.570
REMARK  5 active torsions:
REMARK  status: ('A' for Active; 'I' for Inactive)
REMARK    1  A    between atoms: C_6  and  C_7 
REMARK    2  A    between atoms: C_7  and  C_8 
REMARK    3  A    between atoms: C_8  and  C_9 
REMARK    4  A    between atoms: C_9  and  N_10 
REMARK    5  A    between atoms: C_9  and  C_14 
ROOT
HETATM    1  C   UNL     1      -7.821   1.398 -32.731  1.00  0.00     0.253 C 
ENDROOT
BRANCH   1   2
HETATM    2  C   UNL     1      -6.850   1.366 -33.931  1.00  0.00     0.048 C 
BRANCH   2   3
HETATM    3  C   UNL     1      -7.087   0.279 -34.989  1.00  0.00     0.081 C 
BRANCH   3   4
HETATM    4  C   UNL     1      -6.391  -0.989 -34.643  1.00  0.00     0.105 A 
HETATM    5  N   UNL     1      -5.283  -1.065 -33.930  1.00  0.00    -0.233 NA
HETATM    6  C   UNL     1      -4.943  -2.402 -33.939  1.00  0.00     0.085 A 
HETATM    7  C   UNL     1      -5.875  -3.144 -34.657  1.00  0.00     0.062 A 
HETATM    8  C   UNL     1      -3.838  -3.052 -33.371  1.00  0.00     0.034 A 
HETATM    9  C   UNL     1      -5.772  -4.522 -34.852  1.00  0.00     0.032 A 
HETATM   10  N   UNL     1      -6.808  -2.226 -35.065  1.00  0.00    -0.343 N 
HETATM   11  C   UNL     1      -4.659  -5.153 -34.286  1.00  0.00     0.002 A 
HETATM   12  C   UNL     1      -3.707  -4.435 -33.558  1.00  0.00     0.002 A 
HETATM   13  H   UNL     1      -7.638  -2.434 -35.606  1.00  0.00     0.167 HD
ENDBRANCH   3   4
ENDBRANCH   2   3
ENDBRANCH   1   2
BRANCH   1  14
HETATM   14  N   UNL     1      -7.594   0.238 -31.835  1.00  0.00    -0.068 N 
HETATM   15  H   UNL     1      -8.282   0.241 -31.076  1.00  0.00     0.275 HD
HETATM   16  H   UNL     1      -7.720  -0.648 -32.337  1.00  0.00     0.275 HD
HETATM   17  H   UNL     1      -6.650   0.308 -31.414  1.00  0.00     0.275 HD
ENDBRANCH   1  14
BRANCH   1  18
HETATM   18  C   UNL     1      -9.240   1.370 -33.200  1.00  0.00     0.136 A 
HETATM   19  N   UNL     1      -9.780   2.250 -34.019  1.00  0.00    -0.231 NA
HETATM   20  C   UNL     1     -11.083   1.837 -34.189  1.00  0.00     0.085 A 
HETATM   21  C   UNL     1     -11.320   0.659 -33.488  1.00  0.00     0.062 A 
HETATM   22  C   UNL     1     -12.121   2.414 -34.933  1.00  0.00     0.034 A 
HETATM   23  N   UNL     1     -10.131   0.382 -32.863  1.00  0.00    -0.341 N 
HETATM   24  C   UNL     1     -12.549  -0.004 -33.495  1.00  0.00     0.032 A 
HETATM   25  H   UNL     1      -9.965  -0.420 -32.268  1.00  0.00     0.167 HD
HETATM   26  C   UNL     1     -13.573   0.584 -34.245  1.00  0.00     0.002 A 
HETATM   27  C   UNL     1     -13.366   1.773 -34.950  1.00  0.00     0.002 A 
ENDBRANCH   1  18
TORSDOF 5
ENDMDL
MODEL 6
REMARK VINA RESULT:      -7.7      4.121      7.335
REMARK  5 active torsions:
REMARK  status: ('A' for Active; 'I' for Inactive)
REMARK    1  A    between atoms: C_6  and  C_7 
REMARK    2  A    between atoms: C_7  and  C_8 
REMARK    3  A    between atoms: C_8  and  C_9 
REMARK    4  A    between atoms: C_9  and  N_10 
REMARK    5  A    between atoms: C_9  and  C_14 
ROOT
HETATM    1  C   UNL     1      -6.029   1.558 -30.620  1.00  0.00     0.253 C 
ENDROOT
BRANCH   1   2
HETATM    2  C   UNL     1      -4.766   2.443 -30.557  1.00  0.00     0.048 C 
BRANCH   2   3
HETATM    3  C   UNL     1      -4.453   3.299 -31.792  1.00  0.00     0.081 C 
BRANCH   3   4
HETATM    4  C   UNL     1      -3.311   4.219 -31.551  1.00  0.00     0.105 A 
HETATM    5  N   UNL     1      -2.098   4.054 -32.046  1.00  0.00    -0.233 NA
HETATM    6  C   UNL     1      -1.345   5.071 -31.495  1.00  0.00     0.085 A 
HETATM    7  C   UNL     1      -2.126   5.871 -30.668  1.00  0.00     0.062 A 
HETATM    8  C   UNL     1       0.020   5.359 -31.641  1.00  0.00     0.034 A 
HETATM    9  C   UNL     1      -1.621   6.962 -29.960  1.00  0.00     0.032 A 
HETATM   10  N   UNL     1      -3.383   5.330 -30.749  1.00  0.00    -0.343 N 
HETATM   11  C   UNL     1      -0.256   7.230 -30.110  1.00  0.00     0.002 A 
HETATM   12  C   UNL     1       0.552   6.446 -30.936  1.00  0.00     0.002 A 
HETATM   13  H   UNL     1      -4.204   5.681 -30.273  1.00  0.00     0.167 HD
ENDBRANCH   3   4
ENDBRANCH   2   3
ENDBRANCH   1   2
BRANCH   1  14
HETATM   14  N   UNL     1      -6.312   0.944 -29.300  1.00  0.00    -0.068 N 
HETATM   15  H   UNL     1      -5.812   0.054 -29.212  1.00  0.00     0.275 HD
HETATM   16  H   UNL     1      -5.977   1.540 -28.535  1.00  0.00     0.275 HD
HETATM   17  H   UNL     1      -7.327   0.753 -29.219  1.00  0.00     0.275 HD
ENDBRANCH   1  14
BRANCH   1  18
HETATM   18  C   UNL     1      -5.859   0.467 -31.628  1.00  0.00     0.136 A 
HETATM   19  N   UNL     1      -4.759  -0.240 -31.794  1.00  0.00    -0.231 NA
HETATM   20  C   UNL     1      -5.048  -1.130 -32.804  1.00  0.00     0.085 A 
HETATM   21  C   UNL     1      -6.364  -0.982 -33.228  1.00  0.00     0.062 A 
HETATM   22  C   UNL     1      -4.237  -2.100 -33.410  1.00  0.00     0.034 A 
HETATM   23  N   UNL     1      -6.861   0.043 -32.465  1.00  0.00    -0.341 N 
HETATM   24  C   UNL     1      -6.942  -1.769 -34.227  1.00  0.00     0.032 A 
HETATM   25  H   UNL     1      -7.805   0.401 -32.524  1.00  0.00     0.167 HD
HETATM   26  C   UNL     1      -6.119  -2.734 -34.817  1.00  0.00     0.002 A 
HETATM   27  C   UNL     1      -4.789  -2.896 -34.420  1.00  0.00     0.002 A 
ENDBRANCH   1  18
TORSDOF 5
ENDMDL
MODEL 7
REMARK VINA RESULT:      -7.7      2.933      6.188
REMARK  5 active torsions:
REMARK  status: ('A' for Active; 'I' for Inactive)
REMARK    1  A    between atoms: C_6  and  C_7 
REMARK    2  A    between atoms: C_7  and  C_8 
REMARK    3  A    between atoms: C_8  and  C_9 
REMARK    4  A    between atoms: C_9  and  N_10 
REMARK    5  A    between atoms: C_9  and  C_14 
ROOT
HETATM    1  C   UNL     1      -8.478   1.406 -32.290  1.00  0.00     0.253 C 
ENDROOT
BRANCH   1   2
HETATM    2  C   UNL     1      -7.632   2.578 -31.749  1.00  0.00     0.048 C 
BRANCH   2   3
HETATM    3  C   UNL     1      -7.622   3.870 -32.579  1.00  0.00     0.081 C 
BRANCH   3   4
HETATM    4  C   UNL     1      -6.246   4.244 -33.001  1.00  0.00     0.105 A 
HETATM    5  N   UNL     1      -5.930   4.715 -34.193  1.00  0.00    -0.233 NA
HETATM    6  C   UNL     1      -4.555   4.830 -34.180  1.00  0.00     0.085 A 
HETATM    7  C   UNL     1      -4.039   4.436 -32.950  1.00  0.00     0.062 A 
HETATM    8  C   UNL     1      -3.678   5.244 -35.192  1.00  0.00     0.034 A 
HETATM    9  C   UNL     1      -2.674   4.425 -32.660  1.00  0.00     0.032 A 
HETATM   10  N   UNL     1      -5.139   4.102 -32.204  1.00  0.00    -0.343 N 
HETATM   11  C   UNL     1      -1.813   4.834 -33.684  1.00  0.00     0.002 A 
HETATM   12  C   UNL     1      -2.302   5.237 -34.929  1.00  0.00     0.002 A 
HETATM   13  H   UNL     1      -5.121   3.780 -31.244  1.00  0.00     0.167 HD
ENDBRANCH   3   4
ENDBRANCH   2   3
ENDBRANCH   1   2
BRANCH   1  14
HETATM   14  N   UNL     1      -9.324   0.825 -31.218  1.00  0.00    -0.068 N 
HETATM   15  H   UNL     1      -8.838   0.884 -30.318  1.00  0.00     0.275 HD
HETATM   16  H   UNL     1     -10.198   1.350 -31.110  1.00  0.00     0.275 HD
HETATM   17  H   UNL     1      -9.501  -0.175 -31.424  1.00  0.00     0.275 HD
ENDBRANCH   1  14
BRANCH   1  18
HETATM   18  C   UNL     1      -7.599   0.331 -32.842  1.00  0.00     0.136 A 
HETATM   19  N   UNL     1      -6.293   0.266 -32.673  1.00  0.00    -0.231 NA
HETATM   20  C   UNL     1      -5.899  -0.879 -33.330  1.00  0.00     0.085 A 
HETATM   21  C   UNL     1      -6.997  -1.539 -33.871  1.00  0.00     0.062 A 
HETATM   22  C   UNL     1      -4.619  -1.423 -33.502  1.00  0.00     0.034 A 
HETATM   23  N   UNL     1      -8.070  -0.748 -33.548  1.00  0.00    -0.341 N 
HETATM   24  C   UNL     1      -6.901  -2.741 -34.573  1.00  0.00     0.032 A 
HETATM   25  H   UNL     1      -9.031  -0.949 -33.795  1.00  0.00     0.167 HD
HETATM   26  C   UNL     1      -5.616  -3.271 -34.732  1.00  0.00     0.002 A 
HETATM   27  C   UNL     1      -4.493  -2.624 -34.210  1.00  0.00     0.002 A 
ENDBRANCH   1  18
TORSDOF 5
ENDMDL
MODEL 8
REMARK VINA RESULT:      -7.6      3.785      5.751
REMARK  5 active torsions:
REMARK  status: ('A' for Active; 'I' for Inactive)
REMARK    1  A    between atoms: C_6  and  C_7 
REMARK    2  A    between atoms: C_7  and  C_8 
REMARK    3  A    between atoms: C_8  and  C_9 
REMARK    4  A    between atoms: C_9  and  N_10 
REMARK    5  A    between atoms: C_9  and  C_14 
ROOT
HETATM    1  C   UNL     1      -3.968   2.266 -31.146  1.00  0.00     0.253 C 
ENDROOT
BRANCH   1   2
HETATM    2  C   UNL     1      -4.165   1.183 -32.228  1.00  0.00     0.048 C 
BRANCH   2   3
HETATM    3  C   UNL     1      -3.192  -0.004 -32.210  1.00  0.00     0.081 C 
BRANCH   3   4
HETATM    4  C   UNL     1      -3.793  -1.220 -32.817  1.00  0.00     0.105 A 
HETATM    5  N   UNL     1      -3.337  -2.447 -32.648  1.00  0.00    -0.233 NA
HETATM    6  C   UNL     1      -4.125  -3.238 -33.458  1.00  0.00     0.085 A 
HETATM    7  C   UNL     1      -5.084  -2.472 -34.113  1.00  0.00     0.062 A 
HETATM    8  C   UNL     1      -4.065  -4.618 -33.701  1.00  0.00     0.034 A 
HETATM    9  C   UNL     1      -6.005  -3.005 -35.016  1.00  0.00     0.032 A 
HETATM   10  N   UNL     1      -4.876  -1.195 -33.660  1.00  0.00    -0.343 N 
HETATM   11  C   UNL     1      -5.925  -4.382 -35.252  1.00  0.00     0.002 A 
HETATM   12  C   UNL     1      -4.974  -5.177 -34.608  1.00  0.00     0.002 A 
HETATM   13  H   UNL     1      -5.414  -0.382 -33.930  1.00  0.00     0.167 HD
ENDBRANCH   3   4
ENDBRANCH   2   3
ENDBRANCH   1   2
BRANCH   1  14
HETATM   14  N   UNL     1      -5.273   2.722 -30.609  1.00  0.00    -0.068 N 
HETATM   15  H   UNL     1      -6.023   2.107 -30.941  1.00  0.00     0.275 HD
HETATM   16  H   UNL     1      -5.291   2.672 -29.585  1.00  0.00     0.275 HD
HETATM   17  H   UNL     1      -5.469   3.681 -30.948  1.00  0.00     0.275 HD
ENDBRANCH   1  14
BRANCH   1  18
HETATM   18  C   UNL     1      -3.243   3.447 -31.706  1.00  0.00     0.136 A 
HETATM   19  N   UNL     1      -2.844   3.561 -32.958  1.00  0.00    -0.231 NA
HETATM   20  C   UNL     1      -2.242   4.797 -33.036  1.00  0.00     0.085 A 
HETATM   21  C   UNL     1      -2.316   5.458 -31.815  1.00  0.00     0.062 A 
HETATM   22  C   UNL     1      -1.614   5.425 -34.120  1.00  0.00     0.034 A 
HETATM   23  N   UNL     1      -2.957   4.577 -30.982  1.00  0.00    -0.341 N 
HETATM   24  C   UNL     1      -1.808   6.742 -31.605  1.00  0.00     0.032 A 
HETATM   25  H   UNL     1      -3.174   4.755 -30.010  1.00  0.00     0.167 HD
HETATM   26  C   UNL     1      -1.188   7.355 -32.698  1.00  0.00     0.002 A 
HETATM   27  C   UNL     1      -1.088   6.710 -33.933  1.00  0.00     0.002 A 
ENDBRANCH   1  18
TORSDOF 5
ENDMDL
MODEL 9
REMARK VINA RESULT:      -7.4      1.615      6.183
REMARK  5 active torsions:
REMARK  status: ('A' for Active; 'I' for Inactive)
REMARK    1  A    between atoms: C_6  and  C_7 
REMARK    2  A    between atoms: C_7  and  C_8 
REMARK    3  A    between atoms: C_8  and  C_9 
REMARK    4  A    between atoms: C_9  and  N_10 
REMARK    5  A    between atoms: C_9  and  C_14 
ROOT
HETATM    1  C   UNL     1      -7.148   1.225 -30.709  1.00  0.00     0.253 C 
ENDROOT
BRANCH   1   2
HETATM    2  C   UNL     1      -7.199   2.641 -31.322  1.00  0.00     0.048 C 
BRANCH   2   3
HETATM    3  C   UNL     1      -8.526   3.403 -31.202  1.00  0.00     0.081 C 
BRANCH   3   4
HETATM    4  C   UNL     1      -9.478   3.028 -32.281  1.00  0.00     0.105 A 
HETATM    5  N   UNL     1      -9.760   3.781 -33.327  1.00  0.00    -0.233 NA
HETATM    6  C   UNL     1     -10.748   3.096 -34.006  1.00  0.00     0.085 A 
HETATM    7  C   UNL     1     -11.050   1.901 -33.362  1.00  0.00     0.062 A 
HETATM    8  C   UNL     1     -11.448   3.447 -35.169  1.00  0.00     0.034 A 
HETATM    9  C   UNL     1     -12.030   1.015 -33.813  1.00  0.00     0.032 A 
HETATM   10  N   UNL     1     -10.202   1.862 -32.286  1.00  0.00    -0.343 N 
HETATM   11  C   UNL     1     -12.724   1.385 -34.970  1.00  0.00     0.002 A 
HETATM   12  C   UNL     1     -12.441   2.578 -35.639  1.00  0.00     0.002 A 
HETATM   13  H   UNL     1     -10.150   1.114 -31.607  1.00  0.00     0.167 HD
ENDBRANCH   3   4
ENDBRANCH   2   3
ENDBRANCH   1   2
BRANCH   1  14
HETATM   14  N   UNL     1      -6.278   1.199 -29.508  1.00  0.00    -0.068 N 
HETATM   15  H   UNL     1      -6.006   2.153 -29.252  1.00  0.00     0.275 HD
HETATM   16  H   UNL     1      -6.776   0.814 -28.698  1.00  0.00     0.275 HD
HETATM   17  H   UNL     1      -5.416   0.664 -29.718  1.00  0.00     0.275 HD
ENDBRANCH   1  14
BRANCH   1  18
HETATM   18  C   UNL     1      -6.622   0.240 -31.702  1.00  0.00     0.136 A 
HETATM   19  N   UNL     1      -5.408  -0.274 -31.682  1.00  0.00    -0.231 NA
HETATM   20  C   UNL     1      -5.359  -1.133 -32.757  1.00  0.00     0.085 A 
HETATM   21  C   UNL     1      -6.585  -1.169 -33.414  1.00  0.00     0.062 A 
HETATM   22  C   UNL     1      -4.304  -1.924 -33.231  1.00  0.00     0.034 A 
HETATM   23  N   UNL     1      -7.373  -0.284 -32.725  1.00  0.00    -0.341 N 
HETATM   24  C   UNL     1      -6.836  -1.972 -34.529  1.00  0.00     0.032 A 
HETATM   25  H   UNL     1      -8.338  -0.075 -32.948  1.00  0.00     0.167 HD
HETATM   26  C   UNL     1      -5.772  -2.757 -34.986  1.00  0.00     0.002 A 
HETATM   27  C   UNL     1      -4.526  -2.733 -34.353  1.00  0.00     0.002 A 
ENDBRANCH   1  18
TORSDOF 5
ENDMDL
MODEL 10
REMARK VINA RESULT:      -7.2      2.246      6.983
REMARK  5 active torsions:
REMARK  status: ('A' for Active; 'I' for Inactive)
REMARK    1  A    between atoms: C_6  and  C_7 
REMARK    2  A    between atoms: C_7  and  C_8 
REMARK    3  A    between atoms: C_8  and  C_9 
REMARK    4  A    between atoms: C_9  and  N_10 
REMARK    5  A    between atoms: C_9  and  C_14 
ROOT
HETATM    1  C   UNL     1      -7.105   1.536 -31.971  1.00  0.00     0.253 C 
ENDROOT
BRANCH   1   2
HETATM    2  C   UNL     1      -8.647   1.530 -31.909  1.00  0.00     0.048 C 
BRANCH   2   3
HETATM    3  C   UNL     1      -9.386   2.452 -32.889  1.00  0.00     0.081 C 
BRANCH   3   4
HETATM    4  C   UNL     1     -10.813   2.065 -33.043  1.00  0.00     0.105 A 
HETATM    5  N   UNL     1     -11.238   1.031 -33.744  1.00  0.00    -0.233 NA
HETATM    6  C   UNL     1     -12.615   1.105 -33.694  1.00  0.00     0.085 A 
HETATM    7  C   UNL     1     -13.023   2.195 -32.932  1.00  0.00     0.062 A 
HETATM    8  C   UNL     1     -13.582   0.285 -34.294  1.00  0.00     0.034 A 
HETATM    9  C   UNL     1     -14.362   2.528 -32.729  1.00  0.00     0.032 A 
HETATM   10  N   UNL     1     -11.857   2.769 -32.498  1.00  0.00    -0.343 N 
HETATM   11  C   UNL     1     -15.314   1.705 -33.342  1.00  0.00     0.002 A 
HETATM   12  C   UNL     1     -14.934   0.603 -34.110  1.00  0.00     0.002 A 
HETATM   13  H   UNL     1     -11.791   3.586 -31.904  1.00  0.00     0.167 HD
ENDBRANCH   3   4
ENDBRANCH   2   3
ENDBRANCH   1   2
BRANCH   1  14
HETATM   14  N   UNL     1      -6.608   2.735 -32.689  1.00  0.00    -0.068 N 
HETATM   15  H   UNL     1      -7.011   3.582 -32.278  1.00  0.00     0.275 HD
HETATM   16  H   UNL     1      -5.591   2.825 -32.600  1.00  0.00     0.275 HD
HETATM   17  H   UNL     1      -6.903   2.688 -33.682  1.00  0.00     0.275 HD
ENDBRANCH   1  14
BRANCH   1  18
HETATM   18  C   UNL     1      -6.600   0.316 -32.670  1.00  0.00     0.136 A 
HETATM   19  N   UNL     1      -5.345  -0.085 -32.673  1.00  0.00    -0.231 NA
HETATM   20  C   UNL     1      -5.335  -1.244 -33.417  1.00  0.00     0.085 A 
HETATM   21  C   UNL     1      -6.620  -1.569 -33.837  1.00  0.00     0.062 A 
HETATM   22  C   UNL     1      -4.266  -2.078 -33.772  1.00  0.00     0.034 A 
HETATM   23  N   UNL     1      -7.410  -0.560 -33.350  1.00  0.00    -0.341 N 
HETATM   24  C   UNL     1      -6.917  -2.707 -34.591  1.00  0.00     0.032 A 
HETATM   25  H   UNL     1      -8.412  -0.497 -33.480  1.00  0.00     0.167 HD
HETATM   26  C   UNL     1      -5.838  -3.529 -34.933  1.00  0.00     0.002 A 
HETATM   27  C   UNL     1      -4.535  -3.221 -34.535  1.00  0.00     0.002 A 
ENDBRANCH   1  18
TORSDOF 5
ENDMDL
