MODEL 1
REMARK VINA RESULT:      -8.1      0.000      0.000
REMARK  8 active torsions:
REMARK  status: ('A' for Active; 'I' for Inactive)
REMARK    1  A    between atoms: C_7  and  C_8 
REMARK       I    between atoms: C_8  and  N_9 
REMARK    2  A    between atoms: N_9  and  C_10 
REMARK    3  A    between atoms: C_11  and  C_12 
REMARK       I    between atoms: C_12  and  N_13 
REMARK    4  A    between atoms: N_13  and  C_14 
REMARK    5  A    between atoms: C_14  and  C_15 
REMARK    6  A    between atoms: C_15  and  C_16 
REMARK    7  A    between atoms: C_17  and  O_18 
REMARK    8  A    between atoms: C_21  and  O_22 
ROOT
HETATM    1  C   UNL     1      -4.637   4.494 -33.488  1.00  0.00     0.050 A 
HETATM    2  C   UNL     1      -3.592   3.974 -32.710  1.00  0.00     0.058 A 
HETATM    3  C   UNL     1      -2.255   4.189 -33.101  1.00  0.00     0.019 A 
HETATM    4  C   UNL     1      -1.960   4.897 -34.265  1.00  0.00     0.001 A 
HETATM    5  C   UNL     1      -2.995   5.366 -35.066  1.00  0.00     0.002 A 
HETATM    6  C   UNL     1      -4.324   5.155 -34.688  1.00  0.00     0.030 A 
ENDROOT
BRANCH   2   7
HETATM    7  C   UNL     1      -3.803   2.982 -31.622  1.00  0.00     0.253 C 
HETATM    8  N   UNL     1      -3.433   1.691 -31.934  1.00  0.00    -0.356 N 
HETATM    9  H   UNL     1      -2.789   1.554 -32.702  1.00  0.00     0.162 HD
HETATM   10  O   UNL     1      -4.355   3.315 -30.580  1.00  0.00    -0.268 OA
BRANCH   8  11
HETATM   11  C   UNL     1      -3.728   0.568 -31.065  1.00  0.00     0.127 C 
BRANCH  11  12
HETATM   12  C   UNL     1      -5.181   0.098 -31.141  1.00  0.00     0.061 C 
BRANCH  12  13
HETATM   13  C   UNL     1      -5.382  -0.843 -32.314  1.00  0.00    -0.023 A 
HETATM   14  C   UNL     1      -6.606  -0.925 -33.004  1.00  0.00     0.077 A 
HETATM   15  C   UNL     1      -6.728  -1.783 -34.108  1.00  0.00     0.074 A 
HETATM   16  C   UNL     1      -5.642  -2.553 -34.533  1.00  0.00     0.070 A 
HETATM   17  C   UNL     1      -4.426  -2.454 -33.860  1.00  0.00     0.037 A 
HETATM   18  C   UNL     1      -4.295  -1.611 -32.758  1.00  0.00     0.013 A 
BRANCH  14  19
HETATM   19  O   UNL     1      -7.610  -0.120 -32.532  1.00  0.00    -0.355 OA
HETATM   20  C   UNL     1      -8.846  -0.118 -33.233  1.00  0.00     0.210 C 
ENDBRANCH  14  19
BRANCH  16  21
HETATM   21  O   UNL     1      -5.634  -3.417 -35.596  1.00  0.00    -0.356 OA
HETATM   22  C   UNL     1      -6.325  -4.649 -35.428  1.00  0.00     0.210 C 
ENDBRANCH  16  21
ENDBRANCH  12  13
ENDBRANCH  11  12
ENDBRANCH   8  11
ENDBRANCH   2   7
BRANCH   1  23
HETATM   23  N   UNL     1      -6.009   4.426 -33.171  1.00  0.00    -0.321 N 
HETATM   24  C   UNL     1      -6.869   3.406 -33.535  1.00  0.00     0.265 C 
HETATM   25  O   UNL     1      -6.529   2.393 -34.139  1.00  0.00    -0.267 OA
HETATM   26  H   UNL     1      -6.345   5.011 -32.413  1.00  0.00     0.169 HD
BRANCH  24  27
HETATM   27  C   UNL     1      -8.274   3.568 -32.970  1.00  0.00     0.097 C 
HETATM   28  C   UNL     1      -8.542   3.308 -31.667  1.00  0.00     0.064 C 
HETATM   29  C   UNL     1      -7.540   2.716 -30.710  1.00  0.00     0.078 C 
HETATM   30  O   UNL     1      -9.766   3.500 -31.040  1.00  0.00    -0.353 OA
HETATM   31  C   UNL     1     -10.702   4.354 -31.698  1.00  0.00     0.185 C 
HETATM   32  C   UNL     1     -10.979   3.883 -33.109  1.00  0.00     0.106 C 
HETATM   33  S   UNL     1      -9.488   4.154 -34.095  1.00  0.00    -0.120 SA
ENDBRANCH  24  27
ENDBRANCH   1  23
TORSDOF 8
ENDMDL
MODEL 2
REMARK VINA RESULT:      -8.0      2.094      5.944
REMARK  8 active torsions:
REMARK  status: ('A' for Active; 'I' for Inactive)
REMARK    1  A    between atoms: C_7  and  C_8 
REMARK       I    between atoms: C_8  and  N_9 
REMARK    2  A    between atoms: N_9  and  C_10 
REMARK    3  A    between atoms: C_11  and  C_12 
REMARK       I    between atoms: C_12  and  N_13 
REMARK    4  A    between atoms: N_13  and  C_14 
REMARK    5  A    between atoms: C_14  and  C_15 
REMARK    6  A    between atoms: C_15  and  C_16 
REMARK    7  A    between atoms: C_17  and  O_18 
REMARK    8  A    between atoms: C_21  and  O_22 
ROOT
HETATM    1  C   UNL     1      -6.412  -1.744 -34.029  1.00  0.00     0.050 A 
HETATM    2  C   UNL     1      -5.032  -1.920 -33.848  1.00  0.00     0.058 A 
HETATM    3  C   UNL     1      -4.424  -3.130 -34.238  1.00  0.00     0.019 A 
HETATM    4  C   UNL     1      -5.184  -4.163 -34.786  1.00  0.00     0.001 A 
HETATM    5  C   UNL     1      -6.560  -4.011 -34.916  1.00  0.00     0.002 A 
HETATM    6  C   UNL     1      -7.171  -2.816 -34.528  1.00  0.00     0.030 A 
ENDROOT
BRANCH   2   7
HETATM    7  C   UNL     1      -4.196  -1.003 -33.028  1.00  0.00     0.253 C 
HETATM    8  N   UNL     1      -4.623  -0.834 -31.728  1.00  0.00    -0.356 N 
HETATM    9  H   UNL     1      -5.240  -1.534 -31.336  1.00  0.00     0.162 HD
HETATM   10  O   UNL     1      -3.264  -0.394 -33.538  1.00  0.00    -0.268 OA
BRANCH   8  11
HETATM   11  C   UNL     1      -4.038   0.152 -30.841  1.00  0.00     0.127 C 
BRANCH  11  12
HETATM   12  C   UNL     1      -4.986   1.296 -30.481  1.00  0.00     0.061 C 
BRANCH  12  13
HETATM   13  C   UNL     1      -4.434   2.625 -30.963  1.00  0.00    -0.023 A 
HETATM   14  C   UNL     1      -4.969   3.855 -30.535  1.00  0.00     0.077 A 
HETATM   15  C   UNL     1      -4.397   5.056 -30.981  1.00  0.00     0.074 A 
HETATM   16  C   UNL     1      -3.295   5.042 -31.842  1.00  0.00     0.070 A 
HETATM   17  C   UNL     1      -2.757   3.823 -32.248  1.00  0.00     0.037 A 
HETATM   18  C   UNL     1      -3.322   2.624 -31.817  1.00  0.00     0.013 A 
BRANCH  14  19
HETATM   19  O   UNL     1      -6.033   3.774 -29.676  1.00  0.00    -0.355 OA
HETATM   20  C   UNL     1      -7.295   4.240 -30.134  1.00  0.00     0.210 C 
ENDBRANCH  14  19
BRANCH  16  21
HETATM   21  O   UNL     1      -2.648   6.143 -32.337  1.00  0.00    -0.356 OA
HETATM   22  C   UNL     1      -2.654   6.312 -33.749  1.00  0.00     0.210 C 
ENDBRANCH  16  21
ENDBRANCH  12  13
ENDBRANCH  11  12
ENDBRANCH   8  11
ENDBRANCH   2   7
BRANCH   1  23
HETATM   23  N   UNL     1      -7.131  -0.561 -33.762  1.00  0.00    -0.321 N 
HETATM   24  C   UNL     1      -7.392   0.445 -34.676  1.00  0.00     0.265 C 
HETATM   25  O   UNL     1      -7.076   0.405 -35.861  1.00  0.00    -0.267 OA
HETATM   26  H   UNL     1      -7.723  -0.546 -32.938  1.00  0.00     0.169 HD
BRANCH  24  27
HETATM   27  C   UNL     1      -8.269   1.558 -34.117  1.00  0.00     0.097 C 
HETATM   28  C   UNL     1      -7.769   2.794 -33.877  1.00  0.00     0.064 C 
HETATM   29  C   UNL     1      -6.307   3.142 -34.000  1.00  0.00     0.078 C 
HETATM   30  O   UNL     1      -8.501   3.892 -33.445  1.00  0.00    -0.353 OA
HETATM   31  C   UNL     1      -9.917   3.827 -33.605  1.00  0.00     0.185 C 
HETATM   32  C   UNL     1     -10.492   2.600 -32.932  1.00  0.00     0.106 C 
HETATM   33  S   UNL     1      -9.957   1.145 -33.861  1.00  0.00    -0.120 SA
ENDBRANCH  24  27
ENDBRANCH   1  23
TORSDOF 8
ENDMDL
MODEL 3
REMARK VINA RESULT:      -7.8      3.953      5.570
REMARK  8 active torsions:
REMARK  status: ('A' for Active; 'I' for Inactive)
REMARK    1  A    between atoms: C_7  and  C_8 
REMARK       I    between atoms: C_8  and  N_9 
REMARK    2  A    between atoms: N_9  and  C_10 
REMARK    3  A    between atoms: C_11  and  C_12 
REMARK       I    between atoms: C_12  and  N_13 
REMARK    4  A    between atoms: N_13  and  C_14 
REMARK    5  A    between atoms: C_14  and  C_15 
REMARK    6  A    between atoms: C_15  and  C_16 
REMARK    7  A    between atoms: C_17  and  O_18 
REMARK    8  A    between atoms: C_21  and  O_22 
ROOT
HETATM    1  C   UNL     1      -1.610   5.887 -31.983  1.00  0.00     0.050 A 
HETATM    2  C   UNL     1      -2.256   4.767 -32.526  1.00  0.00     0.058 A 
HETATM    3  C   UNL     1      -2.175   4.514 -33.911  1.00  0.00     0.019 A 
HETATM    4  C   UNL     1      -1.474   5.379 -34.751  1.00  0.00     0.001 A 
HETATM    5  C   UNL     1      -0.878   6.519 -34.223  1.00  0.00     0.002 A 
HETATM    6  C   UNL     1      -0.956   6.778 -32.852  1.00  0.00     0.030 A 
ENDROOT
BRANCH   2   7
HETATM    7  C   UNL     1      -3.247   3.954 -31.770  1.00  0.00     0.253 C 
HETATM    8  N   UNL     1      -3.312   2.627 -32.139  1.00  0.00    -0.356 N 
HETATM    9  H   UNL     1      -2.523   2.234 -32.636  1.00  0.00     0.162 HD
HETATM   10  O   UNL     1      -3.991   4.487 -30.957  1.00  0.00    -0.268 OA
BRANCH   8  11
HETATM   11  C   UNL     1      -4.335   1.732 -31.637  1.00  0.00     0.127 C 
BRANCH  11  12
HETATM   12  C   UNL     1      -5.569   1.641 -32.535  1.00  0.00     0.061 C 
BRANCH  12  13
HETATM   13  C   UNL     1      -5.626   0.298 -33.238  1.00  0.00    -0.023 A 
HETATM   14  C   UNL     1      -6.562   0.025 -34.253  1.00  0.00     0.077 A 
HETATM   15  C   UNL     1      -6.548  -1.221 -34.898  1.00  0.00     0.074 A 
HETATM   16  C   UNL     1      -5.605  -2.192 -34.548  1.00  0.00     0.070 A 
HETATM   17  C   UNL     1      -4.667  -1.912 -33.556  1.00  0.00     0.037 A 
HETATM   18  C   UNL     1      -4.677  -0.681 -32.903  1.00  0.00     0.013 A 
BRANCH  14  19
HETATM   19  O   UNL     1      -7.433   1.041 -34.546  1.00  0.00    -0.355 OA
HETATM   20  C   UNL     1      -8.819   0.813 -34.328  1.00  0.00     0.210 C 
ENDBRANCH  14  19
BRANCH  16  21
HETATM   21  O   UNL     1      -5.486  -3.437 -35.107  1.00  0.00    -0.356 OA
HETATM   22  C   UNL     1      -6.620  -4.291 -35.025  1.00  0.00     0.210 C 
ENDBRANCH  16  21
ENDBRANCH  12  13
ENDBRANCH  11  12
ENDBRANCH   8  11
ENDBRANCH   2   7
BRANCH   1  23
HETATM   23  N   UNL     1      -1.539   6.211 -30.613  1.00  0.00    -0.321 N 
HETATM   24  C   UNL     1      -1.894   7.426 -30.054  1.00  0.00     0.265 C 
HETATM   25  O   UNL     1      -2.374   8.365 -30.682  1.00  0.00    -0.267 OA
HETATM   26  H   UNL     1      -1.478   5.444 -29.952  1.00  0.00     0.169 HD
BRANCH  24  27
HETATM   27  C   UNL     1      -1.792   7.446 -28.535  1.00  0.00     0.097 C 
HETATM   28  C   UNL     1      -0.613   7.685 -27.912  1.00  0.00     0.064 C 
HETATM   29  C   UNL     1       0.703   7.812 -28.636  1.00  0.00     0.078 C 
HETATM   30  O   UNL     1      -0.433   7.802 -26.540  1.00  0.00    -0.353 OA
HETATM   31  C   UNL     1      -1.598   8.045 -25.754  1.00  0.00     0.185 C 
HETATM   32  C   UNL     1      -2.652   6.984 -25.988  1.00  0.00     0.106 C 
HETATM   33  S   UNL     1      -3.297   7.192 -27.664  1.00  0.00    -0.120 SA
ENDBRANCH  24  27
ENDBRANCH   1  23
TORSDOF 8
ENDMDL
MODEL 4
REMARK VINA RESULT:      -7.7      3.199      5.818
REMARK  8 active torsions:
REMARK  status: ('A' for Active; 'I' for Inactive)
REMARK    1  A    between atoms: C_7  and  C_8 
REMARK       I    between atoms: C_8  and  N_9 
REMARK    2  A    between atoms: N_9  and  C_10 
REMARK    3  A    between atoms: C_11  and  C_12 
REMARK       I    between atoms: C_12  and  N_13 
REMARK    4  A    between atoms: N_13  and  C_14 
REMARK    5  A    between atoms: C_14  and  C_15 
REMARK    6  A    between atoms: C_15  and  C_16 
REMARK    7  A    between atoms: C_17  and  O_18 
REMARK    8  A    between atoms: C_21  and  O_22 
ROOT
HETATM    1  C   UNL     1      -5.881   5.521 -29.501  1.00  0.00     0.050 A 
HETATM    2  C   UNL     1      -6.844   4.659 -30.046  1.00  0.00     0.058 A 
HETATM    3  C   UNL     1      -8.212   4.895 -29.804  1.00  0.00     0.019 A 
HETATM    4  C   UNL     1      -8.618   5.967 -29.010  1.00  0.00     0.001 A 
HETATM    5  C   UNL     1      -7.663   6.790 -28.425  1.00  0.00     0.002 A 
HETATM    6  C   UNL     1      -6.304   6.562 -28.657  1.00  0.00     0.030 A 
ENDROOT
BRANCH   2   7
HETATM    7  C   UNL     1      -6.506   3.348 -30.662  1.00  0.00     0.253 C 
HETATM    8  N   UNL     1      -7.314   2.974 -31.715  1.00  0.00    -0.356 N 
HETATM    9  H   UNL     1      -7.845   3.697 -32.185  1.00  0.00     0.162 HD
HETATM   10  O   UNL     1      -5.627   2.645 -30.177  1.00  0.00    -0.268 OA
BRANCH   8  11
HETATM   11  C   UNL     1      -7.244   1.659 -32.318  1.00  0.00     0.127 C 
BRANCH  11  12
HETATM   12  C   UNL     1      -6.273   1.573 -33.496  1.00  0.00     0.061 C 
BRANCH  12  13
HETATM   13  C   UNL     1      -5.912   0.129 -33.793  1.00  0.00    -0.023 A 
HETATM   14  C   UNL     1      -4.704  -0.444 -33.352  1.00  0.00     0.077 A 
HETATM   15  C   UNL     1      -4.436  -1.795 -33.620  1.00  0.00     0.074 A 
HETATM   16  C   UNL     1      -5.361  -2.580 -34.314  1.00  0.00     0.070 A 
HETATM   17  C   UNL     1      -6.564  -2.014 -34.731  1.00  0.00     0.037 A 
HETATM   18  C   UNL     1      -6.838  -0.671 -34.478  1.00  0.00     0.013 A 
BRANCH  14  19
HETATM   19  O   UNL     1      -3.867   0.392 -32.661  1.00  0.00    -0.355 OA
HETATM   20  C   UNL     1      -3.432  -0.018 -31.372  1.00  0.00     0.210 C 
ENDBRANCH  14  19
BRANCH  16  21
HETATM   21  O   UNL     1      -5.217  -3.905 -34.627  1.00  0.00    -0.356 OA
HETATM   22  C   UNL     1      -6.296  -4.524 -35.317  1.00  0.00     0.210 C 
ENDBRANCH  16  21
ENDBRANCH  12  13
ENDBRANCH  11  12
ENDBRANCH   8  11
ENDBRANCH   2   7
BRANCH   1  23
HETATM   23  N   UNL     1      -4.492   5.451 -29.731  1.00  0.00    -0.321 N 
HETATM   24  C   UNL     1      -3.812   6.096 -30.750  1.00  0.00     0.265 C 
HETATM   25  O   UNL     1      -4.332   6.862 -31.556  1.00  0.00    -0.267 OA
HETATM   26  H   UNL     1      -3.904   5.133 -28.968  1.00  0.00     0.169 HD
BRANCH  24  27
HETATM   27  C   UNL     1      -2.303   5.901 -30.689  1.00  0.00     0.097 C 
HETATM   28  C   UNL     1      -1.676   5.007 -31.492  1.00  0.00     0.064 C 
HETATM   29  C   UNL     1      -2.401   4.046 -32.398  1.00  0.00     0.078 C 
HETATM   30  O   UNL     1      -0.303   4.814 -31.567  1.00  0.00    -0.353 OA
HETATM   31  C   UNL     1       0.526   5.851 -31.044  1.00  0.00     0.185 C 
HETATM   32  C   UNL     1       0.185   6.153 -29.601  1.00  0.00     0.106 C 
HETATM   33  S   UNL     1      -1.444   6.936 -29.559  1.00  0.00    -0.120 SA
ENDBRANCH  24  27
ENDBRANCH   1  23
TORSDOF 8
ENDMDL
MODEL 5
REMARK VINA RESULT:      -7.6      2.116      5.548
REMARK  8 active torsions:
REMARK  status: ('A' for Active; 'I' for Inactive)
REMARK    1  A    between atoms: C_7  and  C_8 
REMARK       I    between atoms: C_8  and  N_9 
REMARK    2  A    between atoms: N_9  and  C_10 
REMARK    3  A    between atoms: C_11  and  C_12 
REMARK       I    between atoms: C_12  and  N_13 
REMARK    4  A    between atoms: N_13  and  C_14 
REMARK    5  A    between atoms: C_14  and  C_15 
REMARK    6  A    between atoms: C_15  and  C_16 
REMARK    7  A    between atoms: C_17  and  O_18 
REMARK    8  A    between atoms: C_21  and  O_22 
ROOT
HETATM    1  C   UNL     1      -7.504  -0.086 -33.856  1.00  0.00     0.050 A 
HETATM    2  C   UNL     1      -6.469  -0.042 -32.909  1.00  0.00     0.058 A 
HETATM    3  C   UNL     1      -5.388  -0.941 -33.012  1.00  0.00     0.019 A 
HETATM    4  C   UNL     1      -5.347  -1.889 -34.034  1.00  0.00     0.001 A 
HETATM    5  C   UNL     1      -6.398  -1.969 -34.941  1.00  0.00     0.002 A 
HETATM    6  C   UNL     1      -7.475  -1.084 -34.845  1.00  0.00     0.030 A 
ENDROOT
BRANCH   2   7
HETATM    7  C   UNL     1      -6.559   0.730 -31.641  1.00  0.00     0.253 C 
HETATM    8  N   UNL     1      -5.548   1.648 -31.447  1.00  0.00    -0.356 N 
HETATM    9  H   UNL     1      -5.023   1.953 -32.256  1.00  0.00     0.162 HD
HETATM   10  O   UNL     1      -7.430   0.471 -30.820  1.00  0.00    -0.268 OA
BRANCH   8  11
HETATM   11  C   UNL     1      -5.378   2.360 -30.196  1.00  0.00     0.127 C 
BRANCH  11  12
HETATM   12  C   UNL     1      -5.170   3.865 -30.369  1.00  0.00     0.061 C 
BRANCH  12  13
HETATM   13  C   UNL     1      -4.445   4.163 -31.668  1.00  0.00    -0.023 A 
HETATM   14  C   UNL     1      -5.130   4.562 -32.831  1.00  0.00     0.077 A 
HETATM   15  C   UNL     1      -4.409   4.864 -33.997  1.00  0.00     0.074 A 
HETATM   16  C   UNL     1      -3.014   4.779 -34.010  1.00  0.00     0.070 A 
HETATM   17  C   UNL     1      -2.338   4.402 -32.852  1.00  0.00     0.037 A 
HETATM   18  C   UNL     1      -3.044   4.093 -31.691  1.00  0.00     0.013 A 
BRANCH  14  19
HETATM   19  O   UNL     1      -6.494   4.639 -32.721  1.00  0.00    -0.355 OA
HETATM   20  C   UNL     1      -7.278   4.150 -33.800  1.00  0.00     0.210 C 
ENDBRANCH  14  19
BRANCH  16  21
HETATM   21  O   UNL     1      -2.202   5.053 -35.079  1.00  0.00    -0.356 OA
HETATM   22  C   UNL     1      -0.947   5.658 -34.794  1.00  0.00     0.210 C 
ENDBRANCH  16  21
ENDBRANCH  12  13
ENDBRANCH  11  12
ENDBRANCH   8  11
ENDBRANCH   2   7
BRANCH   1  23
HETATM   23  N   UNL     1      -8.595   0.804 -33.921  1.00  0.00    -0.321 N 
HETATM   24  C   UNL     1      -9.837   0.597 -33.346  1.00  0.00     0.265 C 
HETATM   25  O   UNL     1     -10.128  -0.372 -32.652  1.00  0.00    -0.267 OA
HETATM   26  H   UNL     1      -8.401   1.768 -34.171  1.00  0.00     0.169 HD
BRANCH  24  27
HETATM   27  C   UNL     1     -10.785   1.778 -33.512  1.00  0.00     0.097 C 
HETATM   28  C   UNL     1     -10.715   2.856 -32.694  1.00  0.00     0.064 C 
HETATM   29  C   UNL     1      -9.815   2.932 -31.488  1.00  0.00     0.078 C 
HETATM   30  O   UNL     1     -11.477   4.010 -32.813  1.00  0.00    -0.353 OA
HETATM   31  C   UNL     1     -12.115   4.237 -34.069  1.00  0.00     0.185 C 
HETATM   32  C   UNL     1     -12.992   3.068 -34.460  1.00  0.00     0.106 C 
HETATM   33  S   UNL     1     -11.919   1.665 -34.848  1.00  0.00    -0.120 SA
ENDBRANCH  24  27
ENDBRANCH   1  23
TORSDOF 8
ENDMDL
MODEL 6
REMARK VINA RESULT:      -7.4      2.545      6.865
REMARK  8 active torsions:
REMARK  status: ('A' for Active; 'I' for Inactive)
REMARK    1  A    between atoms: C_7  and  C_8 
REMARK       I    between atoms: C_8  and  N_9 
REMARK    2  A    between atoms: N_9  and  C_10 
REMARK    3  A    between atoms: C_11  and  C_12 
REMARK       I    between atoms: C_12  and  N_13 
REMARK    4  A    between atoms: N_13  and  C_14 
REMARK    5  A    between atoms: C_14  and  C_15 
REMARK    6  A    between atoms: C_15  and  C_16 
REMARK    7  A    between atoms: C_17  and  O_18 
REMARK    8  A    between atoms: C_21  and  O_22 
ROOT
HETATM    1  C   UNL     1      -6.696  -0.875 -33.465  1.00  0.00     0.050 A 
HETATM    2  C   UNL     1      -5.362  -0.663 -33.086  1.00  0.00     0.058 A 
HETATM    3  C   UNL     1      -4.358  -1.543 -33.539  1.00  0.00     0.019 A 
HETATM    4  C   UNL     1      -4.680  -2.635 -34.344  1.00  0.00     0.001 A 
HETATM    5  C   UNL     1      -6.008  -2.877 -34.675  1.00  0.00     0.002 A 
HETATM    6  C   UNL     1      -7.011  -2.012 -34.229  1.00  0.00     0.030 A 
ENDROOT
BRANCH   2   7
HETATM    7  C   UNL     1      -4.961   0.293 -32.019  1.00  0.00     0.253 C 
HETATM    8  N   UNL     1      -4.713   1.578 -32.453  1.00  0.00    -0.356 N 
HETATM    9  H   UNL     1      -5.099   1.860 -33.346  1.00  0.00     0.162 HD
HETATM   10  O   UNL     1      -4.787  -0.100 -30.872  1.00  0.00    -0.268 OA
BRANCH   8  11
HETATM   11  C   UNL     1      -4.147   2.593 -31.588  1.00  0.00     0.127 C 
BRANCH  11  12
HETATM   12  C   UNL     1      -2.850   3.202 -32.122  1.00  0.00     0.061 C 
BRANCH  12  13
HETATM   13  C   UNL     1      -2.848   4.709 -31.939  1.00  0.00    -0.023 A 
HETATM   14  C   UNL     1      -1.781   5.384 -31.316  1.00  0.00     0.077 A 
HETATM   15  C   UNL     1      -1.810   6.783 -31.207  1.00  0.00     0.074 A 
HETATM   16  C   UNL     1      -2.886   7.513 -31.718  1.00  0.00     0.070 A 
HETATM   17  C   UNL     1      -3.931   6.843 -32.352  1.00  0.00     0.037 A 
HETATM   18  C   UNL     1      -3.917   5.454 -32.459  1.00  0.00     0.013 A 
BRANCH  14  19
HETATM   19  O   UNL     1      -0.759   4.591 -30.864  1.00  0.00    -0.355 OA
HETATM   20  C   UNL     1       0.484   5.212 -30.568  1.00  0.00     0.210 C 
ENDBRANCH  14  19
BRANCH  16  21
HETATM   21  O   UNL     1      -3.026   8.875 -31.679  1.00  0.00    -0.356 OA
HETATM   22  C   UNL     1      -2.420   9.553 -30.586  1.00  0.00     0.210 C 
ENDBRANCH  16  21
ENDBRANCH  12  13
ENDBRANCH  11  12
ENDBRANCH   8  11
ENDBRANCH   2   7
BRANCH   1  23
HETATM   23  N   UNL     1      -7.781  -0.030 -33.156  1.00  0.00    -0.321 N 
HETATM   24  C   UNL     1      -7.944   1.268 -33.608  1.00  0.00     0.265 C 
HETATM   25  O   UNL     1      -7.183   1.832 -34.388  1.00  0.00    -0.267 OA
HETATM   26  H   UNL     1      -8.628  -0.463 -32.803  1.00  0.00     0.169 HD
BRANCH  24  27
HETATM   27  C   UNL     1      -9.262   1.898 -33.177  1.00  0.00     0.097 C 
HETATM   28  C   UNL     1      -9.354   2.628 -32.039  1.00  0.00     0.064 C 
HETATM   29  C   UNL     1      -8.231   2.768 -31.044  1.00  0.00     0.078 C 
HETATM   30  O   UNL     1     -10.485   3.306 -31.603  1.00  0.00    -0.353 OA
HETATM   31  C   UNL     1     -11.502   3.555 -32.572  1.00  0.00     0.185 C 
HETATM   32  C   UNL     1     -11.962   2.272 -33.229  1.00  0.00     0.106 C 
HETATM   33  S   UNL     1     -10.617   1.658 -34.269  1.00  0.00    -0.120 SA
ENDBRANCH  24  27
ENDBRANCH   1  23
TORSDOF 8
ENDMDL
MODEL 7
REMARK VINA RESULT:      -7.2      2.811      6.919
REMARK  8 active torsions:
REMARK  status: ('A' for Active; 'I' for Inactive)
REMARK    1  A    between atoms: C_7  and  C_8 
REMARK       I    between atoms: C_8  and  N_9 
REMARK    2  A    between atoms: N_9  and  C_10 
REMARK    3  A    between atoms: C_11  and  C_12 
REMARK       I    between atoms: C_12  and  N_13 
REMARK    4  A    between atoms: N_13  and  C_14 
REMARK    5  A    between atoms: C_14  and  C_15 
REMARK    6  A    between atoms: C_15  and  C_16 
REMARK    7  A    between atoms: C_17  and  O_18 
REMARK    8  A    between atoms: C_21  and  O_22 
ROOT
HETATM    1  C   UNL     1      -6.265  -0.186 -32.933  1.00  0.00     0.050 A 
HETATM    2  C   UNL     1      -4.864  -0.146 -32.866  1.00  0.00     0.058 A 
HETATM    3  C   UNL     1      -4.103  -1.134 -33.523  1.00  0.00     0.019 A 
HETATM    4  C   UNL     1      -4.729  -2.164 -34.224  1.00  0.00     0.001 A 
HETATM    5  C   UNL     1      -6.118  -2.236 -34.247  1.00  0.00     0.002 A 
HETATM    6  C   UNL     1      -6.880  -1.262 -33.595  1.00  0.00     0.030 A 
ENDROOT
BRANCH   2   7
HETATM    7  C   UNL     1      -4.120   0.735 -31.925  1.00  0.00     0.253 C 
HETATM    8  N   UNL     1      -3.898   2.017 -32.382  1.00  0.00    -0.356 N 
HETATM    9  H   UNL     1      -4.485   2.362 -33.130  1.00  0.00     0.162 HD
HETATM   10  O   UNL     1      -3.676   0.283 -30.876  1.00  0.00    -0.268 OA
BRANCH   8  11
HETATM   11  C   UNL     1      -3.044   2.953 -31.679  1.00  0.00     0.127 C 
BRANCH  11  12
HETATM   12  C   UNL     1      -2.741   4.224 -32.473  1.00  0.00     0.061 C 
BRANCH  12  13
HETATM   13  C   UNL     1      -1.896   5.182 -31.654  1.00  0.00    -0.023 A 
HETATM   14  C   UNL     1      -2.465   6.241 -30.922  1.00  0.00     0.077 A 
HETATM   15  C   UNL     1      -1.643   7.076 -30.149  1.00  0.00     0.074 A 
HETATM   16  C   UNL     1      -0.263   6.860 -30.094  1.00  0.00     0.070 A 
HETATM   17  C   UNL     1       0.294   5.798 -30.805  1.00  0.00     0.037 A 
HETATM   18  C   UNL     1      -0.512   4.969 -31.582  1.00  0.00     0.013 A 
BRANCH  14  19
HETATM   19  O   UNL     1      -3.827   6.365 -31.016  1.00  0.00    -0.355 OA
HETATM   20  C   UNL     1      -4.610   5.966 -29.900  1.00  0.00     0.210 C 
ENDBRANCH  14  19
BRANCH  16  21
HETATM   21  O   UNL     1       0.639   7.597 -29.374  1.00  0.00    -0.356 OA
HETATM   22  C   UNL     1       0.156   8.236 -28.199  1.00  0.00     0.210 C 
ENDBRANCH  16  21
ENDBRANCH  12  13
ENDBRANCH  11  12
ENDBRANCH   8  11
ENDBRANCH   2   7
BRANCH   1  23
HETATM   23  N   UNL     1      -7.140   0.780 -32.397  1.00  0.00    -0.321 N 
HETATM   24  C   UNL     1      -7.308   2.068 -32.876  1.00  0.00     0.265 C 
HETATM   25  O   UNL     1      -6.749   2.516 -33.873  1.00  0.00    -0.267 OA
HETATM   26  H   UNL     1      -7.889   0.453 -31.796  1.00  0.00     0.169 HD
BRANCH  24  27
HETATM   27  C   UNL     1      -8.391   2.849 -32.144  1.00  0.00     0.097 C 
HETATM   28  C   UNL     1      -9.695   2.749 -32.503  1.00  0.00     0.064 C 
HETATM   29  C   UNL     1     -10.172   1.988 -33.713  1.00  0.00     0.078 C 
HETATM   30  O   UNL     1     -10.760   3.356 -31.852  1.00  0.00    -0.353 OA
HETATM   31  C   UNL     1     -10.527   3.818 -30.522  1.00  0.00     0.185 C 
HETATM   32  C   UNL     1      -9.354   4.773 -30.469  1.00  0.00     0.106 C 
HETATM   33  S   UNL     1      -7.846   3.831 -30.794  1.00  0.00    -0.120 SA
ENDBRANCH  24  27
ENDBRANCH   1  23
TORSDOF 8
ENDMDL
MODEL 8
REMARK VINA RESULT:      -7.2      3.405      7.872
REMARK  8 active torsions:
REMARK  status: ('A' for Active; 'I' for Inactive)
REMARK    1  A    between atoms: C_7  and  C_8 
REMARK       I    between atoms: C_8  and  N_9 
REMARK    2  A    between atoms: N_9  and  C_10 
REMARK    3  A    between atoms: C_11  and  C_12 
REMARK       I    between atoms: C_12  and  N_13 
REMARK    4  A    between atoms: N_13  and  C_14 
REMARK    5  A    between atoms: C_14  and  C_15 
REMARK    6  A    between atoms: C_15  and  C_16 
REMARK    7  A    between atoms: C_17  and  O_18 
REMARK    8  A    between atoms: C_21  and  O_22 
ROOT
HETATM    1  C   UNL     1      -7.719   1.395 -31.460  1.00  0.00     0.050 A 
HETATM    2  C   UNL     1      -8.986   1.649 -32.007  1.00  0.00     0.058 A 
HETATM    3  C   UNL     1      -9.721   2.772 -31.577  1.00  0.00     0.019 A 
HETATM    4  C   UNL     1      -9.209   3.624 -30.598  1.00  0.00     0.001 A 
HETATM    5  C   UNL     1      -7.978   3.342 -30.016  1.00  0.00     0.002 A 
HETATM    6  C   UNL     1      -7.244   2.229 -30.434  1.00  0.00     0.030 A 
ENDROOT
BRANCH   2   7
HETATM    7  C   UNL     1      -9.726   0.662 -32.838  1.00  0.00     0.253 C 
HETATM    8  N   UNL     1     -11.097   0.812 -32.834  1.00  0.00    -0.356 N 
HETATM    9  H   UNL     1     -11.475   1.708 -32.554  1.00  0.00     0.162 HD
HETATM   10  O   UNL     1      -9.128  -0.254 -33.389  1.00  0.00    -0.268 OA
BRANCH   8  11
HETATM   11  C   UNL     1     -11.985  -0.159 -33.441  1.00  0.00     0.127 C 
BRANCH  11  12
HETATM   12  C   UNL     1     -13.264   0.451 -34.014  1.00  0.00     0.061 C 
BRANCH  12  13
HETATM   13  C   UNL     1     -13.046   1.905 -34.390  1.00  0.00    -0.023 A 
HETATM   14  C   UNL     1     -13.360   2.959 -33.510  1.00  0.00     0.077 A 
HETATM   15  C   UNL     1     -13.102   4.285 -33.892  1.00  0.00     0.074 A 
HETATM   16  C   UNL     1     -12.531   4.568 -35.135  1.00  0.00     0.070 A 
HETATM   17  C   UNL     1     -12.204   3.521 -35.995  1.00  0.00     0.037 A 
HETATM   18  C   UNL     1     -12.462   2.201 -35.630  1.00  0.00     0.013 A 
BRANCH  14  19
HETATM   19  O   UNL     1     -13.896   2.587 -32.305  1.00  0.00    -0.355 OA
HETATM   20  C   UNL     1     -15.246   2.941 -32.041  1.00  0.00     0.210 C 
ENDBRANCH  14  19
BRANCH  16  21
HETATM   21  O   UNL     1     -12.227   5.814 -35.616  1.00  0.00    -0.356 OA
HETATM   22  C   UNL     1     -11.983   6.833 -34.655  1.00  0.00     0.210 C 
ENDBRANCH  16  21
ENDBRANCH  12  13
ENDBRANCH  11  12
ENDBRANCH   8  11
ENDBRANCH   2   7
BRANCH   1  23
HETATM   23  N   UNL     1      -6.846   0.362 -31.858  1.00  0.00    -0.321 N 
HETATM   24  C   UNL     1      -5.805   0.491 -32.762  1.00  0.00     0.265 C 
HETATM   25  O   UNL     1      -5.475   1.547 -33.294  1.00  0.00    -0.267 OA
HETATM   26  H   UNL     1      -6.790  -0.460 -31.266  1.00  0.00     0.169 HD
BRANCH  24  27
HETATM   27  C   UNL     1      -4.981  -0.780 -32.922  1.00  0.00     0.097 C 
HETATM   28  C   UNL     1      -3.894  -1.015 -32.147  1.00  0.00     0.064 C 
HETATM   29  C   UNL     1      -3.327  -0.011 -31.176  1.00  0.00     0.078 C 
HETATM   30  O   UNL     1      -3.128  -2.173 -32.161  1.00  0.00    -0.353 OA
HETATM   31  C   UNL     1      -3.714  -3.329 -32.758  1.00  0.00     0.185 C 
HETATM   32  C   UNL     1      -4.152  -3.052 -34.180  1.00  0.00     0.106 C 
HETATM   33  S   UNL     1      -5.560  -1.920 -34.125  1.00  0.00    -0.120 SA
ENDBRANCH  24  27
ENDBRANCH   1  23
TORSDOF 8
ENDMDL
MODEL 9
REMARK VINA RESULT:      -7.1      2.906      5.830
REMARK  8 active torsions:
REMARK  status: ('A' for Active; 'I' for Inactive)
REMARK    1  A    between atoms: C_7  and  C_8 
REMARK       I    between atoms: C_8  and  N_9 
REMARK    2  A    between atoms: N_9  and  C_10 
REMARK    3  A    between atoms: C_11  and  C_12 
REMARK       I    between atoms: C_12  and  N_13 
REMARK    4  A    between atoms: N_13  and  C_14 
REMARK    5  A    between atoms: C_14  and  C_15 
REMARK    6  A    between atoms: C_15  and  C_16 
REMARK    7  A    between atoms: C_17  and  O_18 
REMARK    8  A    between atoms: C_21  and  O_22 
ROOT
HETATM    1  C   UNL     1     -11.507   3.804 -31.997  1.00  0.00     0.050 A 
HETATM    2  C   UNL     1     -11.640   2.955 -33.107  1.00  0.00     0.058 A 
HETATM    3  C   UNL     1     -12.907   2.437 -33.443  1.00  0.00     0.019 A 
HETATM    4  C   UNL     1     -14.028   2.744 -32.672  1.00  0.00     0.001 A 
HETATM    5  C   UNL     1     -13.888   3.541 -31.541  1.00  0.00     0.002 A 
HETATM    6  C   UNL     1     -12.635   4.056 -31.198  1.00  0.00     0.030 A 
ENDROOT
BRANCH   2   7
HETATM    7  C   UNL     1     -10.479   2.352 -33.813  1.00  0.00     0.253 C 
HETATM    8  N   UNL     1     -10.192   1.052 -33.455  1.00  0.00    -0.356 N 
HETATM    9  H   UNL     1     -10.921   0.511 -33.008  1.00  0.00     0.162 HD
HETATM   10  O   UNL     1      -9.801   3.028 -34.578  1.00  0.00    -0.268 OA
BRANCH   8  11
HETATM   11  C   UNL     1      -8.997   0.368 -33.908  1.00  0.00     0.127 C 
BRANCH  11  12
HETATM   12  C   UNL     1      -7.922   0.229 -32.830  1.00  0.00     0.061 C 
BRANCH  12  13
HETATM   13  C   UNL     1      -6.826  -0.718 -33.282  1.00  0.00    -0.023 A 
HETATM   14  C   UNL     1      -5.506  -0.617 -32.802  1.00  0.00     0.077 A 
HETATM   15  C   UNL     1      -4.539  -1.543 -33.221  1.00  0.00     0.074 A 
HETATM   16  C   UNL     1      -4.875  -2.570 -34.107  1.00  0.00     0.070 A 
HETATM   17  C   UNL     1      -6.187  -2.679 -34.566  1.00  0.00     0.037 A 
HETATM   18  C   UNL     1      -7.154  -1.761 -34.162  1.00  0.00     0.013 A 
BRANCH  14  19
HETATM   19  O   UNL     1      -5.271   0.406 -31.921  1.00  0.00    -0.355 OA
HETATM   20  C   UNL     1      -4.260   0.220 -30.940  1.00  0.00     0.210 C 
ENDBRANCH  14  19
BRANCH  16  21
HETATM   21  O   UNL     1      -4.026  -3.534 -34.582  1.00  0.00    -0.356 OA
HETATM   22  C   UNL     1      -3.645  -4.560 -33.675  1.00  0.00     0.210 C 
ENDBRANCH  16  21
ENDBRANCH  12  13
ENDBRANCH  11  12
ENDBRANCH   8  11
ENDBRANCH   2   7
BRANCH   1  23
HETATM   23  N   UNL     1     -10.321   4.455 -31.600  1.00  0.00    -0.321 N 
HETATM   24  C   UNL     1      -9.325   3.904 -30.814  1.00  0.00     0.265 C 
HETATM   25  O   UNL     1      -9.322   2.746 -30.407  1.00  0.00    -0.267 OA
HETATM   26  H   UNL     1     -10.039   5.278 -32.123  1.00  0.00     0.169 HD
BRANCH  24  27
HETATM   27  C   UNL     1      -8.123   4.821 -30.628  1.00  0.00     0.097 C 
HETATM   28  C   UNL     1      -7.073   4.788 -31.484  1.00  0.00     0.064 C 
HETATM   29  C   UNL     1      -6.929   3.774 -32.589  1.00  0.00     0.078 C 
HETATM   30  O   UNL     1      -5.973   5.634 -31.445  1.00  0.00    -0.353 OA
HETATM   31  C   UNL     1      -6.111   6.839 -30.695  1.00  0.00     0.185 C 
HETATM   32  C   UNL     1      -6.519   6.555 -29.266  1.00  0.00     0.106 C 
HETATM   33  S   UNL     1      -8.219   5.941 -29.278  1.00  0.00    -0.120 SA
ENDBRANCH  24  27
ENDBRANCH   1  23
TORSDOF 8
ENDMDL
MODEL 10
REMARK VINA RESULT:      -7.1      2.642      6.769
REMARK  8 active torsions:
REMARK  status: ('A' for Active; 'I' for Inactive)
REMARK    1  A    between atoms: C_7  and  C_8 
REMARK       I    between atoms: C_8  and  N_9 
REMARK    2  A    between atoms: N_9  and  C_10 
REMARK    3  A    between atoms: C_11  and  C_12 
REMARK       I    between atoms: C_12  and  N_13 
REMARK    4  A    between atoms: N_13  and  C_14 
REMARK    5  A    between atoms: C_14  and  C_15 
REMARK    6  A    between atoms: C_15  and  C_16 
REMARK    7  A    between atoms: C_17  and  O_18 
REMARK    8  A    between atoms: C_21  and  O_22 
ROOT
HETATM    1  C   UNL     1      -6.222  -0.500 -33.989  1.00  0.00     0.050 A 
HETATM    2  C   UNL     1      -5.022  -0.448 -33.263  1.00  0.00     0.058 A 
HETATM    3  C   UNL     1      -4.148  -1.554 -33.276  1.00  0.00     0.019 A 
HETATM    4  C   UNL     1      -4.474  -2.709 -33.988  1.00  0.00     0.001 A 
HETATM    5  C   UNL     1      -5.687  -2.781 -34.663  1.00  0.00     0.002 A 
HETATM    6  C   UNL     1      -6.560  -1.691 -34.654  1.00  0.00     0.030 A 
ENDROOT
BRANCH   2   7
HETATM    7  C   UNL     1      -4.722   0.610 -32.262  1.00  0.00     0.253 C 
HETATM    8  N   UNL     1      -3.883   1.610 -32.707  1.00  0.00    -0.356 N 
HETATM    9  H   UNL     1      -3.784   1.736 -33.706  1.00  0.00     0.162 HD
HETATM   10  O   UNL     1      -5.136   0.510 -31.114  1.00  0.00    -0.268 OA
BRANCH   8  11
HETATM   11  C   UNL     1      -3.345   2.623 -31.821  1.00  0.00     0.127 C 
BRANCH  11  12
HETATM   12  C   UNL     1      -2.946   3.915 -32.535  1.00  0.00     0.061 C 
BRANCH  12  13
HETATM   13  C   UNL     1      -2.428   4.940 -31.543  1.00  0.00    -0.023 A 
HETATM   14  C   UNL     1      -3.285   5.850 -30.893  1.00  0.00     0.077 A 
HETATM   15  C   UNL     1      -2.760   6.752 -29.955  1.00  0.00     0.074 A 
HETATM   16  C   UNL     1      -1.395   6.751 -29.654  1.00  0.00     0.070 A 
HETATM   17  C   UNL     1      -0.554   5.836 -30.284  1.00  0.00     0.037 A 
HETATM   18  C   UNL     1      -1.062   4.941 -31.223  1.00  0.00     0.013 A 
BRANCH  14  19
HETATM   19  O   UNL     1      -4.609   5.765 -31.233  1.00  0.00    -0.355 OA
HETATM   20  C   UNL     1      -5.562   5.686 -30.183  1.00  0.00     0.210 C 
ENDBRANCH  14  19
BRANCH  16  21
HETATM   21  O   UNL     1      -0.769   7.573 -28.756  1.00  0.00    -0.356 OA
HETATM   22  C   UNL     1       0.649   7.645 -28.829  1.00  0.00     0.210 C 
ENDBRANCH  16  21
ENDBRANCH  12  13
ENDBRANCH  11  12
ENDBRANCH   8  11
ENDBRANCH   2   7
BRANCH   1  23
HETATM   23  N   UNL     1      -7.141   0.559 -34.131  1.00  0.00    -0.321 N 
HETATM   24  C   UNL     1      -8.135   0.888 -33.226  1.00  0.00     0.265 C 
HETATM   25  O   UNL     1      -8.306   0.327 -32.148  1.00  0.00    -0.267 OA
HETATM   26  H   UNL     1      -6.914   1.294 -34.793  1.00  0.00     0.169 HD
BRANCH  24  27
HETATM   27  C   UNL     1      -8.916   2.138 -33.611  1.00  0.00     0.097 C 
HETATM   28  C   UNL     1      -8.352   3.369 -33.540  1.00  0.00     0.064 C 
HETATM   29  C   UNL     1      -6.988   3.630 -32.956  1.00  0.00     0.078 C 
HETATM   30  O   UNL     1      -8.951   4.555 -33.942  1.00  0.00    -0.353 OA
HETATM   31  C   UNL     1     -10.077   4.449 -34.812  1.00  0.00     0.185 C 
HETATM   32  C   UNL     1     -11.155   3.573 -34.212  1.00  0.00     0.106 C 
HETATM   33  S   UNL     1     -10.551   1.869 -34.194  1.00  0.00    -0.120 SA
ENDBRANCH  24  27
ENDBRANCH   1  23
TORSDOF 8
ENDMDL
