MODEL 1
REMARK VINA RESULT:      -9.8      0.000      0.000
REMARK  5 active torsions:
REMARK  status: ('A' for Active; 'I' for Inactive)
REMARK    1  A    between atoms: C_3  and  O_4 
REMARK    2  A    between atoms: O_4  and  C_5 
REMARK    3  A    between atoms: C_5  and  C_6 
REMARK    4  A    between atoms: C_13  and  N_14 
REMARK       I    between atoms: N_14  and  C_15 
REMARK    5  A    between atoms: C_15  and  C_16 
ROOT
HETATM    1  N   UNL     1      -4.435   3.235 -32.564  1.00  0.00    -0.323 N 
HETATM    2  C   UNL     1      -3.147   3.350 -32.070  1.00  0.00     0.258 C 
HETATM    3  O   UNL     1      -2.600   2.586 -31.283  1.00  0.00    -0.267 OA
HETATM    4  H   UNL     1      -4.699   3.851 -33.320  1.00  0.00     0.169 HD
ENDROOT
BRANCH   1   5
HETATM    5  C   UNL     1      -5.416   2.290 -32.189  1.00  0.00     0.037 A 
HETATM    6  C   UNL     1      -5.831   1.225 -32.991  1.00  0.00     0.066 A 
HETATM    7  C   UNL     1      -6.806   0.322 -32.546  1.00  0.00     0.071 A 
HETATM    8  C   UNL     1      -7.361   0.478 -31.276  1.00  0.00     0.037 A 
HETATM    9  C   UNL     1      -6.952   1.538 -30.465  1.00  0.00     0.005 A 
HETATM   10  C   UNL     1      -5.988   2.438 -30.920  1.00  0.00     0.029 A 
BRANCH   7  11
HETATM   11  O   UNL     1      -7.124  -0.662 -33.442  1.00  0.00    -0.347 OA
BRANCH  11  12
HETATM   12  C   UNL     1      -6.229  -0.868 -34.534  1.00  0.00     0.215 C 
BRANCH  12  13
HETATM   13  C   UNL     1      -5.811  -2.312 -34.563  1.00  0.00    -0.017 A 
HETATM   14  C   UNL     1      -4.522  -2.695 -34.206  1.00  0.00     0.125 A 
HETATM   15  N   UNL     1      -4.092  -3.977 -34.163  1.00  0.00    -0.272 NA
HETATM   16  C   UNL     1      -4.991  -4.929 -34.494  1.00  0.00     0.116 A 
HETATM   17  C   UNL     1      -6.299  -4.659 -34.858  1.00  0.00     0.020 A 
HETATM   18  C   UNL     1      -6.713  -3.331 -34.887  1.00  0.00     0.012 A 
ENDBRANCH  12  13
ENDBRANCH  11  12
ENDBRANCH   7  11
ENDBRANCH   1   5
BRANCH   2  19
HETATM   19  C   UNL     1      -2.361   4.502 -32.603  1.00  0.00     0.059 A 
HETATM   20  C   UNL     1      -1.417   5.135 -31.805  1.00  0.00     0.057 A 
HETATM   21  C   UNL     1      -0.646   6.203 -32.264  1.00  0.00    -0.022 A 
HETATM   22  N   UNL     1      -1.068   4.860 -30.487  1.00  0.00    -0.325 N 
HETATM   23  C   UNL     1       0.278   6.663 -31.174  1.00  0.00     0.144 A 
HETATM   24  C   UNL     1      -0.804   6.694 -33.548  1.00  0.00     0.010 A 
HETATM   25  C   UNL     1      -0.082   5.718 -30.023  1.00  0.00     0.226 A 
HETATM   26  O   UNL     1       0.407   5.721 -28.906  1.00  0.00    -0.273 OA
HETATM   27  C   UNL     1      -1.767   6.094 -34.364  1.00  0.00     0.002 A 
HETATM   28  C   UNL     1      -2.544   5.014 -33.898  1.00  0.00     0.019 A 
HETATM   29  H   UNL     1      -1.527   4.152 -29.923  1.00  0.00     0.169 HD
ENDBRANCH   2  19
TORSDOF 5
ENDMDL
MODEL 2
REMARK VINA RESULT:      -8.8      2.134      9.625
REMARK  5 active torsions:
REMARK  status: ('A' for Active; 'I' for Inactive)
REMARK    1  A    between atoms: C_3  and  O_4 
REMARK    2  A    between atoms: O_4  and  C_5 
REMARK    3  A    between atoms: C_5  and  C_6 
REMARK    4  A    between atoms: C_13  and  N_14 
REMARK       I    between atoms: N_14  and  C_15 
REMARK    5  A    between atoms: C_15  and  C_16 
ROOT
HETATM    1  N   UNL     1      -4.207   3.142 -32.715  1.00  0.00    -0.323 N 
HETATM    2  C   UNL     1      -4.253   1.775 -32.501  1.00  0.00     0.258 C 
HETATM    3  O   UNL     1      -3.325   1.068 -32.125  1.00  0.00    -0.267 OA
HETATM    4  H   UNL     1      -5.084   3.616 -32.877  1.00  0.00     0.169 HD
ENDROOT
BRANCH   1   5
HETATM    5  C   UNL     1      -3.073   3.983 -32.654  1.00  0.00     0.037 A 
HETATM    6  C   UNL     1      -2.397   4.307 -31.476  1.00  0.00     0.066 A 
HETATM    7  C   UNL     1      -1.273   5.144 -31.496  1.00  0.00     0.071 A 
HETATM    8  C   UNL     1      -0.811   5.648 -32.711  1.00  0.00     0.037 A 
HETATM    9  C   UNL     1      -1.478   5.329 -33.894  1.00  0.00     0.005 A 
HETATM   10  C   UNL     1      -2.602   4.503 -33.865  1.00  0.00     0.029 A 
BRANCH   7  11
HETATM   11  O   UNL     1      -0.721   5.387 -30.267  1.00  0.00    -0.347 OA
BRANCH  11  12
HETATM   12  C   UNL     1       0.354   6.322 -30.204  1.00  0.00     0.215 C 
BRANCH  12  13
HETATM   13  C   UNL     1       0.462   6.856 -28.802  1.00  0.00    -0.017 A 
HETATM   14  C   UNL     1      -0.038   6.140 -27.720  1.00  0.00     0.125 A 
HETATM   15  N   UNL     1       0.067   6.536 -26.430  1.00  0.00    -0.272 NA
HETATM   16  C   UNL     1       0.702   7.707 -26.206  1.00  0.00     0.116 A 
HETATM   17  C   UNL     1       1.241   8.494 -27.209  1.00  0.00     0.020 A 
HETATM   18  C   UNL     1       1.122   8.058 -28.524  1.00  0.00     0.012 A 
ENDBRANCH  12  13
ENDBRANCH  11  12
ENDBRANCH   7  11
ENDBRANCH   1   5
BRANCH   2  19
HETATM   19  C   UNL     1      -5.586   1.141 -32.713  1.00  0.00     0.059 A 
HETATM   20  C   UNL     1      -5.680  -0.117 -33.295  1.00  0.00     0.057 A 
HETATM   21  C   UNL     1      -6.902  -0.758 -33.498  1.00  0.00    -0.022 A 
HETATM   22  N   UNL     1      -4.657  -0.937 -33.760  1.00  0.00    -0.325 N 
HETATM   23  C   UNL     1      -6.669  -2.095 -34.139  1.00  0.00     0.144 A 
HETATM   24  C   UNL     1      -8.092  -0.151 -33.138  1.00  0.00     0.010 A 
HETATM   25  C   UNL     1      -5.144  -2.124 -34.287  1.00  0.00     0.226 A 
HETATM   26  O   UNL     1      -4.483  -3.023 -34.778  1.00  0.00    -0.273 OA
HETATM   27  C   UNL     1      -8.030   1.127 -32.576  1.00  0.00     0.002 A 
HETATM   28  C   UNL     1      -6.793   1.772 -32.370  1.00  0.00     0.019 A 
HETATM   29  H   UNL     1      -3.679  -0.666 -33.762  1.00  0.00     0.169 HD
ENDBRANCH   2  19
TORSDOF 5
ENDMDL
MODEL 3
REMARK VINA RESULT:      -8.8      2.194      2.581
REMARK  5 active torsions:
REMARK  status: ('A' for Active; 'I' for Inactive)
REMARK    1  A    between atoms: C_3  and  O_4 
REMARK    2  A    between atoms: O_4  and  C_5 
REMARK    3  A    between atoms: C_5  and  C_6 
REMARK    4  A    between atoms: C_13  and  N_14 
REMARK       I    between atoms: N_14  and  C_15 
REMARK    5  A    between atoms: C_15  and  C_16 
ROOT
HETATM    1  N   UNL     1      -3.115   3.225 -30.960  1.00  0.00    -0.323 N 
HETATM    2  C   UNL     1      -2.860   4.157 -31.951  1.00  0.00     0.258 C 
HETATM    3  O   UNL     1      -3.427   4.238 -33.035  1.00  0.00    -0.267 OA
HETATM    4  H   UNL     1      -2.678   3.372 -30.061  1.00  0.00     0.169 HD
ENDROOT
BRANCH   1   5
HETATM    5  C   UNL     1      -3.991   2.118 -31.027  1.00  0.00     0.037 A 
HETATM    6  C   UNL     1      -3.664   0.889 -31.603  1.00  0.00     0.066 A 
HETATM    7  C   UNL     1      -4.586  -0.166 -31.625  1.00  0.00     0.071 A 
HETATM    8  C   UNL     1      -5.844   0.007 -31.050  1.00  0.00     0.037 A 
HETATM    9  C   UNL     1      -6.181   1.230 -30.469  1.00  0.00     0.005 A 
HETATM   10  C   UNL     1      -5.261   2.279 -30.460  1.00  0.00     0.029 A 
BRANCH   7  11
HETATM   11  O   UNL     1      -4.134  -1.305 -32.234  1.00  0.00    -0.347 OA
BRANCH  11  12
HETATM   12  C   UNL     1      -4.107  -1.320 -33.660  1.00  0.00     0.215 C 
BRANCH  12  13
HETATM   13  C   UNL     1      -4.832  -2.541 -34.155  1.00  0.00    -0.017 A 
HETATM   14  C   UNL     1      -4.231  -3.795 -34.129  1.00  0.00     0.125 A 
HETATM   15  N   UNL     1      -4.840  -4.941 -34.513  1.00  0.00    -0.272 NA
HETATM   16  C   UNL     1      -6.114  -4.833 -34.946  1.00  0.00     0.116 A 
HETATM   17  C   UNL     1      -6.808  -3.637 -35.007  1.00  0.00     0.020 A 
HETATM   18  C   UNL     1      -6.157  -2.477 -34.601  1.00  0.00     0.012 A 
ENDBRANCH  12  13
ENDBRANCH  11  12
ENDBRANCH   7  11
ENDBRANCH   1   5
BRANCH   2  19
HETATM   19  C   UNL     1      -1.821   5.175 -31.617  1.00  0.00     0.059 A 
HETATM   20  C   UNL     1      -2.171   6.510 -31.464  1.00  0.00     0.057 A 
HETATM   21  C   UNL     1      -1.239   7.494 -31.136  1.00  0.00    -0.022 A 
HETATM   22  N   UNL     1      -3.424   7.100 -31.594  1.00  0.00    -0.325 N 
HETATM   23  C   UNL     1      -1.925   8.826 -31.039  1.00  0.00     0.144 A 
HETATM   24  C   UNL     1       0.097   7.179 -30.961  1.00  0.00     0.010 A 
HETATM   25  C   UNL     1      -3.377   8.469 -31.373  1.00  0.00     0.226 A 
HETATM   26  O   UNL     1      -4.316   9.244 -31.434  1.00  0.00    -0.273 OA
HETATM   27  C   UNL     1       0.483   5.847 -31.138  1.00  0.00     0.002 A 
HETATM   28  C   UNL     1      -0.462   4.854 -31.468  1.00  0.00     0.019 A 
HETATM   29  H   UNL     1      -4.256   6.591 -31.876  1.00  0.00     0.169 HD
ENDBRANCH   2  19
TORSDOF 5
ENDMDL
MODEL 4
REMARK VINA RESULT:      -8.6      5.115      8.800
REMARK  5 active torsions:
REMARK  status: ('A' for Active; 'I' for Inactive)
REMARK    1  A    between atoms: C_3  and  O_4 
REMARK    2  A    between atoms: O_4  and  C_5 
REMARK    3  A    between atoms: C_5  and  C_6 
REMARK    4  A    between atoms: C_13  and  N_14 
REMARK       I    between atoms: N_14  and  C_15 
REMARK    5  A    between atoms: C_15  and  C_16 
ROOT
HETATM    1  N   UNL     1     -10.493   1.333 -32.560  1.00  0.00    -0.323 N 
HETATM    2  C   UNL     1     -11.171   1.631 -33.729  1.00  0.00     0.258 C 
HETATM    3  O   UNL     1     -10.666   1.927 -34.807  1.00  0.00    -0.267 OA
HETATM    4  H   UNL     1     -11.034   0.960 -31.792  1.00  0.00     0.169 HD
ENDROOT
BRANCH   1   5
HETATM    5  C   UNL     1      -9.101   1.411 -32.331  1.00  0.00     0.037 A 
HETATM    6  C   UNL     1      -8.221   0.334 -32.457  1.00  0.00     0.066 A 
HETATM    7  C   UNL     1      -6.848   0.492 -32.220  1.00  0.00     0.071 A 
HETATM    8  C   UNL     1      -6.350   1.746 -31.869  1.00  0.00     0.037 A 
HETATM    9  C   UNL     1      -7.220   2.829 -31.743  1.00  0.00     0.005 A 
HETATM   10  C   UNL     1      -8.586   2.662 -31.970  1.00  0.00     0.029 A 
BRANCH   7  11
HETATM   11  O   UNL     1      -6.110  -0.651 -32.367  1.00  0.00    -0.347 OA
BRANCH  11  12
HETATM   12  C   UNL     1      -5.353  -0.793 -33.568  1.00  0.00     0.215 C 
BRANCH  12  13
HETATM   13  C   UNL     1      -5.487  -2.203 -34.072  1.00  0.00    -0.017 A 
HETATM   14  C   UNL     1      -4.406  -3.078 -34.059  1.00  0.00     0.125 A 
HETATM   15  N   UNL     1      -4.467  -4.371 -34.452  1.00  0.00    -0.272 NA
HETATM   16  C   UNL     1      -5.667  -4.817 -34.882  1.00  0.00     0.116 A 
HETATM   17  C   UNL     1      -6.807  -4.034 -34.931  1.00  0.00     0.020 A 
HETATM   18  C   UNL     1      -6.714  -2.709 -34.515  1.00  0.00     0.012 A 
ENDBRANCH  12  13
ENDBRANCH  11  12
ENDBRANCH   7  11
ENDBRANCH   1   5
BRANCH   2  19
HETATM   19  C   UNL     1     -12.657   1.529 -33.648  1.00  0.00     0.059 A 
HETATM   20  C   UNL     1     -13.371   2.351 -32.785  1.00  0.00     0.057 A 
HETATM   21  C   UNL     1     -14.762   2.304 -32.687  1.00  0.00    -0.022 A 
HETATM   22  N   UNL     1     -12.888   3.316 -31.908  1.00  0.00    -0.325 N 
HETATM   23  C   UNL     1     -15.230   3.311 -31.678  1.00  0.00     0.144 A 
HETATM   24  C   UNL     1     -15.498   1.413 -33.446  1.00  0.00     0.010 A 
HETATM   25  C   UNL     1     -13.912   3.929 -31.200  1.00  0.00     0.226 A 
HETATM   26  O   UNL     1     -13.786   4.799 -30.355  1.00  0.00    -0.273 OA
HETATM   27  C   UNL     1     -14.805   0.553 -34.303  1.00  0.00     0.002 A 
HETATM   28  C   UNL     1     -13.399   0.603 -34.401  1.00  0.00     0.019 A 
HETATM   29  H   UNL     1     -11.900   3.500 -31.766  1.00  0.00     0.169 HD
ENDBRANCH   2  19
TORSDOF 5
ENDMDL
MODEL 5
REMARK VINA RESULT:      -8.6      2.328      8.683
REMARK  5 active torsions:
REMARK  status: ('A' for Active; 'I' for Inactive)
REMARK    1  A    between atoms: C_3  and  O_4 
REMARK    2  A    between atoms: O_4  and  C_5 
REMARK    3  A    between atoms: C_5  and  C_6 
REMARK    4  A    between atoms: C_13  and  N_14 
REMARK       I    between atoms: N_14  and  C_15 
REMARK    5  A    between atoms: C_15  and  C_16 
ROOT
HETATM    1  N   UNL     1      -5.123   0.913 -33.033  1.00  0.00    -0.323 N 
HETATM    2  C   UNL     1      -5.362  -0.246 -33.750  1.00  0.00     0.258 C 
HETATM    3  O   UNL     1      -6.086  -0.356 -34.733  1.00  0.00    -0.267 OA
HETATM    4  H   UNL     1      -4.388   0.888 -32.341  1.00  0.00     0.169 HD
ENDROOT
BRANCH   1   5
HETATM    5  C   UNL     1      -5.737   2.173 -33.210  1.00  0.00     0.037 A 
HETATM    6  C   UNL     1      -5.077   3.313 -33.675  1.00  0.00     0.066 A 
HETATM    7  C   UNL     1      -5.757   4.528 -33.832  1.00  0.00     0.071 A 
HETATM    8  C   UNL     1      -7.117   4.599 -33.535  1.00  0.00     0.037 A 
HETATM    9  C   UNL     1      -7.787   3.467 -33.072  1.00  0.00     0.005 A 
HETATM   10  C   UNL     1      -7.101   2.263 -32.909  1.00  0.00     0.029 A 
BRANCH   7  11
HETATM   11  O   UNL     1      -4.981   5.561 -34.281  1.00  0.00    -0.347 OA
BRANCH  11  12
HETATM   12  C   UNL     1      -3.700   5.235 -34.818  1.00  0.00     0.215 C 
BRANCH  12  13
HETATM   13  C   UNL     1      -2.632   5.721 -33.878  1.00  0.00    -0.017 A 
HETATM   14  C   UNL     1      -1.857   4.827 -33.146  1.00  0.00     0.125 A 
HETATM   15  N   UNL     1      -0.849   5.190 -32.320  1.00  0.00    -0.272 NA
HETATM   16  C   UNL     1      -0.600   6.514 -32.216  1.00  0.00     0.116 A 
HETATM   17  C   UNL     1      -1.305   7.487 -32.903  1.00  0.00     0.020 A 
HETATM   18  C   UNL     1      -2.332   7.081 -33.749  1.00  0.00     0.012 A 
ENDBRANCH  12  13
ENDBRANCH  11  12
ENDBRANCH   7  11
ENDBRANCH   1   5
BRANCH   2  19
HETATM   19  C   UNL     1      -4.615  -1.451 -33.282  1.00  0.00     0.059 A 
HETATM   20  C   UNL     1      -4.886  -2.699 -33.827  1.00  0.00     0.057 A 
HETATM   21  C   UNL     1      -4.202  -3.850 -33.434  1.00  0.00    -0.022 A 
HETATM   22  N   UNL     1      -5.819  -3.038 -34.801  1.00  0.00    -0.325 N 
HETATM   23  C   UNL     1      -4.719  -5.030 -34.205  1.00  0.00     0.144 A 
HETATM   24  C   UNL     1      -3.222  -3.798 -32.460  1.00  0.00     0.010 A 
HETATM   25  C   UNL     1      -5.804  -4.396 -35.083  1.00  0.00     0.226 A 
HETATM   26  O   UNL     1      -6.519  -4.978 -35.880  1.00  0.00    -0.273 OA
HETATM   27  C   UNL     1      -2.949  -2.559 -31.873  1.00  0.00     0.002 A 
HETATM   28  C   UNL     1      -3.640  -1.397 -32.273  1.00  0.00     0.019 A 
HETATM   29  H   UNL     1      -6.471  -2.374 -35.208  1.00  0.00     0.169 HD
ENDBRANCH   2  19
TORSDOF 5
ENDMDL
MODEL 6
REMARK VINA RESULT:      -8.6      4.085      8.790
REMARK  5 active torsions:
REMARK  status: ('A' for Active; 'I' for Inactive)
REMARK    1  A    between atoms: C_3  and  O_4 
REMARK    2  A    between atoms: O_4  and  C_5 
REMARK    3  A    between atoms: C_5  and  C_6 
REMARK    4  A    between atoms: C_13  and  N_14 
REMARK       I    between atoms: N_14  and  C_15 
REMARK    5  A    between atoms: C_15  and  C_16 
ROOT
HETATM    1  N   UNL     1      -8.442   0.558 -33.998  1.00  0.00    -0.323 N 
HETATM    2  C   UNL     1      -9.449   0.812 -33.083  1.00  0.00     0.258 C 
HETATM    3  O   UNL     1      -9.334   0.833 -31.863  1.00  0.00    -0.267 OA
HETATM    4  H   UNL     1      -8.648   0.724 -34.973  1.00  0.00     0.169 HD
ENDROOT
BRANCH   1   5
HETATM    5  C   UNL     1      -7.112   0.168 -33.723  1.00  0.00     0.037 A 
HETATM    6  C   UNL     1      -6.155   0.995 -33.130  1.00  0.00     0.066 A 
HETATM    7  C   UNL     1      -4.855   0.533 -32.882  1.00  0.00     0.071 A 
HETATM    8  C   UNL     1      -4.514  -0.777 -33.217  1.00  0.00     0.037 A 
HETATM    9  C   UNL     1      -5.463  -1.612 -33.808  1.00  0.00     0.005 A 
HETATM   10  C   UNL     1      -6.751  -1.142 -34.061  1.00  0.00     0.029 A 
BRANCH   7  11
HETATM   11  O   UNL     1      -4.022   1.455 -32.310  1.00  0.00    -0.347 OA
BRANCH  11  12
HETATM   12  C   UNL     1      -4.551   2.759 -32.071  1.00  0.00     0.215 C 
BRANCH  12  13
HETATM   13  C   UNL     1      -3.913   3.732 -33.023  1.00  0.00    -0.017 A 
HETATM   14  C   UNL     1      -4.685   4.528 -33.863  1.00  0.00     0.125 A 
HETATM   15  N   UNL     1      -4.182   5.458 -34.707  1.00  0.00    -0.272 NA
HETATM   16  C   UNL     1      -2.839   5.602 -34.718  1.00  0.00     0.116 A 
HETATM   17  C   UNL     1      -1.979   4.867 -33.920  1.00  0.00     0.020 A 
HETATM   18  C   UNL     1      -2.527   3.923 -33.058  1.00  0.00     0.012 A 
ENDBRANCH  12  13
ENDBRANCH  11  12
ENDBRANCH   7  11
ENDBRANCH   1   5
BRANCH   2  19
HETATM   19  C   UNL     1     -10.781   1.131 -33.675  1.00  0.00     0.059 A 
HETATM   20  C   UNL     1     -10.975   2.320 -34.366  1.00  0.00     0.057 A 
HETATM   21  C   UNL     1     -12.197   2.654 -34.951  1.00  0.00    -0.022 A 
HETATM   22  N   UNL     1     -10.066   3.345 -34.603  1.00  0.00    -0.325 N 
HETATM   23  C   UNL     1     -12.085   3.991 -35.623  1.00  0.00     0.144 A 
HETATM   24  C   UNL     1     -13.288   1.809 -34.851  1.00  0.00     0.010 A 
HETATM   25  C   UNL     1     -10.633   4.383 -35.329  1.00  0.00     0.226 A 
HETATM   26  O   UNL     1     -10.080   5.414 -35.669  1.00  0.00    -0.273 OA
HETATM   27  C   UNL     1     -13.130   0.618 -34.136  1.00  0.00     0.002 A 
HETATM   28  C   UNL     1     -11.893   0.282 -33.548  1.00  0.00     0.019 A 
HETATM   29  H   UNL     1      -9.120   3.351 -34.234  1.00  0.00     0.169 HD
ENDBRANCH   2  19
TORSDOF 5
ENDMDL
MODEL 7
REMARK VINA RESULT:      -8.6      2.631      4.081
REMARK  5 active torsions:
REMARK  status: ('A' for Active; 'I' for Inactive)
REMARK    1  A    between atoms: C_3  and  O_4 
REMARK    2  A    between atoms: O_4  and  C_5 
REMARK    3  A    between atoms: C_5  and  C_6 
REMARK    4  A    between atoms: C_13  and  N_14 
REMARK       I    between atoms: N_14  and  C_15 
REMARK    5  A    between atoms: C_15  and  C_16 
ROOT
HETATM    1  N   UNL     1      -4.115   2.867 -32.886  1.00  0.00    -0.323 N 
HETATM    2  C   UNL     1      -3.007   3.246 -32.148  1.00  0.00     0.258 C 
HETATM    3  O   UNL     1      -2.551   2.663 -31.170  1.00  0.00    -0.267 OA
HETATM    4  H   UNL     1      -4.284   3.356 -33.753  1.00  0.00     0.169 HD
ENDROOT
BRANCH   1   5
HETATM    5  C   UNL     1      -5.007   1.806 -32.611  1.00  0.00     0.037 A 
HETATM    6  C   UNL     1      -6.353   1.975 -32.281  1.00  0.00     0.066 A 
HETATM    7  C   UNL     1      -7.178   0.870 -32.028  1.00  0.00     0.071 A 
HETATM    8  C   UNL     1      -6.653  -0.418 -32.123  1.00  0.00     0.037 A 
HETATM    9  C   UNL     1      -5.310  -0.598 -32.454  1.00  0.00     0.005 A 
HETATM   10  C   UNL     1      -4.493   0.506 -32.694  1.00  0.00     0.029 A 
BRANCH   7  11
HETATM   11  O   UNL     1      -8.469   1.186 -31.703  1.00  0.00    -0.347 OA
BRANCH  11  12
HETATM   12  C   UNL     1      -9.502   0.365 -32.244  1.00  0.00     0.215 C 
BRANCH  12  13
HETATM   13  C   UNL     1     -10.321   1.173 -33.213  1.00  0.00    -0.017 A 
HETATM   14  C   UNL     1      -9.838   2.366 -33.741  1.00  0.00     0.125 A 
HETATM   15  N   UNL     1     -10.498   3.119 -34.652  1.00  0.00    -0.272 NA
HETATM   16  C   UNL     1     -11.702   2.660 -35.057  1.00  0.00     0.116 A 
HETATM   17  C   UNL     1     -12.272   1.484 -34.600  1.00  0.00     0.020 A 
HETATM   18  C   UNL     1     -11.567   0.730 -33.668  1.00  0.00     0.012 A 
ENDBRANCH  12  13
ENDBRANCH  11  12
ENDBRANCH   7  11
ENDBRANCH   1   5
BRANCH   2  19
HETATM   19  C   UNL     1      -2.297   4.461 -32.643  1.00  0.00     0.059 A 
HETATM   20  C   UNL     1      -1.477   5.191 -31.791  1.00  0.00     0.057 A 
HETATM   21  C   UNL     1      -0.780   6.323 -32.213  1.00  0.00    -0.022 A 
HETATM   22  N   UNL     1      -1.202   4.965 -30.447  1.00  0.00    -0.325 N 
HETATM   23  C   UNL     1       0.015   6.881 -31.068  1.00  0.00     0.144 A 
HETATM   24  C   UNL     1      -0.888   6.782 -33.513  1.00  0.00     0.010 A 
HETATM   25  C   UNL     1      -0.339   5.919 -29.928  1.00  0.00     0.226 A 
HETATM   26  O   UNL     1       0.065   5.981 -28.779  1.00  0.00    -0.273 OA
HETATM   27  C   UNL     1      -1.728   6.084 -34.385  1.00  0.00     0.002 A 
HETATM   28  C   UNL     1      -2.431   4.939 -33.957  1.00  0.00     0.019 A 
HETATM   29  H   UNL     1      -1.633   4.223 -29.904  1.00  0.00     0.169 HD
ENDBRANCH   2  19
TORSDOF 5
ENDMDL
MODEL 8
REMARK VINA RESULT:      -8.5      4.549      8.291
REMARK  5 active torsions:
REMARK  status: ('A' for Active; 'I' for Inactive)
REMARK    1  A    between atoms: C_3  and  O_4 
REMARK    2  A    between atoms: O_4  and  C_5 
REMARK    3  A    between atoms: C_5  and  C_6 
REMARK    4  A    between atoms: C_13  and  N_14 
REMARK       I    between atoms: N_14  and  C_15 
REMARK    5  A    between atoms: C_15  and  C_16 
ROOT
HETATM    1  N   UNL     1      -5.986   1.086 -33.214  1.00  0.00    -0.323 N 
HETATM    2  C   UNL     1      -5.860  -0.068 -33.967  1.00  0.00     0.258 C 
HETATM    3  O   UNL     1      -6.401  -0.297 -35.043  1.00  0.00    -0.267 OA
HETATM    4  H   UNL     1      -5.364   1.196 -32.425  1.00  0.00     0.169 HD
ENDROOT
BRANCH   1   5
HETATM    5  C   UNL     1      -6.837   2.185 -33.465  1.00  0.00     0.037 A 
HETATM    6  C   UNL     1      -8.232   2.124 -33.432  1.00  0.00     0.066 A 
HETATM    7  C   UNL     1      -9.011   3.262 -33.685  1.00  0.00     0.071 A 
HETATM    8  C   UNL     1      -8.385   4.478 -33.959  1.00  0.00     0.037 A 
HETATM    9  C   UNL     1      -6.992   4.550 -33.992  1.00  0.00     0.005 A 
HETATM   10  C   UNL     1      -6.225   3.411 -33.749  1.00  0.00     0.029 A 
BRANCH   7  11
HETATM   11  O   UNL     1     -10.362   3.051 -33.633  1.00  0.00    -0.347 OA
BRANCH  11  12
HETATM   12  C   UNL     1     -10.872   1.896 -34.297  1.00  0.00     0.215 C 
BRANCH  12  13
HETATM   13  C   UNL     1     -12.314   1.705 -33.918  1.00  0.00    -0.017 A 
HETATM   14  C   UNL     1     -12.946   2.573 -33.033  1.00  0.00     0.125 A 
HETATM   15  N   UNL     1     -14.251   2.490 -32.685  1.00  0.00    -0.272 NA
HETATM   16  C   UNL     1     -14.965   1.490 -33.247  1.00  0.00     0.116 A 
HETATM   17  C   UNL     1     -14.437   0.577 -34.143  1.00  0.00     0.020 A 
HETATM   18  C   UNL     1     -13.094   0.691 -34.485  1.00  0.00     0.012 A 
ENDBRANCH  12  13
ENDBRANCH  11  12
ENDBRANCH   7  11
ENDBRANCH   1   5
BRANCH   2  19
HETATM   19  C   UNL     1      -4.932  -1.095 -33.409  1.00  0.00     0.059 A 
HETATM   20  C   UNL     1      -5.007  -2.415 -33.837  1.00  0.00     0.057 A 
HETATM   21  C   UNL     1      -4.150  -3.406 -33.357  1.00  0.00    -0.022 A 
HETATM   22  N   UNL     1      -5.881  -2.980 -34.759  1.00  0.00    -0.325 N 
HETATM   23  C   UNL     1      -4.480  -4.716 -34.011  1.00  0.00     0.144 A 
HETATM   24  C   UNL     1      -3.186  -3.115 -32.410  1.00  0.00     0.010 A 
HETATM   25  C   UNL     1      -5.655  -4.340 -34.920  1.00  0.00     0.226 A 
HETATM   26  O   UNL     1      -6.275  -5.094 -35.649  1.00  0.00    -0.273 OA
HETATM   27  C   UNL     1      -3.106  -1.801 -31.940  1.00  0.00     0.002 A 
HETATM   28  C   UNL     1      -3.971  -0.800 -32.427  1.00  0.00     0.019 A 
HETATM   29  H   UNL     1      -6.630  -2.464 -35.210  1.00  0.00     0.169 HD
ENDBRANCH   2  19
TORSDOF 5
ENDMDL
MODEL 9
REMARK VINA RESULT:      -8.5      2.222      8.476
REMARK  5 active torsions:
REMARK  status: ('A' for Active; 'I' for Inactive)
REMARK    1  A    between atoms: C_3  and  O_4 
REMARK    2  A    between atoms: O_4  and  C_5 
REMARK    3  A    between atoms: C_5  and  C_6 
REMARK    4  A    between atoms: C_13  and  N_14 
REMARK       I    between atoms: N_14  and  C_15 
REMARK    5  A    between atoms: C_15  and  C_16 
ROOT
HETATM    1  N   UNL     1      -5.126   3.378 -33.515  1.00  0.00    -0.323 N 
HETATM    2  C   UNL     1      -5.414   2.248 -32.770  1.00  0.00     0.258 C 
HETATM    3  O   UNL     1      -5.353   2.146 -31.550  1.00  0.00    -0.267 OA
HETATM    4  H   UNL     1      -5.365   3.361 -34.496  1.00  0.00     0.169 HD
ENDROOT
BRANCH   1   5
HETATM    5  C   UNL     1      -4.603   4.604 -33.045  1.00  0.00     0.037 A 
HETATM    6  C   UNL     1      -3.289   5.029 -33.248  1.00  0.00     0.066 A 
HETATM    7  C   UNL     1      -2.845   6.265 -32.757  1.00  0.00     0.071 A 
HETATM    8  C   UNL     1      -3.733   7.091 -32.069  1.00  0.00     0.037 A 
HETATM    9  C   UNL     1      -5.049   6.678 -31.863  1.00  0.00     0.005 A 
HETATM   10  C   UNL     1      -5.480   5.442 -32.346  1.00  0.00     0.029 A 
BRANCH   7  11
HETATM   11  O   UNL     1      -1.531   6.543 -33.018  1.00  0.00    -0.347 OA
BRANCH  11  12
HETATM   12  C   UNL     1      -0.846   7.393 -32.100  1.00  0.00     0.215 C 
BRANCH  12  13
HETATM   13  C   UNL     1      -0.268   6.559 -30.991  1.00  0.00    -0.017 A 
HETATM   14  C   UNL     1       0.317   5.324 -31.250  1.00  0.00     0.125 A 
HETATM   15  N   UNL     1       0.898   4.543 -30.310  1.00  0.00    -0.272 NA
HETATM   16  C   UNL     1       0.896   5.016 -29.045  1.00  0.00     0.116 A 
HETATM   17  C   UNL     1       0.347   6.233 -28.679  1.00  0.00     0.020 A 
HETATM   18  C   UNL     1      -0.239   7.015 -29.669  1.00  0.00     0.012 A 
ENDBRANCH  12  13
ENDBRANCH  11  12
ENDBRANCH   7  11
ENDBRANCH   1   5
BRANCH   2  19
HETATM   19  C   UNL     1      -5.884   1.070 -33.556  1.00  0.00     0.059 A 
HETATM   20  C   UNL     1      -5.285  -0.172 -33.386  1.00  0.00     0.057 A 
HETATM   21  C   UNL     1      -5.702  -1.305 -34.085  1.00  0.00    -0.022 A 
HETATM   22  N   UNL     1      -4.229  -0.519 -32.550  1.00  0.00    -0.325 N 
HETATM   23  C   UNL     1      -4.864  -2.483 -33.680  1.00  0.00     0.144 A 
HETATM   24  C   UNL     1      -6.735  -1.235 -35.002  1.00  0.00     0.010 A 
HETATM   25  C   UNL     1      -3.900  -1.862 -32.663  1.00  0.00     0.226 A 
HETATM   26  O   UNL     1      -3.010  -2.441 -32.064  1.00  0.00    -0.273 OA
HETATM   27  C   UNL     1      -7.338   0.008 -35.215  1.00  0.00     0.002 A 
HETATM   28  C   UNL     1      -6.916   1.151 -34.506  1.00  0.00     0.019 A 
HETATM   29  H   UNL     1      -3.727   0.150 -31.975  1.00  0.00     0.169 HD
ENDBRANCH   2  19
TORSDOF 5
ENDMDL
MODEL 10
REMARK VINA RESULT:      -8.4      2.452      9.734
REMARK  5 active torsions:
REMARK  status: ('A' for Active; 'I' for Inactive)
REMARK    1  A    between atoms: C_3  and  O_4 
REMARK    2  A    between atoms: O_4  and  C_5 
REMARK    3  A    between atoms: C_5  and  C_6 
REMARK    4  A    between atoms: C_13  and  N_14 
REMARK       I    between atoms: N_14  and  C_15 
REMARK    5  A    between atoms: C_15  and  C_16 
ROOT
HETATM    1  N   UNL     1      -2.653   3.223 -32.781  1.00  0.00    -0.323 N 
HETATM    2  C   UNL     1      -3.830   2.780 -32.204  1.00  0.00     0.258 C 
HETATM    3  O   UNL     1      -4.696   3.481 -31.691  1.00  0.00    -0.267 OA
HETATM    4  H   UNL     1      -2.107   2.548 -33.298  1.00  0.00     0.169 HD
ENDROOT
BRANCH   1   5
HETATM    5  C   UNL     1      -2.153   4.544 -32.806  1.00  0.00     0.037 A 
HETATM    6  C   UNL     1      -1.510   5.163 -31.732  1.00  0.00     0.066 A 
HETATM    7  C   UNL     1      -1.035   6.478 -31.836  1.00  0.00     0.071 A 
HETATM    8  C   UNL     1      -1.190   7.174 -33.034  1.00  0.00     0.037 A 
HETATM    9  C   UNL     1      -1.829   6.564 -34.114  1.00  0.00     0.005 A 
HETATM   10  C   UNL     1      -2.309   5.259 -34.000  1.00  0.00     0.029 A 
BRANCH   7  11
HETATM   11  O   UNL     1      -0.440   6.959 -30.702  1.00  0.00    -0.347 OA
BRANCH  11  12
HETATM   12  C   UNL     1      -1.210   6.948 -29.501  1.00  0.00     0.215 C 
BRANCH  12  13
HETATM   13  C   UNL     1      -0.383   7.509 -28.378  1.00  0.00    -0.017 A 
HETATM   14  C   UNL     1      -0.825   7.452 -27.061  1.00  0.00     0.125 A 
HETATM   15  N   UNL     1      -0.113   7.892 -25.997  1.00  0.00    -0.272 NA
HETATM   16  C   UNL     1       1.102   8.419 -26.259  1.00  0.00     0.116 A 
HETATM   17  C   UNL     1       1.640   8.519 -27.531  1.00  0.00     0.020 A 
HETATM   18  C   UNL     1       0.887   8.053 -28.603  1.00  0.00     0.012 A 
ENDBRANCH  12  13
ENDBRANCH  11  12
ENDBRANCH   7  11
ENDBRANCH   1   5
BRANCH   2  19
HETATM   19  C   UNL     1      -4.057   1.307 -32.268  1.00  0.00     0.059 A 
HETATM   20  C   UNL     1      -5.125   0.793 -32.993  1.00  0.00     0.057 A 
HETATM   21  C   UNL     1      -5.368  -0.577 -33.096  1.00  0.00    -0.022 A 
HETATM   22  N   UNL     1      -6.098   1.480 -33.711  1.00  0.00    -0.325 N 
HETATM   23  C   UNL     1      -6.584  -0.810 -33.945  1.00  0.00     0.144 A 
HETATM   24  C   UNL     1      -4.552  -1.494 -32.459  1.00  0.00     0.010 A 
HETATM   25  C   UNL     1      -7.012   0.618 -34.300  1.00  0.00     0.226 A 
HETATM   26  O   UNL     1      -7.976   0.936 -34.974  1.00  0.00    -0.273 OA
HETATM   27  C   UNL     1      -3.486  -1.004 -31.698  1.00  0.00     0.002 A 
HETATM   28  C   UNL     1      -3.242   0.381 -31.596  1.00  0.00     0.019 A 
HETATM   29  H   UNL     1      -6.158   2.493 -33.745  1.00  0.00     0.169 HD
ENDBRANCH   2  19
TORSDOF 5
ENDMDL
