MODEL 1
REMARK VINA RESULT:      -8.0      0.000      0.000
REMARK  7 active torsions:
REMARK  status: ('A' for Active; 'I' for Inactive)
REMARK    1  A    between atoms: C_5  and  N_6 
REMARK    2  A    between atoms: N_6  and  C_9 
REMARK    3  A    between atoms: C_9  and  C_10 
REMARK    4  A    between atoms: C_10  and  C_11 
REMARK    5  A    between atoms: C_10  and  C_13 
REMARK    6  A    between atoms: C_11  and  O_12 
REMARK    7  A    between atoms: C_13  and  C_14 
ROOT
HETATM    1  N   UNL     1      -4.998  -0.724 -31.675  1.00  0.00    -0.066 N 
HETATM    2  H   UNL     1      -6.033  -0.707 -31.704  1.00  0.00     0.278 HD
HETATM    3  H   UNL     1      -4.749  -1.531 -31.070  1.00  0.00     0.278 HD
ENDROOT
BRANCH   1   4
HETATM    4  C   UNL     1      -4.435  -0.958 -33.024  1.00  0.00     0.220 C 
HETATM    5  C   UNL     1      -4.322  -2.416 -33.340  1.00  0.00    -0.021 A 
HETATM    6  C   UNL     1      -5.302  -2.828 -34.255  1.00  0.00    -0.040 A 
HETATM    7  C   UNL     1      -3.402  -3.314 -32.816  1.00  0.00     0.010 A 
HETATM    8  C   UNL     1      -5.366  -4.152 -34.685  1.00  0.00    -0.055 A 
HETATM    9  C   UNL     1      -6.188  -1.675 -34.645  1.00  0.00     0.018 C 
HETATM   10  C   UNL     1      -6.405  -4.640 -35.651  1.00  0.00     0.049 C 
HETATM   11  C   UNL     1      -4.442  -5.059 -34.143  1.00  0.00     0.007 A 
HETATM   12  C   UNL     1      -3.470  -4.645 -33.223  1.00  0.00     0.001 A 
HETATM   13  C   UNL     1      -5.383  -0.459 -34.126  1.00  0.00     0.047 C 
HETATM   14  C   UNL     1      -7.577  -1.775 -34.026  1.00  0.00     0.015 C 
ENDBRANCH   1   4
BRANCH   1  15
HETATM   15  C   UNL     1      -4.542   0.503 -30.964  1.00  0.00     0.240 C 
BRANCH  15  16
HETATM   16  C   UNL     1      -5.469   1.695 -31.276  1.00  0.00     0.040 C 
BRANCH  16  17
HETATM   17  C   UNL     1      -4.892   2.981 -30.664  1.00  0.00     0.170 C 
BRANCH  17  18
HETATM   18  O   UNL     1      -5.338   3.099 -29.311  1.00  0.00    -0.400 OA
HETATM   19  H   UNL     1      -4.618   2.736 -28.753  1.00  0.00     0.209 HD
ENDBRANCH  17  18
ENDBRANCH  16  17
BRANCH  16  20
HETATM   20  C   UNL     1      -6.926   1.518 -30.795  1.00  0.00     0.067 C 
BRANCH  20  21
HETATM   21  C   UNL     1      -7.921   1.414 -31.919  1.00  0.00     0.034 A 
HETATM   22  N   UNL     1      -7.602   2.070 -33.067  1.00  0.00    -0.266 NA
HETATM   23  C   UNL     1      -8.490   1.966 -34.088  1.00  0.00     0.117 A 
HETATM   24  C   UNL     1      -9.677   1.256 -34.017  1.00  0.00     0.019 A 
HETATM   25  C   UNL     1      -9.981   0.603 -32.832  1.00  0.00     0.003 A 
HETATM   26  C   UNL     1      -9.093   0.680 -31.763  1.00  0.00     0.027 A 
ENDBRANCH  20  21
ENDBRANCH  16  20
ENDBRANCH  15  16
ENDBRANCH   1  15
TORSDOF 7
ENDMDL
MODEL 2
REMARK VINA RESULT:      -7.9      3.706      6.270
REMARK  7 active torsions:
REMARK  status: ('A' for Active; 'I' for Inactive)
REMARK    1  A    between atoms: C_5  and  N_6 
REMARK    2  A    between atoms: N_6  and  C_9 
REMARK    3  A    between atoms: C_9  and  C_10 
REMARK    4  A    between atoms: C_10  and  C_11 
REMARK    5  A    between atoms: C_10  and  C_13 
REMARK    6  A    between atoms: C_11  and  O_12 
REMARK    7  A    between atoms: C_13  and  C_14 
ROOT
HETATM    1  N   UNL     1      -4.486   2.618 -32.154  1.00  0.00    -0.066 N 
HETATM    2  H   UNL     1      -3.728   2.621 -31.450  1.00  0.00     0.278 HD
HETATM    3  H   UNL     1      -4.037   2.338 -33.048  1.00  0.00     0.278 HD
ENDROOT
BRANCH   1   4
HETATM    4  C   UNL     1      -5.519   1.613 -31.814  1.00  0.00     0.220 C 
HETATM    5  C   UNL     1      -6.062   0.931 -33.031  1.00  0.00    -0.021 A 
HETATM    6  C   UNL     1      -5.580  -0.380 -33.151  1.00  0.00    -0.040 A 
HETATM    7  C   UNL     1      -6.922   1.474 -33.976  1.00  0.00     0.010 A 
HETATM    8  C   UNL     1      -5.971  -1.189 -34.216  1.00  0.00    -0.055 A 
HETATM    9  C   UNL     1      -4.647  -0.714 -32.018  1.00  0.00     0.018 C 
HETATM   10  C   UNL     1      -5.470  -2.592 -34.393  1.00  0.00     0.049 C 
HETATM   11  C   UNL     1      -6.830  -0.632 -35.176  1.00  0.00     0.007 A 
HETATM   12  C   UNL     1      -7.303   0.681 -35.056  1.00  0.00     0.001 A 
HETATM   13  C   UNL     1      -4.924   0.438 -31.022  1.00  0.00     0.047 C 
HETATM   14  C   UNL     1      -3.191  -0.776 -32.463  1.00  0.00     0.015 C 
ENDBRANCH   1   4
BRANCH   1  15
HETATM   15  C   UNL     1      -4.952   4.022 -32.330  1.00  0.00     0.240 C 
BRANCH  15  16
HETATM   16  C   UNL     1      -3.959   4.826 -33.194  1.00  0.00     0.040 C 
BRANCH  16  17
HETATM   17  C   UNL     1      -4.484   4.930 -34.635  1.00  0.00     0.170 C 
BRANCH  17  18
HETATM   18  O   UNL     1      -3.582   5.725 -35.407  1.00  0.00    -0.400 OA
HETATM   19  H   UNL     1      -4.042   6.574 -35.578  1.00  0.00     0.209 HD
ENDBRANCH  17  18
ENDBRANCH  16  17
BRANCH  16  20
HETATM   20  C   UNL     1      -2.524   4.256 -33.221  1.00  0.00     0.067 C 
BRANCH  20  21
HETATM   21  C   UNL     1      -1.554   5.032 -32.371  1.00  0.00     0.034 A 
HETATM   22  N   UNL     1      -1.146   4.430 -31.222  1.00  0.00    -0.266 NA
HETATM   23  C   UNL     1      -0.260   5.122 -30.461  1.00  0.00     0.117 A 
HETATM   24  C   UNL     1       0.225   6.379 -30.781  1.00  0.00     0.019 A 
HETATM   25  C   UNL     1      -0.215   6.973 -31.955  1.00  0.00     0.003 A 
HETATM   26  C   UNL     1      -1.119   6.294 -32.766  1.00  0.00     0.027 A 
ENDBRANCH  20  21
ENDBRANCH  16  20
ENDBRANCH  15  16
ENDBRANCH   1  15
TORSDOF 7
ENDMDL
MODEL 3
REMARK VINA RESULT:      -7.8      2.242      4.035
REMARK  7 active torsions:
REMARK  status: ('A' for Active; 'I' for Inactive)
REMARK    1  A    between atoms: C_5  and  N_6 
REMARK    2  A    between atoms: N_6  and  C_9 
REMARK    3  A    between atoms: C_9  and  C_10 
REMARK    4  A    between atoms: C_10  and  C_11 
REMARK    5  A    between atoms: C_10  and  C_13 
REMARK    6  A    between atoms: C_11  and  O_12 
REMARK    7  A    between atoms: C_13  and  C_14 
ROOT
HETATM    1  N   UNL     1      -4.687  -0.633 -31.784  1.00  0.00    -0.066 N 
HETATM    2  H   UNL     1      -5.657  -0.275 -31.749  1.00  0.00     0.278 HD
HETATM    3  H   UNL     1      -4.698  -1.523 -31.249  1.00  0.00     0.278 HD
ENDROOT
BRANCH   1   4
HETATM    4  C   UNL     1      -4.282  -0.929 -33.177  1.00  0.00     0.220 C 
HETATM    5  C   UNL     1      -4.304  -2.397 -33.468  1.00  0.00    -0.021 A 
HETATM    6  C   UNL     1      -5.398  -2.753 -34.270  1.00  0.00    -0.040 A 
HETATM    7  C   UNL     1      -3.398  -3.348 -33.019  1.00  0.00     0.010 A 
HETATM    8  C   UNL     1      -5.597  -4.076 -34.658  1.00  0.00    -0.055 A 
HETATM    9  C   UNL     1      -6.239  -1.547 -34.594  1.00  0.00     0.018 C 
HETATM   10  C   UNL     1      -6.760  -4.506 -35.502  1.00  0.00     0.049 C 
HETATM   11  C   UNL     1      -4.686  -5.037 -34.191  1.00  0.00     0.007 A 
HETATM   12  C   UNL     1      -3.599  -4.678 -33.385  1.00  0.00     0.001 A 
HETATM   13  C   UNL     1      -5.303  -0.383 -34.189  1.00  0.00     0.047 C 
HETATM   14  C   UNL     1      -7.560  -1.538 -33.836  1.00  0.00     0.015 C 
ENDBRANCH   1   4
BRANCH   1  15
HETATM   15  C   UNL     1      -3.823   0.314 -31.025  1.00  0.00     0.240 C 
BRANCH  15  16
HETATM   16  C   UNL     1      -4.438   1.728 -31.012  1.00  0.00     0.040 C 
BRANCH  16  17
HETATM   17  C   UNL     1      -5.914   1.654 -30.590  1.00  0.00     0.170 C 
BRANCH  17  18
HETATM   18  O   UNL     1      -6.007   1.002 -29.322  1.00  0.00    -0.400 OA
HETATM   19  H   UNL     1      -6.638   0.261 -29.441  1.00  0.00     0.209 HD
ENDBRANCH  17  18
ENDBRANCH  16  17
BRANCH  16  20
HETATM   20  C   UNL     1      -4.335   2.484 -32.355  1.00  0.00     0.067 C 
BRANCH  20  21
HETATM   21  C   UNL     1      -3.199   3.470 -32.404  1.00  0.00     0.034 A 
HETATM   22  N   UNL     1      -2.512   3.654 -31.244  1.00  0.00    -0.266 NA
HETATM   23  C   UNL     1      -1.478   4.531 -31.289  1.00  0.00     0.117 A 
HETATM   24  C   UNL     1      -1.104   5.237 -32.420  1.00  0.00     0.019 A 
HETATM   25  C   UNL     1      -1.828   5.036 -33.587  1.00  0.00     0.003 A 
HETATM   26  C   UNL     1      -2.892   4.140 -33.584  1.00  0.00     0.027 A 
ENDBRANCH  20  21
ENDBRANCH  16  20
ENDBRANCH  15  16
ENDBRANCH   1  15
TORSDOF 7
ENDMDL
MODEL 4
REMARK VINA RESULT:      -7.7      2.130      3.686
REMARK  7 active torsions:
REMARK  status: ('A' for Active; 'I' for Inactive)
REMARK    1  A    between atoms: C_5  and  N_6 
REMARK    2  A    between atoms: N_6  and  C_9 
REMARK    3  A    between atoms: C_9  and  C_10 
REMARK    4  A    between atoms: C_10  and  C_11 
REMARK    5  A    between atoms: C_10  and  C_13 
REMARK    6  A    between atoms: C_11  and  O_12 
REMARK    7  A    between atoms: C_13  and  C_14 
ROOT
HETATM    1  N   UNL     1      -7.644  -0.787 -33.399  1.00  0.00    -0.066 N 
HETATM    2  H   UNL     1      -8.226  -1.600 -33.663  1.00  0.00     0.278 HD
HETATM    3  H   UNL     1      -7.419  -0.918 -32.393  1.00  0.00     0.278 HD
ENDROOT
BRANCH   1   4
HETATM    4  C   UNL     1      -6.377  -0.773 -34.165  1.00  0.00     0.220 C 
HETATM    5  C   UNL     1      -5.240  -1.349 -33.380  1.00  0.00    -0.021 A 
HETATM    6  C   UNL     1      -4.887  -2.627 -33.836  1.00  0.00    -0.040 A 
HETATM    7  C   UNL     1      -4.583  -0.758 -32.309  1.00  0.00     0.010 A 
HETATM    8  C   UNL     1      -3.846  -3.335 -33.239  1.00  0.00    -0.055 A 
HETATM    9  C   UNL     1      -5.767  -3.049 -34.982  1.00  0.00     0.018 C 
HETATM   10  C   UNL     1      -3.443  -4.710 -33.684  1.00  0.00     0.049 C 
HETATM   11  C   UNL     1      -3.192  -2.739 -32.149  1.00  0.00     0.007 A 
HETATM   12  C   UNL     1      -3.553  -1.465 -31.692  1.00  0.00     0.001 A 
HETATM   13  C   UNL     1      -6.441  -1.713 -35.380  1.00  0.00     0.047 C 
HETATM   14  C   UNL     1      -6.771  -4.123 -34.580  1.00  0.00     0.015 C 
ENDBRANCH   1   4
BRANCH   1  15
HETATM   15  C   UNL     1      -8.494   0.433 -33.493  1.00  0.00     0.240 C 
BRANCH  15  16
HETATM   16  C   UNL     1      -7.855   1.608 -32.724  1.00  0.00     0.040 C 
BRANCH  16  17
HETATM   17  C   UNL     1      -8.680   1.921 -31.466  1.00  0.00     0.170 C 
BRANCH  17  18
HETATM   18  O   UNL     1      -9.382   0.744 -31.059  1.00  0.00    -0.400 OA
HETATM   19  H   UNL     1      -9.114   0.572 -30.132  1.00  0.00     0.209 HD
ENDBRANCH  17  18
ENDBRANCH  16  17
BRANCH  16  20
HETATM   20  C   UNL     1      -7.688   2.901 -33.552  1.00  0.00     0.067 C 
BRANCH  20  21
HETATM   21  C   UNL     1      -6.291   3.458 -33.520  1.00  0.00     0.034 A 
HETATM   22  N   UNL     1      -6.067   4.567 -34.275  1.00  0.00    -0.266 NA
HETATM   23  C   UNL     1      -4.811   5.080 -34.236  1.00  0.00     0.117 A 
HETATM   24  C   UNL     1      -3.772   4.539 -33.497  1.00  0.00     0.019 A 
HETATM   25  C   UNL     1      -4.027   3.403 -32.743  1.00  0.00     0.003 A 
HETATM   26  C   UNL     1      -5.303   2.849 -32.751  1.00  0.00     0.027 A 
ENDBRANCH  20  21
ENDBRANCH  16  20
ENDBRANCH  15  16
ENDBRANCH   1  15
TORSDOF 7
ENDMDL
MODEL 5
REMARK VINA RESULT:      -7.5      2.239      3.547
REMARK  7 active torsions:
REMARK  status: ('A' for Active; 'I' for Inactive)
REMARK    1  A    between atoms: C_5  and  N_6 
REMARK    2  A    between atoms: N_6  and  C_9 
REMARK    3  A    between atoms: C_9  and  C_10 
REMARK    4  A    between atoms: C_10  and  C_11 
REMARK    5  A    between atoms: C_10  and  C_13 
REMARK    6  A    between atoms: C_11  and  O_12 
REMARK    7  A    between atoms: C_13  and  C_14 
ROOT
HETATM    1  N   UNL     1      -7.314   0.100 -33.318  1.00  0.00    -0.066 N 
HETATM    2  H   UNL     1      -8.078  -0.510 -33.656  1.00  0.00     0.278 HD
HETATM    3  H   UNL     1      -7.128  -0.199 -32.341  1.00  0.00     0.278 HD
ENDROOT
BRANCH   1   4
HETATM    4  C   UNL     1      -6.082  -0.105 -34.113  1.00  0.00     0.220 C 
HETATM    5  C   UNL     1      -5.014  -0.798 -33.326  1.00  0.00    -0.021 A 
HETATM    6  C   UNL     1      -4.860  -2.134 -33.722  1.00  0.00    -0.040 A 
HETATM    7  C   UNL     1      -4.247  -0.254 -32.305  1.00  0.00     0.010 A 
HETATM    8  C   UNL     1      -3.911  -2.953 -33.113  1.00  0.00    -0.055 A 
HETATM    9  C   UNL     1      -5.826  -2.482 -34.822  1.00  0.00     0.018 C 
HETATM   10  C   UNL     1      -3.720  -4.392 -33.493  1.00  0.00     0.049 C 
HETATM   11  C   UNL     1      -3.146  -2.403 -32.073  1.00  0.00     0.007 A 
HETATM   12  C   UNL     1      -3.308  -1.070 -31.676  1.00  0.00     0.001 A 
HETATM   13  C   UNL     1      -6.317  -1.085 -35.274  1.00  0.00     0.047 C 
HETATM   14  C   UNL     1      -6.958  -3.381 -34.339  1.00  0.00     0.015 C 
ENDBRANCH   1   4
BRANCH   1  15
HETATM   15  C   UNL     1      -7.839   1.493 -33.247  1.00  0.00     0.240 C 
BRANCH  15  16
HETATM   16  C   UNL     1      -9.299   1.504 -32.750  1.00  0.00     0.040 C 
BRANCH  16  17
HETATM   17  C   UNL     1      -9.341   1.847 -31.253  1.00  0.00     0.170 C 
BRANCH  17  18
HETATM   18  O   UNL     1      -8.021   1.749 -30.711  1.00  0.00    -0.400 OA
HETATM   19  H   UNL     1      -7.500   1.224 -31.355  1.00  0.00     0.209 HD
ENDBRANCH  17  18
ENDBRANCH  16  17
BRANCH  16  20
HETATM   20  C   UNL     1     -10.067   0.185 -32.987  1.00  0.00     0.067 C 
BRANCH  20  21
HETATM   21  C   UNL     1     -11.470   0.390 -33.492  1.00  0.00     0.034 A 
HETATM   22  N   UNL     1     -12.369  -0.583 -33.185  1.00  0.00    -0.266 NA
HETATM   23  C   UNL     1     -13.638  -0.393 -33.627  1.00  0.00     0.117 A 
HETATM   24  C   UNL     1     -14.049   0.704 -34.365  1.00  0.00     0.019 A 
HETATM   25  C   UNL     1     -13.109   1.677 -34.671  1.00  0.00     0.003 A 
HETATM   26  C   UNL     1     -11.798   1.523 -34.231  1.00  0.00     0.027 A 
ENDBRANCH  20  21
ENDBRANCH  16  20
ENDBRANCH  15  16
ENDBRANCH   1  15
TORSDOF 7
ENDMDL
MODEL 6
REMARK VINA RESULT:      -7.3      2.493      4.731
REMARK  7 active torsions:
REMARK  status: ('A' for Active; 'I' for Inactive)
REMARK    1  A    between atoms: C_5  and  N_6 
REMARK    2  A    between atoms: N_6  and  C_9 
REMARK    3  A    between atoms: C_9  and  C_10 
REMARK    4  A    between atoms: C_10  and  C_11 
REMARK    5  A    between atoms: C_10  and  C_13 
REMARK    6  A    between atoms: C_11  and  O_12 
REMARK    7  A    between atoms: C_13  and  C_14 
ROOT
HETATM    1  N   UNL     1      -7.318   2.156 -31.577  1.00  0.00    -0.066 N 
HETATM    2  H   UNL     1      -6.761   2.376 -32.421  1.00  0.00     0.278 HD
HETATM    3  H   UNL     1      -8.249   2.590 -31.735  1.00  0.00     0.278 HD
ENDROOT
BRANCH   1   4
HETATM    4  C   UNL     1      -7.501   0.694 -31.430  1.00  0.00     0.220 C 
HETATM    5  C   UNL     1      -7.241  -0.036 -32.711  1.00  0.00    -0.021 A 
HETATM    6  C   UNL     1      -6.016  -0.719 -32.681  1.00  0.00    -0.040 A 
HETATM    7  C   UNL     1      -8.055  -0.062 -33.835  1.00  0.00     0.010 A 
HETATM    8  C   UNL     1      -5.590  -1.466 -33.777  1.00  0.00    -0.055 A 
HETATM    9  C   UNL     1      -5.317  -0.507 -31.365  1.00  0.00     0.018 C 
HETATM   10  C   UNL     1      -4.282  -2.200 -33.796  1.00  0.00     0.049 C 
HETATM   11  C   UNL     1      -6.409  -1.479 -34.916  1.00  0.00     0.007 A 
HETATM   12  C   UNL     1      -7.628  -0.789 -34.944  1.00  0.00     0.001 A 
HETATM   13  C   UNL     1      -6.448   0.085 -30.490  1.00  0.00     0.047 C 
HETATM   14  C   UNL     1      -4.114   0.420 -31.488  1.00  0.00     0.015 C 
ENDBRANCH   1   4
BRANCH   1  15
HETATM   15  C   UNL     1      -6.702   2.871 -30.425  1.00  0.00     0.240 C 
BRANCH  15  16
HETATM   16  C   UNL     1      -5.614   3.853 -30.907  1.00  0.00     0.040 C 
BRANCH  16  17
HETATM   17  C   UNL     1      -5.515   5.041 -29.937  1.00  0.00     0.170 C 
BRANCH  17  18
HETATM   18  O   UNL     1      -5.287   4.551 -28.614  1.00  0.00    -0.400 OA
HETATM   19  H   UNL     1      -4.841   3.684 -28.717  1.00  0.00     0.209 HD
ENDBRANCH  17  18
ENDBRANCH  16  17
BRANCH  16  20
HETATM   20  C   UNL     1      -5.822   4.388 -32.340  1.00  0.00     0.067 C 
BRANCH  20  21
HETATM   21  C   UNL     1      -4.538   4.581 -33.101  1.00  0.00     0.034 A 
HETATM   22  N   UNL     1      -4.606   5.374 -34.205  1.00  0.00    -0.266 NA
HETATM   23  C   UNL     1      -3.446   5.561 -34.884  1.00  0.00     0.117 A 
HETATM   24  C   UNL     1      -2.234   4.993 -34.527  1.00  0.00     0.019 A 
HETATM   25  C   UNL     1      -2.197   4.182 -33.402  1.00  0.00     0.003 A 
HETATM   26  C   UNL     1      -3.363   3.970 -32.675  1.00  0.00     0.027 A 
ENDBRANCH  20  21
ENDBRANCH  16  20
ENDBRANCH  15  16
ENDBRANCH   1  15
TORSDOF 7
ENDMDL
MODEL 7
REMARK VINA RESULT:      -7.3      2.449      4.156
REMARK  7 active torsions:
REMARK  status: ('A' for Active; 'I' for Inactive)
REMARK    1  A    between atoms: C_5  and  N_6 
REMARK    2  A    between atoms: N_6  and  C_9 
REMARK    3  A    between atoms: C_9  and  C_10 
REMARK    4  A    between atoms: C_10  and  C_11 
REMARK    5  A    between atoms: C_10  and  C_13 
REMARK    6  A    between atoms: C_11  and  O_12 
REMARK    7  A    between atoms: C_13  and  C_14 
ROOT
HETATM    1  N   UNL     1      -7.213   1.101 -32.559  1.00  0.00    -0.066 N 
HETATM    2  H   UNL     1      -8.067   0.665 -32.948  1.00  0.00     0.278 HD
HETATM    3  H   UNL     1      -7.005   0.578 -31.686  1.00  0.00     0.278 HD
ENDROOT
BRANCH   1   4
HETATM    4  C   UNL     1      -6.068   0.941 -33.485  1.00  0.00     0.220 C 
HETATM    5  C   UNL     1      -5.005   0.055 -32.914  1.00  0.00    -0.021 A 
HETATM    6  C   UNL     1      -4.995  -1.207 -33.526  1.00  0.00    -0.040 A 
HETATM    7  C   UNL     1      -4.118   0.370 -31.894  1.00  0.00     0.010 A 
HETATM    8  C   UNL     1      -4.074  -2.179 -33.140  1.00  0.00    -0.055 A 
HETATM    9  C   UNL     1      -6.070  -1.302 -34.575  1.00  0.00     0.018 C 
HETATM   10  C   UNL     1      -4.036  -3.546 -33.755  1.00  0.00     0.049 C 
HETATM   11  C   UNL     1      -3.187  -1.861 -32.100  1.00  0.00     0.007 A 
HETATM   12  C   UNL     1      -3.206  -0.601 -31.487  1.00  0.00     0.001 A 
HETATM   13  C   UNL     1      -6.475   0.181 -34.758  1.00  0.00     0.047 C 
HETATM   14  C   UNL     1      -7.233  -2.185 -34.139  1.00  0.00     0.015 C 
ENDBRANCH   1   4
BRANCH   1  15
HETATM   15  C   UNL     1      -7.556   2.493 -32.155  1.00  0.00     0.240 C 
BRANCH  15  16
HETATM   16  C   UNL     1      -6.337   3.197 -31.522  1.00  0.00     0.040 C 
BRANCH  16  17
HETATM   17  C   UNL     1      -6.531   3.314 -30.002  1.00  0.00     0.170 C 
BRANCH  17  18
HETATM   18  O   UNL     1      -6.800   2.019 -29.461  1.00  0.00    -0.400 OA
HETATM   19  H   UNL     1      -6.013   1.470 -29.661  1.00  0.00     0.209 HD
ENDBRANCH  17  18
ENDBRANCH  16  17
BRANCH  16  20
HETATM   20  C   UNL     1      -6.032   4.596 -32.101  1.00  0.00     0.067 C 
BRANCH  20  21
HETATM   21  C   UNL     1      -4.734   4.661 -32.860  1.00  0.00     0.034 A 
HETATM   22  N   UNL     1      -3.650   4.116 -32.245  1.00  0.00    -0.266 NA
HETATM   23  C   UNL     1      -2.481   4.161 -32.934  1.00  0.00     0.117 A 
HETATM   24  C   UNL     1      -2.339   4.728 -34.189  1.00  0.00     0.019 A 
HETATM   25  C   UNL     1      -3.459   5.285 -34.788  1.00  0.00     0.003 A 
HETATM   26  C   UNL     1      -4.678   5.254 -34.118  1.00  0.00     0.027 A 
ENDBRANCH  20  21
ENDBRANCH  16  20
ENDBRANCH  15  16
ENDBRANCH   1  15
TORSDOF 7
ENDMDL
MODEL 8
REMARK VINA RESULT:      -7.2      1.915      3.053
REMARK  7 active torsions:
REMARK  status: ('A' for Active; 'I' for Inactive)
REMARK    1  A    between atoms: C_5  and  N_6 
REMARK    2  A    between atoms: N_6  and  C_9 
REMARK    3  A    between atoms: C_9  and  C_10 
REMARK    4  A    between atoms: C_10  and  C_11 
REMARK    5  A    between atoms: C_10  and  C_13 
REMARK    6  A    between atoms: C_11  and  O_12 
REMARK    7  A    between atoms: C_13  and  C_14 
ROOT
HETATM    1  N   UNL     1      -7.245   0.370 -32.848  1.00  0.00    -0.066 N 
HETATM    2  H   UNL     1      -8.126   0.151 -33.344  1.00  0.00     0.278 HD
HETATM    3  H   UNL     1      -7.170  -0.333 -32.087  1.00  0.00     0.278 HD
ENDROOT
BRANCH   1   4
HETATM    4  C   UNL     1      -6.078   0.214 -33.747  1.00  0.00     0.220 C 
HETATM    5  C   UNL     1      -5.001  -0.620 -33.128  1.00  0.00    -0.021 A 
HETATM    6  C   UNL     1      -4.942  -1.901 -33.696  1.00  0.00    -0.040 A 
HETATM    7  C   UNL     1      -4.142  -0.244 -32.104  1.00  0.00     0.010 A 
HETATM    8  C   UNL     1      -4.000  -2.831 -33.261  1.00  0.00    -0.055 A 
HETATM    9  C   UNL     1      -5.993  -2.063 -34.760  1.00  0.00     0.018 C 
HETATM   10  C   UNL     1      -3.910  -4.217 -33.828  1.00  0.00     0.049 C 
HETATM   11  C   UNL     1      -3.142  -2.451 -32.216  1.00  0.00     0.007 A 
HETATM   12  C   UNL     1      -3.209  -1.173 -31.647  1.00  0.00     0.001 A 
HETATM   13  C   UNL     1      -6.438  -0.601 -35.001  1.00  0.00     0.047 C 
HETATM   14  C   UNL     1      -7.138  -2.966 -34.314  1.00  0.00     0.015 C 
ENDBRANCH   1   4
BRANCH   1  15
HETATM   15  C   UNL     1      -7.408   1.697 -32.191  1.00  0.00     0.240 C 
BRANCH  15  16
HETATM   16  C   UNL     1      -8.878   2.161 -32.249  1.00  0.00     0.040 C 
BRANCH  16  17
HETATM   17  C   UNL     1      -9.300   2.736 -30.887  1.00  0.00     0.170 C 
BRANCH  17  18
HETATM   18  O   UNL     1      -8.232   2.563 -29.953  1.00  0.00    -0.400 OA
HETATM   19  H   UNL     1      -8.155   1.598 -29.801  1.00  0.00     0.209 HD
ENDBRANCH  17  18
ENDBRANCH  16  17
BRANCH  16  20
HETATM   20  C   UNL     1      -9.882   1.062 -32.664  1.00  0.00     0.067 C 
BRANCH  20  21
HETATM   21  C   UNL     1     -10.945   1.548 -33.611  1.00  0.00     0.034 A 
HETATM   22  N   UNL     1     -10.678   2.705 -34.274  1.00  0.00    -0.266 NA
HETATM   23  C   UNL     1     -11.629   3.137 -35.140  1.00  0.00     0.117 A 
HETATM   24  C   UNL     1     -12.830   2.485 -35.366  1.00  0.00     0.019 A 
HETATM   25  C   UNL     1     -13.080   1.312 -34.670  1.00  0.00     0.003 A 
HETATM   26  C   UNL     1     -12.127   0.831 -33.777  1.00  0.00     0.027 A 
ENDBRANCH  20  21
ENDBRANCH  16  20
ENDBRANCH  15  16
ENDBRANCH   1  15
TORSDOF 7
ENDMDL
MODEL 9
REMARK VINA RESULT:      -7.2      2.855      4.890
REMARK  7 active torsions:
REMARK  status: ('A' for Active; 'I' for Inactive)
REMARK    1  A    between atoms: C_5  and  N_6 
REMARK    2  A    between atoms: N_6  and  C_9 
REMARK    3  A    between atoms: C_9  and  C_10 
REMARK    4  A    between atoms: C_10  and  C_11 
REMARK    5  A    between atoms: C_10  and  C_13 
REMARK    6  A    between atoms: C_11  and  O_12 
REMARK    7  A    between atoms: C_13  and  C_14 
ROOT
HETATM    1  N   UNL     1      -6.660   1.395 -34.036  1.00  0.00    -0.066 N 
HETATM    2  H   UNL     1      -5.641   1.553 -34.127  1.00  0.00     0.278 HD
HETATM    3  H   UNL     1      -7.003   1.217 -35.000  1.00  0.00     0.278 HD
ENDROOT
BRANCH   1   4
HETATM    4  C   UNL     1      -6.937   0.197 -33.210  1.00  0.00     0.220 C 
HETATM    5  C   UNL     1      -6.110  -0.977 -33.630  1.00  0.00    -0.021 A 
HETATM    6  C   UNL     1      -5.077  -1.239 -32.717  1.00  0.00    -0.040 A 
HETATM    7  C   UNL     1      -6.273  -1.745 -34.774  1.00  0.00     0.010 A 
HETATM    8  C   UNL     1      -4.195  -2.297 -32.923  1.00  0.00    -0.055 A 
HETATM    9  C   UNL     1      -5.101  -0.249 -31.584  1.00  0.00     0.018 C 
HETATM   10  C   UNL     1      -3.068  -2.606 -31.983  1.00  0.00     0.049 C 
HETATM   11  C   UNL     1      -4.356  -3.064 -34.088  1.00  0.00     0.007 A 
HETATM   12  C   UNL     1      -5.384  -2.794 -35.000  1.00  0.00     0.001 A 
HETATM   13  C   UNL     1      -6.495   0.402 -31.752  1.00  0.00     0.047 C 
HETATM   14  C   UNL     1      -3.962   0.759 -31.668  1.00  0.00     0.015 C 
ENDBRANCH   1   4
BRANCH   1  15
HETATM   15  C   UNL     1      -7.280   2.673 -33.588  1.00  0.00     0.240 C 
BRANCH  15  16
HETATM   16  C   UNL     1      -6.201   3.679 -33.137  1.00  0.00     0.040 C 
BRANCH  16  17
HETATM   17  C   UNL     1      -6.824   4.734 -32.210  1.00  0.00     0.170 C 
BRANCH  17  18
HETATM   18  O   UNL     1      -5.973   4.926 -31.078  1.00  0.00    -0.400 OA
HETATM   19  H   UNL     1      -5.488   5.763 -31.239  1.00  0.00     0.209 HD
ENDBRANCH  17  18
ENDBRANCH  16  17
BRANCH  16  20
HETATM   20  C   UNL     1      -5.468   4.394 -34.293  1.00  0.00     0.067 C 
BRANCH  20  21
HETATM   21  C   UNL     1      -4.017   4.669 -34.003  1.00  0.00     0.034 A 
HETATM   22  N   UNL     1      -3.539   4.197 -32.820  1.00  0.00    -0.266 NA
HETATM   23  C   UNL     1      -2.227   4.430 -32.564  1.00  0.00     0.117 A 
HETATM   24  C   UNL     1      -1.378   5.116 -33.415  1.00  0.00     0.019 A 
HETATM   25  C   UNL     1      -1.893   5.594 -34.611  1.00  0.00     0.003 A 
HETATM   26  C   UNL     1      -3.232   5.370 -34.915  1.00  0.00     0.027 A 
ENDBRANCH  20  21
ENDBRANCH  16  20
ENDBRANCH  15  16
ENDBRANCH   1  15
TORSDOF 7
ENDMDL
MODEL 10
REMARK VINA RESULT:      -7.0     13.475     15.700
REMARK  7 active torsions:
REMARK  status: ('A' for Active; 'I' for Inactive)
REMARK    1  A    between atoms: C_5  and  N_6 
REMARK    2  A    between atoms: N_6  and  C_9 
REMARK    3  A    between atoms: C_9  and  C_10 
REMARK    4  A    between atoms: C_10  and  C_11 
REMARK    5  A    between atoms: C_10  and  C_13 
REMARK    6  A    between atoms: C_11  and  O_12 
REMARK    7  A    between atoms: C_13  and  C_14 
ROOT
HETATM    1  N   UNL     1      -6.418 -12.366 -38.177  1.00  0.00    -0.066 N 
HETATM    2  H   UNL     1      -6.460 -12.441 -39.208  1.00  0.00     0.278 HD
HETATM    3  H   UNL     1      -6.330 -11.351 -37.973  1.00  0.00     0.278 HD
ENDROOT
BRANCH   1   4
HETATM    4  C   UNL     1      -7.671 -12.860 -37.560  1.00  0.00     0.220 C 
HETATM    5  C   UNL     1      -8.667 -13.299 -38.588  1.00  0.00    -0.021 A 
HETATM    6  C   UNL     1      -8.768 -14.696 -38.651  1.00  0.00    -0.040 A 
HETATM    7  C   UNL     1      -9.417 -12.482 -39.423  1.00  0.00     0.010 A 
HETATM    8  C   UNL     1      -9.647 -15.307 -39.543  1.00  0.00    -0.055 A 
HETATM    9  C   UNL     1      -7.833 -15.346 -37.667  1.00  0.00     0.018 C 
HETATM   10  C   UNL     1      -9.779 -16.797 -39.655  1.00  0.00     0.049 C 
HETATM   11  C   UNL     1     -10.394 -14.478 -40.394  1.00  0.00     0.007 A 
HETATM   12  C   UNL     1     -10.284 -13.083 -40.332  1.00  0.00     0.001 A 
HETATM   13  C   UNL     1      -7.435 -14.154 -36.763  1.00  0.00     0.047 C 
HETATM   14  C   UNL     1      -6.637 -16.001 -38.347  1.00  0.00     0.015 C 
ENDBRANCH   1   4
BRANCH   1  15
HETATM   15  C   UNL     1      -5.153 -13.007 -37.723  1.00  0.00     0.240 C 
BRANCH  15  16
HETATM   16  C   UNL     1      -4.188 -13.217 -38.908  1.00  0.00     0.040 C 
BRANCH  16  17
HETATM   17  C   UNL     1      -2.799 -12.661 -38.557  1.00  0.00     0.170 C 
BRANCH  17  18
HETATM   18  O   UNL     1      -2.844 -11.233 -38.584  1.00  0.00    -0.400 OA
HETATM   19  H   UNL     1      -3.792 -10.988 -38.540  1.00  0.00     0.209 HD
ENDBRANCH  17  18
ENDBRANCH  16  17
BRANCH  16  20
HETATM   20  C   UNL     1      -4.660 -12.590 -40.238  1.00  0.00     0.067 C 
BRANCH  20  21
HETATM   21  C   UNL     1      -4.968 -13.607 -41.304  1.00  0.00     0.034 A 
HETATM   22  N   UNL     1      -4.006 -13.803 -42.245  1.00  0.00    -0.266 NA
HETATM   23  C   UNL     1      -4.275 -14.731 -43.199  1.00  0.00     0.117 A 
HETATM   24  C   UNL     1      -5.452 -15.456 -43.267  1.00  0.00     0.019 A 
HETATM   25  C   UNL     1      -6.420 -15.229 -42.301  1.00  0.00     0.003 A 
HETATM   26  C   UNL     1      -6.180 -14.291 -41.302  1.00  0.00     0.027 A 
ENDBRANCH  20  21
ENDBRANCH  16  20
ENDBRANCH  15  16
ENDBRANCH   1  15
TORSDOF 7
ENDMDL
