MODEL 1
REMARK VINA RESULT:      -7.4      0.000      0.000
REMARK  5 active torsions:
REMARK  status: ('A' for Active; 'I' for Inactive)
REMARK    1  A    between atoms: C_2  and  C_3 
REMARK    2  A    between atoms: C_7  and  C_8 
REMARK       I    between atoms: C_8  and  N_9 
REMARK    3  A    between atoms: N_9  and  C_10 
REMARK    4  A    between atoms: C_15  and  N_16 
REMARK       I    between atoms: N_16  and  C_17 
REMARK    5  A    between atoms: C_17  and  C_18 
ROOT
HETATM    1  C   UNL     1      -8.608   1.587 -33.421  1.00  0.00     0.059 A 
HETATM    2  C   UNL     1      -8.324   2.963 -33.388  1.00  0.00     0.060 A 
HETATM    3 CL   UNL     1      -6.754   3.631 -33.681  1.00  0.00    -0.082 Cl
HETATM    4  C   UNL     1      -9.371   3.886 -33.292  1.00  0.00     0.028 A 
HETATM    5  C   UNL     1     -10.702   3.461 -33.270  1.00  0.00     0.031 A 
HETATM    6  C   UNL     1     -11.008   2.106 -33.369  1.00  0.00     0.036 A 
HETATM    7  C   UNL     1      -9.956   1.179 -33.444  1.00  0.00     0.060 A 
ENDROOT
BRANCH   1   8
HETATM    8  N   UNL     1      -7.646   0.550 -33.499  1.00  0.00    -0.320 N 
HETATM    9  C   UNL     1      -7.040   0.092 -34.654  1.00  0.00     0.274 C 
HETATM   10  O   UNL     1      -7.114   0.640 -35.747  1.00  0.00    -0.266 OA
HETATM   11  H   UNL     1      -7.180   0.297 -32.640  1.00  0.00     0.169 HD
BRANCH   9  12
HETATM   12  C   UNL     1      -6.207  -1.071 -34.466  1.00  0.00     0.120 A 
HETATM   13  N   UNL     1      -4.969  -0.968 -33.887  1.00  0.00    -0.273 N 
HETATM   14  N   UNL     1      -4.316  -2.135 -33.777  1.00  0.00    -0.179 NA
HETATM   15  H   UNL     1      -4.524  -0.118 -33.552  1.00  0.00     0.189 HD
HETATM   16  C   UNL     1      -5.149  -3.029 -34.320  1.00  0.00     0.056 A 
HETATM   17  C   UNL     1      -6.344  -2.411 -34.769  1.00  0.00     0.065 A 
BRANCH  16  18
HETATM   18  C   UNL     1      -4.805  -4.483 -34.413  1.00  0.00     0.056 C 
HETATM   19  C   UNL     1      -3.580  -4.913 -33.620  1.00  0.00     0.011 C 
ENDBRANCH  16  18
ENDBRANCH   9  12
ENDBRANCH   1   8
BRANCH   6  20
HETATM   20  N   UNL     1     -12.325   1.598 -33.412  1.00  0.00    -0.327 N 
HETATM   21  C   UNL     1     -13.095   1.352 -34.536  1.00  0.00     0.221 C 
HETATM   22  O   UNL     1     -12.778   1.560 -35.702  1.00  0.00    -0.273 OA
HETATM   23  H   UNL     1     -12.741   1.357 -32.521  1.00  0.00     0.169 HD
BRANCH  21  24
HETATM   24  C   UNL     1     -14.451   0.758 -34.200  1.00  0.00     0.098 C 
HETATM   25  C   UNL     1     -15.118   1.500 -33.057  1.00  0.00     0.014 C 
ENDBRANCH  21  24
ENDBRANCH   6  20
TORSDOF 5
ENDMDL
MODEL 2
REMARK VINA RESULT:      -7.4      5.107      7.570
REMARK  5 active torsions:
REMARK  status: ('A' for Active; 'I' for Inactive)
REMARK    1  A    between atoms: C_2  and  C_3 
REMARK    2  A    between atoms: C_7  and  C_8 
REMARK       I    between atoms: C_8  and  N_9 
REMARK    3  A    between atoms: N_9  and  C_10 
REMARK    4  A    between atoms: C_15  and  N_16 
REMARK       I    between atoms: N_16  and  C_17 
REMARK    5  A    between atoms: C_17  and  C_18 
ROOT
HETATM    1  C   UNL     1      -5.530   1.877 -32.515  1.00  0.00     0.059 A 
HETATM    2  C   UNL     1      -6.631   2.029 -31.655  1.00  0.00     0.060 A 
HETATM    3 CL   UNL     1      -7.006   3.496 -30.817  1.00  0.00    -0.082 Cl
HETATM    4  C   UNL     1      -7.598   1.021 -31.582  1.00  0.00     0.028 A 
HETATM    5  C   UNL     1      -7.508  -0.119 -32.385  1.00  0.00     0.031 A 
HETATM    6  C   UNL     1      -6.461  -0.258 -33.292  1.00  0.00     0.036 A 
HETATM    7  C   UNL     1      -5.478   0.744 -33.350  1.00  0.00     0.060 A 
ENDROOT
BRANCH   1   8
HETATM    8  N   UNL     1      -4.474   2.810 -32.672  1.00  0.00    -0.320 N 
HETATM    9  C   UNL     1      -3.300   2.834 -31.943  1.00  0.00     0.274 C 
HETATM   10  O   UNL     1      -2.928   1.947 -31.185  1.00  0.00    -0.266 OA
HETATM   11  H   UNL     1      -4.455   3.334 -33.535  1.00  0.00     0.169 HD
BRANCH   9  12
HETATM   12  C   UNL     1      -2.460   3.977 -32.210  1.00  0.00     0.120 A 
HETATM   13  N   UNL     1      -2.160   4.351 -33.493  1.00  0.00    -0.273 N 
HETATM   14  N   UNL     1      -1.373   5.434 -33.580  1.00  0.00    -0.179 NA
HETATM   15  H   UNL     1      -2.468   3.893 -34.347  1.00  0.00     0.189 HD
HETATM   16  C   UNL     1      -1.135   5.770 -32.307  1.00  0.00     0.056 A 
HETATM   17  C   UNL     1      -1.790   4.885 -31.413  1.00  0.00     0.065 A 
BRANCH  16  18
HETATM   18  C   UNL     1      -0.277   6.939 -31.939  1.00  0.00     0.056 C 
HETATM   19  C   UNL     1       0.384   6.855 -30.571  1.00  0.00     0.011 C 
ENDBRANCH  16  18
ENDBRANCH   9  12
ENDBRANCH   1   8
BRANCH   6  20
HETATM   20  N   UNL     1      -6.326  -1.349 -34.179  1.00  0.00    -0.327 N 
HETATM   21  C   UNL     1      -5.336  -2.318 -34.175  1.00  0.00     0.221 C 
HETATM   22  O   UNL     1      -4.378  -2.384 -33.412  1.00  0.00    -0.273 OA
HETATM   23  H   UNL     1      -7.052  -1.452 -34.876  1.00  0.00     0.169 HD
BRANCH  21  24
HETATM   24  C   UNL     1      -5.539  -3.368 -35.251  1.00  0.00     0.098 C 
HETATM   25  C   UNL     1      -6.706  -4.281 -34.928  1.00  0.00     0.014 C 
ENDBRANCH  21  24
ENDBRANCH   6  20
TORSDOF 5
ENDMDL
MODEL 3
REMARK VINA RESULT:      -7.2      2.535      7.796
REMARK  5 active torsions:
REMARK  status: ('A' for Active; 'I' for Inactive)
REMARK    1  A    between atoms: C_2  and  C_3 
REMARK    2  A    between atoms: C_7  and  C_8 
REMARK       I    between atoms: C_8  and  N_9 
REMARK    3  A    between atoms: N_9  and  C_10 
REMARK    4  A    between atoms: C_15  and  N_16 
REMARK       I    between atoms: N_16  and  C_17 
REMARK    5  A    between atoms: C_17  and  C_18 
ROOT
HETATM    1  C   UNL     1      -5.922   0.655 -33.237  1.00  0.00     0.059 A 
HETATM    2  C   UNL     1      -4.968   1.462 -32.595  1.00  0.00     0.060 A 
HETATM    3 CL   UNL     1      -5.331   2.990 -31.866  1.00  0.00    -0.082 Cl
HETATM    4  C   UNL     1      -3.684   0.962 -32.356  1.00  0.00     0.028 A 
HETATM    5  C   UNL     1      -3.347  -0.347 -32.709  1.00  0.00     0.031 A 
HETATM    6  C   UNL     1      -4.297  -1.186 -33.285  1.00  0.00     0.036 A 
HETATM    7  C   UNL     1      -5.580  -0.676 -33.545  1.00  0.00     0.060 A 
ENDROOT
BRANCH   1   8
HETATM    8  N   UNL     1      -7.248   1.041 -33.554  1.00  0.00    -0.320 N 
HETATM    9  C   UNL     1      -8.345   0.933 -32.720  1.00  0.00     0.274 C 
HETATM   10  O   UNL     1      -8.293   0.658 -31.528  1.00  0.00    -0.266 OA
HETATM   11  H   UNL     1      -7.364   1.669 -34.337  1.00  0.00     0.169 HD
BRANCH   9  12
HETATM   12  C   UNL     1      -9.602   1.267 -33.346  1.00  0.00     0.120 A 
HETATM   13  N   UNL     1      -9.759   2.440 -34.036  1.00  0.00    -0.273 N 
HETATM   14  N   UNL     1     -10.981   2.606 -34.565  1.00  0.00    -0.179 NA
HETATM   15  H   UNL     1      -9.058   3.164 -34.172  1.00  0.00     0.189 HD
HETATM   16  C   UNL     1     -11.652   1.511 -34.191  1.00  0.00     0.056 A 
HETATM   17  C   UNL     1     -10.833   0.645 -33.423  1.00  0.00     0.065 A 
BRANCH  16  18
HETATM   18  C   UNL     1     -13.084   1.288 -34.565  1.00  0.00     0.056 C 
HETATM   19  C   UNL     1     -13.772   0.138 -33.845  1.00  0.00     0.011 C 
ENDBRANCH  16  18
ENDBRANCH   9  12
ENDBRANCH   1   8
BRANCH   6  20
HETATM   20  N   UNL     1      -4.056  -2.536 -33.620  1.00  0.00    -0.327 N 
HETATM   21  C   UNL     1      -3.476  -3.509 -32.822  1.00  0.00     0.221 C 
HETATM   22  O   UNL     1      -3.041  -3.362 -31.685  1.00  0.00    -0.273 OA
HETATM   23  H   UNL     1      -4.370  -2.835 -34.534  1.00  0.00     0.169 HD
BRANCH  21  24
HETATM   24  C   UNL     1      -3.421  -4.866 -33.500  1.00  0.00     0.098 C 
HETATM   25  C   UNL     1      -4.672  -5.135 -34.314  1.00  0.00     0.014 C 
ENDBRANCH  21  24
ENDBRANCH   6  20
TORSDOF 5
ENDMDL
MODEL 4
REMARK VINA RESULT:      -7.2      6.536      9.075
REMARK  5 active torsions:
REMARK  status: ('A' for Active; 'I' for Inactive)
REMARK    1  A    between atoms: C_2  and  C_3 
REMARK    2  A    between atoms: C_7  and  C_8 
REMARK       I    between atoms: C_8  and  N_9 
REMARK    3  A    between atoms: N_9  and  C_10 
REMARK    4  A    between atoms: C_15  and  N_16 
REMARK       I    between atoms: N_16  and  C_17 
REMARK    5  A    between atoms: C_17  and  C_18 
ROOT
HETATM    1  C   UNL     1      -3.016   4.389 -32.809  1.00  0.00     0.059 A 
HETATM    2  C   UNL     1      -2.783   5.191 -33.940  1.00  0.00     0.060 A 
HETATM    3 CL   UNL     1      -3.744   5.131 -35.378  1.00  0.00    -0.082 Cl
HETATM    4  C   UNL     1      -1.844   6.226 -33.875  1.00  0.00     0.028 A 
HETATM    5  C   UNL     1      -1.165   6.504 -32.687  1.00  0.00     0.031 A 
HETATM    6  C   UNL     1      -1.430   5.767 -31.537  1.00  0.00     0.036 A 
HETATM    7  C   UNL     1      -2.356   4.713 -31.607  1.00  0.00     0.060 A 
ENDROOT
BRANCH   1   8
HETATM    8  N   UNL     1      -3.922   3.302 -32.743  1.00  0.00    -0.320 N 
HETATM    9  C   UNL     1      -3.727   2.126 -32.043  1.00  0.00     0.274 C 
HETATM   10  O   UNL     1      -2.826   1.933 -31.236  1.00  0.00    -0.266 OA
HETATM   11  H   UNL     1      -4.878   3.490 -33.008  1.00  0.00     0.169 HD
BRANCH   9  12
HETATM   12  C   UNL     1      -4.746   1.128 -32.264  1.00  0.00     0.120 A 
HETATM   13  N   UNL     1      -5.088   0.236 -31.282  1.00  0.00    -0.273 N 
HETATM   14  N   UNL     1      -6.053  -0.626 -31.636  1.00  0.00    -0.179 NA
HETATM   15  H   UNL     1      -4.687   0.176 -30.350  1.00  0.00     0.189 HD
HETATM   16  C   UNL     1      -6.338  -0.298 -32.901  1.00  0.00     0.056 A 
HETATM   17  C   UNL     1      -5.543   0.791 -33.340  1.00  0.00     0.065 A 
BRANCH  16  18
HETATM   18  C   UNL     1      -7.374  -1.028 -33.698  1.00  0.00     0.056 C 
HETATM   19  C   UNL     1      -6.867  -2.239 -34.468  1.00  0.00     0.011 C 
ENDBRANCH  16  18
ENDBRANCH   9  12
ENDBRANCH   1   8
BRANCH   6  20
HETATM   20  N   UNL     1      -0.829   6.019 -30.283  1.00  0.00    -0.327 N 
HETATM   21  C   UNL     1       0.252   5.360 -29.722  1.00  0.00     0.221 C 
HETATM   22  O   UNL     1       0.868   4.416 -30.205  1.00  0.00    -0.273 OA
HETATM   23  H   UNL     1      -1.213   6.787 -29.749  1.00  0.00     0.169 HD
BRANCH  21  24
HETATM   24  C   UNL     1       0.654   5.935 -28.376  1.00  0.00     0.098 C 
HETATM   25  C   UNL     1       0.749   7.448 -28.420  1.00  0.00     0.014 C 
ENDBRANCH  21  24
ENDBRANCH   6  20
TORSDOF 5
ENDMDL
MODEL 5
REMARK VINA RESULT:      -7.1      7.915      9.838
REMARK  5 active torsions:
REMARK  status: ('A' for Active; 'I' for Inactive)
REMARK    1  A    between atoms: C_2  and  C_3 
REMARK    2  A    between atoms: C_7  and  C_8 
REMARK       I    between atoms: C_8  and  N_9 
REMARK    3  A    between atoms: N_9  and  C_10 
REMARK    4  A    between atoms: C_15  and  N_16 
REMARK       I    between atoms: N_16  and  C_17 
REMARK    5  A    between atoms: C_17  and  C_18 
ROOT
HETATM    1  C   UNL     1      -2.971   5.306 -31.992  1.00  0.00     0.059 A 
HETATM    2  C   UNL     1      -3.204   5.787 -33.291  1.00  0.00     0.060 A 
HETATM    3 CL   UNL     1      -2.276   7.045 -34.035  1.00  0.00    -0.082 Cl
HETATM    4  C   UNL     1      -4.111   5.123 -34.125  1.00  0.00     0.028 A 
HETATM    5  C   UNL     1      -4.756   3.960 -33.699  1.00  0.00     0.031 A 
HETATM    6  C   UNL     1      -4.489   3.429 -32.441  1.00  0.00     0.036 A 
HETATM    7  C   UNL     1      -3.597   4.108 -31.596  1.00  0.00     0.060 A 
ENDROOT
BRANCH   1   8
HETATM    8  N   UNL     1      -2.097   5.891 -31.042  1.00  0.00    -0.320 N 
HETATM    9  C   UNL     1      -0.774   5.544 -30.838  1.00  0.00     0.274 C 
HETATM   10  O   UNL     1      -0.122   4.811 -31.571  1.00  0.00    -0.266 OA
HETATM   11  H   UNL     1      -2.369   6.786 -30.663  1.00  0.00     0.169 HD
BRANCH   9  12
HETATM   12  C   UNL     1      -0.157   6.199 -29.710  1.00  0.00     0.120 A 
HETATM   13  N   UNL     1      -0.136   5.609 -28.474  1.00  0.00    -0.273 N 
HETATM   14  N   UNL     1       0.477   6.337 -27.528  1.00  0.00    -0.179 NA
HETATM   15  H   UNL     1      -0.530   4.705 -28.225  1.00  0.00     0.189 HD
HETATM   16  C   UNL     1       0.852   7.452 -28.164  1.00  0.00     0.056 A 
HETATM   17  C   UNL     1       0.474   7.414 -29.531  1.00  0.00     0.065 A 
BRANCH  16  18
HETATM   18  C   UNL     1       1.574   8.562 -27.467  1.00  0.00     0.056 C 
HETATM   19  C   UNL     1       2.024   8.252 -26.046  1.00  0.00     0.011 C 
ENDBRANCH  16  18
ENDBRANCH   9  12
ENDBRANCH   1   8
BRANCH   6  20
HETATM   20  N   UNL     1      -5.055   2.229 -31.956  1.00  0.00    -0.327 N 
HETATM   21  C   UNL     1      -4.513   0.956 -32.024  1.00  0.00     0.221 C 
HETATM   22  O   UNL     1      -3.450   0.639 -32.545  1.00  0.00    -0.273 OA
HETATM   23  H   UNL     1      -5.943   2.314 -31.477  1.00  0.00     0.169 HD
BRANCH  21  24
HETATM   24  C   UNL     1      -5.386  -0.088 -31.353  1.00  0.00     0.098 C 
HETATM   25  C   UNL     1      -6.631   0.529 -30.746  1.00  0.00     0.014 C 
ENDBRANCH  21  24
ENDBRANCH   6  20
TORSDOF 5
ENDMDL
MODEL 6
REMARK VINA RESULT:      -7.1      5.014      7.609
REMARK  5 active torsions:
REMARK  status: ('A' for Active; 'I' for Inactive)
REMARK    1  A    between atoms: C_2  and  C_3 
REMARK    2  A    between atoms: C_7  and  C_8 
REMARK       I    between atoms: C_8  and  N_9 
REMARK    3  A    between atoms: N_9  and  C_10 
REMARK    4  A    between atoms: C_15  and  N_16 
REMARK       I    between atoms: N_16  and  C_17 
REMARK    5  A    between atoms: C_17  and  C_18 
ROOT
HETATM    1  C   UNL     1      -4.766   2.876 -32.212  1.00  0.00     0.059 A 
HETATM    2  C   UNL     1      -5.844   3.730 -31.922  1.00  0.00     0.060 A 
HETATM    3 CL   UNL     1      -7.504   3.242 -31.981  1.00  0.00    -0.082 Cl
HETATM    4  C   UNL     1      -5.600   4.997 -31.384  1.00  0.00     0.028 A 
HETATM    5  C   UNL     1      -4.299   5.412 -31.088  1.00  0.00     0.031 A 
HETATM    6  C   UNL     1      -3.222   4.557 -31.305  1.00  0.00     0.036 A 
HETATM    7  C   UNL     1      -3.466   3.292 -31.866  1.00  0.00     0.060 A 
ENDROOT
BRANCH   1   8
HETATM    8  N   UNL     1      -4.871   1.579 -32.773  1.00  0.00    -0.320 N 
HETATM    9  C   UNL     1      -5.143   0.415 -32.078  1.00  0.00     0.274 C 
HETATM   10  O   UNL     1      -5.510   0.366 -30.911  1.00  0.00    -0.266 OA
HETATM   11  H   UNL     1      -5.011   1.525 -33.771  1.00  0.00     0.169 HD
BRANCH   9  12
HETATM   12  C   UNL     1      -5.050  -0.786 -32.873  1.00  0.00     0.120 A 
HETATM   13  N   UNL     1      -4.006  -1.659 -32.717  1.00  0.00    -0.273 N 
HETATM   14  N   UNL     1      -4.061  -2.730 -33.523  1.00  0.00    -0.179 NA
HETATM   15  H   UNL     1      -3.227  -1.565 -32.071  1.00  0.00     0.189 HD
HETATM   16  C   UNL     1      -5.170  -2.540 -34.246  1.00  0.00     0.056 A 
HETATM   17  C   UNL     1      -5.822  -1.335 -33.879  1.00  0.00     0.065 A 
BRANCH  16  18
HETATM   18  C   UNL     1      -5.614  -3.512 -35.295  1.00  0.00     0.056 C 
HETATM   19  C   UNL     1      -6.791  -4.394 -34.907  1.00  0.00     0.011 C 
ENDBRANCH  16  18
ENDBRANCH   9  12
ENDBRANCH   1   8
BRANCH   6  20
HETATM   20  N   UNL     1      -1.885   4.876 -30.982  1.00  0.00    -0.327 N 
HETATM   21  C   UNL     1      -0.881   5.269 -31.853  1.00  0.00     0.221 C 
HETATM   22  O   UNL     1      -0.970   5.384 -33.070  1.00  0.00    -0.273 OA
HETATM   23  H   UNL     1      -1.640   4.843 -30.001  1.00  0.00     0.169 HD
BRANCH  21  24
HETATM   24  C   UNL     1       0.423   5.576 -31.142  1.00  0.00     0.098 C 
HETATM   25  C   UNL     1       0.273   6.732 -30.171  1.00  0.00     0.014 C 
ENDBRANCH  21  24
ENDBRANCH   6  20
TORSDOF 5
ENDMDL
MODEL 7
REMARK VINA RESULT:      -7.0      4.377      6.613
REMARK  5 active torsions:
REMARK  status: ('A' for Active; 'I' for Inactive)
REMARK    1  A    between atoms: C_2  and  C_3 
REMARK    2  A    between atoms: C_7  and  C_8 
REMARK       I    between atoms: C_8  and  N_9 
REMARK    3  A    between atoms: N_9  and  C_10 
REMARK    4  A    between atoms: C_15  and  N_16 
REMARK       I    between atoms: N_16  and  C_17 
REMARK    5  A    between atoms: C_17  and  C_18 
ROOT
HETATM    1  C   UNL     1      -5.342   2.759 -32.310  1.00  0.00     0.059 A 
HETATM    2  C   UNL     1      -6.463   3.197 -31.584  1.00  0.00     0.060 A 
HETATM    3 CL   UNL     1      -7.641   2.133 -30.893  1.00  0.00    -0.082 Cl
HETATM    4  C   UNL     1      -6.576   4.545 -31.228  1.00  0.00     0.028 A 
HETATM    5  C   UNL     1      -5.567   5.458 -31.546  1.00  0.00     0.031 A 
HETATM    6  C   UNL     1      -4.417   5.032 -32.206  1.00  0.00     0.036 A 
HETATM    7  C   UNL     1      -4.315   3.683 -32.583  1.00  0.00     0.060 A 
ENDROOT
BRANCH   1   8
HETATM    8  N   UNL     1      -5.113   1.431 -32.748  1.00  0.00    -0.320 N 
HETATM    9  C   UNL     1      -5.831   0.764 -33.722  1.00  0.00     0.274 C 
HETATM   10  O   UNL     1      -6.649   1.286 -34.470  1.00  0.00    -0.266 OA
HETATM   11  H   UNL     1      -4.214   1.028 -32.525  1.00  0.00     0.169 HD
BRANCH   9  12
HETATM   12  C   UNL     1      -5.478  -0.628 -33.870  1.00  0.00     0.120 A 
HETATM   13  N   UNL     1      -4.358  -1.141 -33.271  1.00  0.00    -0.273 N 
HETATM   14  N   UNL     1      -4.166  -2.450 -33.498  1.00  0.00    -0.179 NA
HETATM   15  H   UNL     1      -3.689  -0.635 -32.698  1.00  0.00     0.189 HD
HETATM   16  C   UNL     1      -5.187  -2.800 -34.288  1.00  0.00     0.056 A 
HETATM   17  C   UNL     1      -6.033  -1.693 -34.553  1.00  0.00     0.065 A 
BRANCH  16  18
HETATM   18  C   UNL     1      -5.357  -4.197 -34.796  1.00  0.00     0.056 C 
HETATM   19  C   UNL     1      -6.747  -4.533 -35.318  1.00  0.00     0.011 C 
ENDBRANCH  16  18
ENDBRANCH   9  12
ENDBRANCH   1   8
BRANCH   6  20
HETATM   20  N   UNL     1      -3.328   5.876 -32.515  1.00  0.00    -0.327 N 
HETATM   21  C   UNL     1      -2.925   6.303 -33.770  1.00  0.00     0.221 C 
HETATM   22  O   UNL     1      -3.431   5.999 -34.845  1.00  0.00    -0.273 OA
HETATM   23  H   UNL     1      -2.801   6.234 -31.729  1.00  0.00     0.169 HD
BRANCH  21  24
HETATM   24  C   UNL     1      -1.737   7.245 -33.714  1.00  0.00     0.098 C 
HETATM   25  C   UNL     1      -1.632   7.934 -32.367  1.00  0.00     0.014 C 
ENDBRANCH  21  24
ENDBRANCH   6  20
TORSDOF 5
ENDMDL
MODEL 8
REMARK VINA RESULT:      -6.8      2.578      7.791
REMARK  5 active torsions:
REMARK  status: ('A' for Active; 'I' for Inactive)
REMARK    1  A    between atoms: C_2  and  C_3 
REMARK    2  A    between atoms: C_7  and  C_8 
REMARK       I    between atoms: C_8  and  N_9 
REMARK    3  A    between atoms: N_9  and  C_10 
REMARK    4  A    between atoms: C_15  and  N_16 
REMARK       I    between atoms: N_16  and  C_17 
REMARK    5  A    between atoms: C_17  and  C_18 
ROOT
HETATM    1  C   UNL     1      -8.314   1.203 -32.932  1.00  0.00     0.059 A 
HETATM    2  C   UNL     1      -7.744   1.458 -31.673  1.00  0.00     0.060 A 
HETATM    3 CL   UNL     1      -8.341   2.649 -30.568  1.00  0.00    -0.082 Cl
HETATM    4  C   UNL     1      -6.749   0.609 -31.177  1.00  0.00     0.028 A 
HETATM    5  C   UNL     1      -6.343  -0.517 -31.897  1.00  0.00     0.031 A 
HETATM    6  C   UNL     1      -6.943  -0.826 -33.115  1.00  0.00     0.036 A 
HETATM    7  C   UNL     1      -7.926   0.039 -33.623  1.00  0.00     0.060 A 
ENDROOT
BRANCH   1   8
HETATM    8  N   UNL     1      -9.313   1.989 -33.558  1.00  0.00    -0.320 N 
HETATM    9  C   UNL     1     -10.621   1.605 -33.786  1.00  0.00     0.274 C 
HETATM   10  O   UNL     1     -11.149   0.604 -33.318  1.00  0.00    -0.266 OA
HETATM   11  H   UNL     1      -9.141   2.982 -33.615  1.00  0.00     0.169 HD
BRANCH   9  12
HETATM   12  C   UNL     1     -11.387   2.544 -34.571  1.00  0.00     0.120 A 
HETATM   13  N   UNL     1     -11.865   2.207 -35.809  1.00  0.00    -0.273 N 
HETATM   14  N   UNL     1     -12.561   3.182 -36.413  1.00  0.00    -0.179 NA
HETATM   15  H   UNL     1     -11.740   1.319 -36.288  1.00  0.00     0.189 HD
HETATM   16  C   UNL     1     -12.519   4.200 -35.547  1.00  0.00     0.056 A 
HETATM   17  C   UNL     1     -11.791   3.851 -34.381  1.00  0.00     0.065 A 
BRANCH  16  18
HETATM   18  C   UNL     1     -13.174   5.515 -35.831  1.00  0.00     0.056 C 
HETATM   19  C   UNL     1     -12.270   6.733 -35.701  1.00  0.00     0.011 C 
ENDBRANCH  16  18
ENDBRANCH   9  12
ENDBRANCH   1   8
BRANCH   6  20
HETATM   20  N   UNL     1      -6.631  -1.973 -33.877  1.00  0.00    -0.327 N 
HETATM   21  C   UNL     1      -5.377  -2.400 -34.280  1.00  0.00     0.221 C 
HETATM   22  O   UNL     1      -4.308  -1.838 -34.067  1.00  0.00    -0.273 OA
HETATM   23  H   UNL     1      -7.410  -2.567 -34.132  1.00  0.00     0.169 HD
BRANCH  21  24
HETATM   24  C   UNL     1      -5.421  -3.707 -35.049  1.00  0.00     0.098 C 
HETATM   25  C   UNL     1      -6.787  -4.361 -34.962  1.00  0.00     0.014 C 
ENDBRANCH  21  24
ENDBRANCH   6  20
TORSDOF 5
ENDMDL
MODEL 9
REMARK VINA RESULT:      -6.8      3.731      8.042
REMARK  5 active torsions:
REMARK  status: ('A' for Active; 'I' for Inactive)
REMARK    1  A    between atoms: C_2  and  C_3 
REMARK    2  A    between atoms: C_7  and  C_8 
REMARK       I    between atoms: C_8  and  N_9 
REMARK    3  A    between atoms: N_9  and  C_10 
REMARK    4  A    between atoms: C_15  and  N_16 
REMARK       I    between atoms: N_16  and  C_17 
REMARK    5  A    between atoms: C_17  and  C_18 
ROOT
HETATM    1  C   UNL     1      -6.058   0.456 -32.809  1.00  0.00     0.059 A 
HETATM    2  C   UNL     1      -5.326  -0.702 -33.124  1.00  0.00     0.060 A 
HETATM    3 CL   UNL     1      -5.956  -2.017 -34.056  1.00  0.00    -0.082 Cl
HETATM    4  C   UNL     1      -3.958  -0.758 -32.836  1.00  0.00     0.028 A 
HETATM    5  C   UNL     1      -3.297   0.340 -32.280  1.00  0.00     0.031 A 
HETATM    6  C   UNL     1      -3.989   1.521 -32.023  1.00  0.00     0.036 A 
HETATM    7  C   UNL     1      -5.367   1.569 -32.291  1.00  0.00     0.060 A 
ENDROOT
BRANCH   1   8
HETATM    8  N   UNL     1      -7.446   0.638 -33.030  1.00  0.00    -0.320 N 
HETATM    9  C   UNL     1      -8.049   0.863 -34.253  1.00  0.00     0.274 C 
HETATM   10  O   UNL     1      -7.492   0.757 -35.339  1.00  0.00    -0.266 OA
HETATM   11  H   UNL     1      -8.067   0.334 -32.295  1.00  0.00     0.169 HD
BRANCH   9  12
HETATM   12  C   UNL     1      -9.460   1.157 -34.173  1.00  0.00     0.120 A 
HETATM   13  N   UNL     1     -10.004   2.207 -34.864  1.00  0.00    -0.273 N 
HETATM   14  N   UNL     1     -11.327   2.350 -34.693  1.00  0.00    -0.179 NA
HETATM   15  H   UNL     1      -9.510   2.859 -35.467  1.00  0.00     0.189 HD
HETATM   16  C   UNL     1     -11.656   1.370 -33.844  1.00  0.00     0.056 A 
HETATM   17  C   UNL     1     -10.521   0.599 -33.487  1.00  0.00     0.065 A 
BRANCH  16  18
HETATM   18  C   UNL     1     -13.061   1.167 -33.369  1.00  0.00     0.056 C 
HETATM   19  C   UNL     1     -14.082   0.883 -34.461  1.00  0.00     0.011 C 
ENDBRANCH  16  18
ENDBRANCH   9  12
ENDBRANCH   1   8
BRANCH   6  20
HETATM   20  N   UNL     1      -3.386   2.692 -31.515  1.00  0.00    -0.327 N 
HETATM   21  C   UNL     1      -2.737   3.683 -32.234  1.00  0.00     0.221 C 
HETATM   22  O   UNL     1      -2.545   3.704 -33.445  1.00  0.00    -0.273 OA
HETATM   23  H   UNL     1      -3.464   2.840 -30.517  1.00  0.00     0.169 HD
BRANCH  21  24
HETATM   24  C   UNL     1      -2.253   4.822 -31.356  1.00  0.00     0.098 C 
HETATM   25  C   UNL     1      -0.910   5.354 -31.819  1.00  0.00     0.014 C 
ENDBRANCH  21  24
ENDBRANCH   6  20
TORSDOF 5
ENDMDL
MODEL 10
REMARK VINA RESULT:      -6.7      2.069      2.339
REMARK  5 active torsions:
REMARK  status: ('A' for Active; 'I' for Inactive)
REMARK    1  A    between atoms: C_2  and  C_3 
REMARK    2  A    between atoms: C_7  and  C_8 
REMARK       I    between atoms: C_8  and  N_9 
REMARK    3  A    between atoms: N_9  and  C_10 
REMARK    4  A    between atoms: C_15  and  N_16 
REMARK       I    between atoms: N_16  and  C_17 
REMARK    5  A    between atoms: C_17  and  C_18 
ROOT
HETATM    1  C   UNL     1      -7.883   1.686 -31.468  1.00  0.00     0.059 A 
HETATM    2  C   UNL     1      -7.409   2.616 -30.527  1.00  0.00     0.060 A 
HETATM    3 CL   UNL     1      -5.747   2.755 -30.062  1.00  0.00    -0.082 Cl
HETATM    4  C   UNL     1      -8.262   3.616 -30.048  1.00  0.00     0.028 A 
HETATM    5  C   UNL     1      -9.570   3.731 -30.526  1.00  0.00     0.031 A 
HETATM    6  C   UNL     1     -10.039   2.862 -31.507  1.00  0.00     0.036 A 
HETATM    7  C   UNL     1      -9.189   1.845 -31.971  1.00  0.00     0.060 A 
ENDROOT
BRANCH   1   8
HETATM    8  N   UNL     1      -7.134   0.618 -32.020  1.00  0.00    -0.320 N 
HETATM    9  C   UNL     1      -6.306   0.694 -33.124  1.00  0.00     0.274 C 
HETATM   10  O   UNL     1      -5.963   1.735 -33.671  1.00  0.00    -0.266 OA
HETATM   11  H   UNL     1      -6.988  -0.188 -31.429  1.00  0.00     0.169 HD
BRANCH   9  12
HETATM   12  C   UNL     1      -5.776  -0.577 -33.557  1.00  0.00     0.120 A 
HETATM   13  N   UNL     1      -4.453  -0.887 -33.385  1.00  0.00    -0.273 N 
HETATM   14  N   UNL     1      -4.112  -2.105 -33.834  1.00  0.00    -0.179 NA
HETATM   15  H   UNL     1      -3.740  -0.296 -32.966  1.00  0.00     0.189 HD
HETATM   16  C   UNL     1      -5.249  -2.600 -34.335  1.00  0.00     0.056 A 
HETATM   17  C   UNL     1      -6.318  -1.679 -34.189  1.00  0.00     0.065 A 
BRANCH  16  18
HETATM   18  C   UNL     1      -5.319  -3.959 -34.958  1.00  0.00     0.056 C 
HETATM   19  C   UNL     1      -6.725  -4.488 -35.206  1.00  0.00     0.011 C 
ENDBRANCH  16  18
ENDBRANCH   9  12
ENDBRANCH   1   8
BRANCH   6  20
HETATM   20  N   UNL     1     -11.326   2.945 -32.082  1.00  0.00    -0.327 N 
HETATM   21  C   UNL     1     -11.641   3.254 -33.395  1.00  0.00     0.221 C 
HETATM   22  O   UNL     1     -10.854   3.541 -34.291  1.00  0.00    -0.273 OA
HETATM   23  H   UNL     1     -12.104   2.722 -31.475  1.00  0.00     0.169 HD
BRANCH  21  24
HETATM   24  C   UNL     1     -13.133   3.202 -33.667  1.00  0.00     0.098 C 
HETATM   25  C   UNL     1     -13.506   2.002 -34.517  1.00  0.00     0.014 C 
ENDBRANCH  21  24
ENDBRANCH   6  20
TORSDOF 5
ENDMDL
