MODEL 1
REMARK VINA RESULT:      -9.1      0.000      0.000
REMARK  11 active torsions:
REMARK  status: ('A' for Active; 'I' for Inactive)
REMARK    1  A    between atoms: C_3  and  N_4 
REMARK    2  A    between atoms: N_4  and  C_5 
REMARK    3  A    between atoms: C_7  and  C_8 
REMARK    4  A    between atoms: C_18  and  N_19 
REMARK       I    between atoms: N_19  and  C_20 
REMARK    5  A    between atoms: C_20  and  C_21 
REMARK    6  A    between atoms: C_22  and  C_23 
REMARK    7  A    between atoms: C_26  and  O_27 
REMARK    8  A    between atoms: O_27  and  C_28 
REMARK    9  A    between atoms: C_28  and  C_29 
REMARK   10  A    between atoms: C_29  and  C_30 
REMARK   11  A    between atoms: C_30  and  N_31 
ROOT
HETATM    1  C   UNL     1      -3.839   4.948 -35.267  1.00  0.00     0.050 C 
HETATM    2  C   UNL     1      -3.202   5.317 -33.953  1.00  0.00    -0.035 A 
HETATM    3  C   UNL     1      -3.798   4.985 -32.717  1.00  0.00     0.057 A 
HETATM    4  C   UNL     1      -3.112   5.317 -31.536  1.00  0.00     0.060 A 
HETATM    5  C   UNL     1      -1.871   5.957 -31.554  1.00  0.00     0.037 A 
HETATM    6  C   UNL     1      -1.293   6.270 -32.785  1.00  0.00     0.030 A 
HETATM    7  C   UNL     1      -1.952   5.956 -33.973  1.00  0.00     0.011 A 
ENDROOT
BRANCH   5   8
HETATM    8  N   UNL     1      -1.139   6.283 -30.394  1.00  0.00    -0.324 N 
HETATM    9  C   UNL     1      -0.039   5.624 -29.883  1.00  0.00     0.245 C 
HETATM   10  O   UNL     1       0.448   4.569 -30.264  1.00  0.00    -0.268 OA
HETATM   11  H   UNL     1      -1.467   7.098 -29.896  1.00  0.00     0.169 HD
BRANCH   9  12
HETATM   12  C   UNL     1       0.533   6.355 -28.722  1.00  0.00     0.075 C 
HETATM   13  C   UNL     1       0.474   7.694 -28.658  1.00  0.00     0.017 C 
BRANCH  13  14
HETATM   14  C   UNL     1       1.030   8.377 -27.495  1.00  0.00    -0.036 A 
HETATM   15  C   UNL     1       1.726   7.652 -26.524  1.00  0.00     0.014 A 
HETATM   16  C   UNL     1       2.162   8.282 -25.355  1.00  0.00     0.037 A 
HETATM   17  C   UNL     1       1.882   9.632 -25.150  1.00  0.00     0.068 A 
HETATM   18  C   UNL     1       1.236  10.370 -26.141  1.00  0.00     0.037 A 
HETATM   19  C   UNL     1       0.803   9.744 -27.309  1.00  0.00     0.014 A 
BRANCH  17  20
HETATM   20  O   UNL     1       2.271  10.332 -24.045  1.00  0.00    -0.351 OA
BRANCH  20  21
HETATM   21  C   UNL     1       2.565   9.553 -22.883  1.00  0.00     0.177 C 
BRANCH  21  22
HETATM   22  C   UNL     1       4.041   9.763 -22.555  1.00  0.00     0.054 C 
BRANCH  22  23
HETATM   23  C   UNL     1       4.850   8.519 -22.912  1.00  0.00     0.236 C 
BRANCH  23  24
HETATM   24  N   UNL     1       5.638   8.012 -21.721  1.00  0.00    -0.079 N 
HETATM   25  H   UNL     1       6.638   8.157 -21.915  1.00  0.00     0.278 HD
HETATM   26  C   UNL     1       5.316   8.742 -20.442  1.00  0.00     0.269 C 
HETATM   27  C   UNL     1       5.447   6.527 -21.547  1.00  0.00     0.269 C 
ENDBRANCH  23  24
ENDBRANCH  22  23
ENDBRANCH  21  22
ENDBRANCH  20  21
ENDBRANCH  17  20
ENDBRANCH  13  14
ENDBRANCH   9  12
ENDBRANCH   5   8
BRANCH   3  28
HETATM   28  N   UNL     1      -5.005   4.263 -32.691  1.00  0.00    -0.188 N 
HETATM   29  H   UNL     1      -5.848   4.794 -32.844  1.00  0.00     0.184 HD
BRANCH  28  30
HETATM   30  C   UNL     1      -5.341   3.041 -32.112  1.00  0.00     0.727 A 
HETATM   31  N   UNL     1      -5.335   1.905 -32.828  1.00  0.00    -0.062 NA
HETATM   32  C   UNL     1      -5.658   0.739 -32.227  1.00  0.00     0.089 A 
HETATM   33  C   UNL     1      -6.005   0.716 -30.891  1.00  0.00     0.053 A 
HETATM   34  C   UNL     1      -6.013   1.925 -30.238  1.00  0.00     0.139 A 
HETATM   35  N   UNL     1      -5.699   3.092 -30.822  1.00  0.00    -0.075 NA
BRANCH  32  36
HETATM   36  C   UNL     1      -5.619  -0.459 -33.098  1.00  0.00     0.011 A 
HETATM   37  C   UNL     1      -4.415  -1.121 -33.376  1.00  0.00     0.130 A 
HETATM   38  N   UNL     1      -4.277  -2.213 -34.178  1.00  0.00    -0.272 NA
HETATM   39  C   UNL     1      -5.401  -2.694 -34.738  1.00  0.00     0.116 A 
HETATM   40  C   UNL     1      -6.649  -2.138 -34.536  1.00  0.00     0.020 A 
HETATM   41  C   UNL     1      -6.753  -1.014 -33.713  1.00  0.00     0.017 A 
ENDBRANCH  32  36
ENDBRANCH  28  30
ENDBRANCH   3  28
TORSDOF 11
ENDMDL
MODEL 2
REMARK VINA RESULT:      -8.7      4.048      6.529
REMARK  11 active torsions:
REMARK  status: ('A' for Active; 'I' for Inactive)
REMARK    1  A    between atoms: C_3  and  N_4 
REMARK    2  A    between atoms: N_4  and  C_5 
REMARK    3  A    between atoms: C_7  and  C_8 
REMARK    4  A    between atoms: C_18  and  N_19 
REMARK       I    between atoms: N_19  and  C_20 
REMARK    5  A    between atoms: C_20  and  C_21 
REMARK    6  A    between atoms: C_22  and  C_23 
REMARK    7  A    between atoms: C_26  and  O_27 
REMARK    8  A    between atoms: O_27  and  C_28 
REMARK    9  A    between atoms: C_28  and  C_29 
REMARK   10  A    between atoms: C_29  and  C_30 
REMARK   11  A    between atoms: C_30  and  N_31 
ROOT
HETATM    1  C   UNL     1      -6.953  -2.388 -34.257  1.00  0.00     0.050 C 
HETATM    2  C   UNL     1      -6.147  -1.236 -33.718  1.00  0.00    -0.035 A 
HETATM    3  C   UNL     1      -6.760  -0.060 -33.233  1.00  0.00     0.057 A 
HETATM    4  C   UNL     1      -5.940   0.947 -32.695  1.00  0.00     0.060 A 
HETATM    5  C   UNL     1      -4.551   0.815 -32.629  1.00  0.00     0.037 A 
HETATM    6  C   UNL     1      -3.963  -0.356 -33.105  1.00  0.00     0.030 A 
HETATM    7  C   UNL     1      -4.751  -1.371 -33.647  1.00  0.00     0.011 A 
ENDROOT
BRANCH   5   8
HETATM    8  N   UNL     1      -3.696   1.789 -32.074  1.00  0.00    -0.324 N 
HETATM    9  C   UNL     1      -3.604   3.122 -32.421  1.00  0.00     0.245 C 
HETATM   10  O   UNL     1      -4.159   3.696 -33.347  1.00  0.00    -0.268 OA
HETATM   11  H   UNL     1      -3.092   1.457 -31.336  1.00  0.00     0.169 HD
BRANCH   9  12
HETATM   12  C   UNL     1      -2.682   3.851 -31.511  1.00  0.00     0.075 C 
HETATM   13  C   UNL     1      -1.998   4.921 -31.942  1.00  0.00     0.017 C 
BRANCH  13  14
HETATM   14  C   UNL     1      -1.115   5.623 -31.015  1.00  0.00    -0.036 A 
HETATM   15  C   UNL     1      -0.102   4.927 -30.351  1.00  0.00     0.014 A 
HETATM   16  C   UNL     1       0.672   5.569 -29.381  1.00  0.00     0.037 A 
HETATM   17  C   UNL     1       0.416   6.901 -29.060  1.00  0.00     0.068 A 
HETATM   18  C   UNL     1      -0.558   7.613 -29.760  1.00  0.00     0.037 A 
HETATM   19  C   UNL     1      -1.329   6.975 -30.731  1.00  0.00     0.014 A 
BRANCH  17  20
HETATM   20  O   UNL     1       1.121   7.611 -28.132  1.00  0.00    -0.351 OA
BRANCH  20  21
HETATM   21  C   UNL     1       1.035   7.138 -26.787  1.00  0.00     0.177 C 
BRANCH  21  22
HETATM   22  C   UNL     1       1.765   8.147 -25.902  1.00  0.00     0.054 C 
BRANCH  22  23
HETATM   23  C   UNL     1       1.158   9.538 -26.064  1.00  0.00     0.236 C 
BRANCH  23  24
HETATM   24  N   UNL     1      -0.344   9.465 -26.256  1.00  0.00    -0.079 N 
HETATM   25  H   UNL     1      -0.572   8.538 -26.638  1.00  0.00     0.278 HD
HETATM   26  C   UNL     1      -1.114   9.626 -24.970  1.00  0.00     0.269 C 
HETATM   27  C   UNL     1      -0.800  10.474 -27.279  1.00  0.00     0.269 C 
ENDBRANCH  23  24
ENDBRANCH  22  23
ENDBRANCH  21  22
ENDBRANCH  20  21
ENDBRANCH  17  20
ENDBRANCH  13  14
ENDBRANCH   9  12
ENDBRANCH   5   8
BRANCH   3  28
HETATM   28  N   UNL     1      -8.164   0.044 -33.216  1.00  0.00    -0.188 N 
HETATM   29  H   UNL     1      -8.678  -0.821 -33.269  1.00  0.00     0.184 HD
BRANCH  28  30
HETATM   30  C   UNL     1      -9.018   1.097 -33.539  1.00  0.00     0.727 A 
HETATM   31  N   UNL     1     -10.351   0.956 -33.477  1.00  0.00    -0.062 NA
HETATM   32  C   UNL     1     -11.145   2.003 -33.790  1.00  0.00     0.089 A 
HETATM   33  C   UNL     1     -10.592   3.204 -34.184  1.00  0.00     0.053 A 
HETATM   34  C   UNL     1      -9.220   3.256 -34.250  1.00  0.00     0.139 A 
HETATM   35  N   UNL     1      -8.418   2.223 -33.946  1.00  0.00    -0.075 NA
BRANCH  32  36
HETATM   36  C   UNL     1     -12.602   1.752 -33.686  1.00  0.00     0.011 A 
HETATM   37  C   UNL     1     -13.426   2.554 -32.885  1.00  0.00     0.130 A 
HETATM   38  N   UNL     1     -14.768   2.389 -32.711  1.00  0.00    -0.272 NA
HETATM   39  C   UNL     1     -15.340   1.370 -33.377  1.00  0.00     0.116 A 
HETATM   40  C   UNL     1     -14.639   0.514 -34.204  1.00  0.00     0.020 A 
HETATM   41  C   UNL     1     -13.264   0.708 -34.354  1.00  0.00     0.017 A 
ENDBRANCH  32  36
ENDBRANCH  28  30
ENDBRANCH   3  28
TORSDOF 11
ENDMDL
MODEL 3
REMARK VINA RESULT:      -8.5      3.666      5.399
REMARK  11 active torsions:
REMARK  status: ('A' for Active; 'I' for Inactive)
REMARK    1  A    between atoms: C_3  and  N_4 
REMARK    2  A    between atoms: N_4  and  C_5 
REMARK    3  A    between atoms: C_7  and  C_8 
REMARK    4  A    between atoms: C_18  and  N_19 
REMARK       I    between atoms: N_19  and  C_20 
REMARK    5  A    between atoms: C_20  and  C_21 
REMARK    6  A    between atoms: C_22  and  C_23 
REMARK    7  A    between atoms: C_26  and  O_27 
REMARK    8  A    between atoms: O_27  and  C_28 
REMARK    9  A    between atoms: C_28  and  C_29 
REMARK   10  A    between atoms: C_29  and  C_30 
REMARK   11  A    between atoms: C_30  and  N_31 
ROOT
HETATM    1  C   UNL     1      -6.308  -1.555 -34.289  1.00  0.00     0.050 C 
HETATM    2  C   UNL     1      -5.556  -0.401 -33.681  1.00  0.00    -0.035 A 
HETATM    3  C   UNL     1      -5.994   0.933 -33.826  1.00  0.00     0.057 A 
HETATM    4  C   UNL     1      -5.266   1.949 -33.181  1.00  0.00     0.060 A 
HETATM    5  C   UNL     1      -4.135   1.674 -32.410  1.00  0.00     0.037 A 
HETATM    6  C   UNL     1      -3.720   0.349 -32.271  1.00  0.00     0.030 A 
HETATM    7  C   UNL     1      -4.421  -0.678 -32.901  1.00  0.00     0.011 A 
ENDROOT
BRANCH   5   8
HETATM    8  N   UNL     1      -3.392   2.659 -31.726  1.00  0.00    -0.324 N 
HETATM    9  C   UNL     1      -2.688   3.711 -32.276  1.00  0.00     0.245 C 
HETATM   10  O   UNL     1      -2.474   3.934 -33.459  1.00  0.00    -0.268 OA
HETATM   11  H   UNL     1      -3.392   2.572 -30.720  1.00  0.00     0.169 HD
BRANCH   9  12
HETATM   12  C   UNL     1      -2.153   4.609 -31.218  1.00  0.00     0.075 C 
HETATM   13  C   UNL     1      -0.905   5.092 -31.297  1.00  0.00     0.017 C 
BRANCH  13  14
HETATM   14  C   UNL     1      -0.419   5.984 -30.249  1.00  0.00    -0.036 A 
HETATM   15  C   UNL     1       0.432   5.498 -29.253  1.00  0.00     0.014 A 
HETATM   16  C   UNL     1       0.808   6.319 -28.187  1.00  0.00     0.037 A 
HETATM   17  C   UNL     1       0.313   7.620 -28.106  1.00  0.00     0.068 A 
HETATM   18  C   UNL     1      -0.493   8.126 -29.126  1.00  0.00     0.037 A 
HETATM   19  C   UNL     1      -0.866   7.308 -30.192  1.00  0.00     0.014 A 
BRANCH  17  20
HETATM   20  O   UNL     1       0.628   8.495 -27.107  1.00  0.00    -0.351 OA
BRANCH  20  21
HETATM   21  C   UNL     1       1.251   7.927 -25.953  1.00  0.00     0.177 C 
BRANCH  21  22
HETATM   22  C   UNL     1       2.409   8.844 -25.563  1.00  0.00     0.054 C 
BRANCH  22  23
HETATM   23  C   UNL     1       2.670   8.764 -24.062  1.00  0.00     0.236 C 
BRANCH  23  24
HETATM   24  N   UNL     1       2.546  10.125 -23.406  1.00  0.00    -0.079 N 
HETATM   25  H   UNL     1       1.741  10.099 -22.767  1.00  0.00     0.278 HD
HETATM   26  C   UNL     1       3.757  10.504 -22.593  1.00  0.00     0.269 C 
HETATM   27  C   UNL     1       2.244  11.186 -24.434  1.00  0.00     0.269 C 
ENDBRANCH  23  24
ENDBRANCH  22  23
ENDBRANCH  21  22
ENDBRANCH  20  21
ENDBRANCH  17  20
ENDBRANCH  13  14
ENDBRANCH   9  12
ENDBRANCH   5   8
BRANCH   3  28
HETATM   28  N   UNL     1      -7.182   1.210 -34.529  1.00  0.00    -0.188 N 
HETATM   29  H   UNL     1      -7.131   1.155 -35.534  1.00  0.00     0.184 HD
BRANCH  28  30
HETATM   30  C   UNL     1      -8.321   1.929 -34.174  1.00  0.00     0.727 A 
HETATM   31  N   UNL     1      -9.543   1.375 -34.239  1.00  0.00    -0.062 NA
HETATM   32  C   UNL     1     -10.622   2.102 -33.878  1.00  0.00     0.089 A 
HETATM   33  C   UNL     1     -10.474   3.409 -33.458  1.00  0.00     0.053 A 
HETATM   34  C   UNL     1      -9.194   3.909 -33.448  1.00  0.00     0.139 A 
HETATM   35  N   UNL     1      -8.112   3.200 -33.808  1.00  0.00    -0.075 NA
BRANCH  32  36
HETATM   36  C   UNL     1     -11.925   1.404 -33.979  1.00  0.00     0.011 A 
HETATM   37  C   UNL     1     -13.026   1.998 -34.612  1.00  0.00     0.130 A 
HETATM   38  N   UNL     1     -14.264   1.444 -34.735  1.00  0.00    -0.272 NA
HETATM   39  C   UNL     1     -14.430   0.218 -34.208  1.00  0.00     0.116 A 
HETATM   40  C   UNL     1     -13.423  -0.477 -33.567  1.00  0.00     0.020 A 
HETATM   41  C   UNL     1     -12.167   0.124 -33.453  1.00  0.00     0.017 A 
ENDBRANCH  32  36
ENDBRANCH  28  30
ENDBRANCH   3  28
TORSDOF 11
ENDMDL
MODEL 4
REMARK VINA RESULT:      -8.3      3.624     13.570
REMARK  11 active torsions:
REMARK  status: ('A' for Active; 'I' for Inactive)
REMARK    1  A    between atoms: C_3  and  N_4 
REMARK    2  A    between atoms: N_4  and  C_5 
REMARK    3  A    between atoms: C_7  and  C_8 
REMARK    4  A    between atoms: C_18  and  N_19 
REMARK       I    between atoms: N_19  and  C_20 
REMARK    5  A    between atoms: C_20  and  C_21 
REMARK    6  A    between atoms: C_22  and  C_23 
REMARK    7  A    between atoms: C_26  and  O_27 
REMARK    8  A    between atoms: O_27  and  C_28 
REMARK    9  A    between atoms: C_28  and  C_29 
REMARK   10  A    between atoms: C_29  and  C_30 
REMARK   11  A    between atoms: C_30  and  N_31 
ROOT
HETATM    1  C   UNL     1       2.467  11.301 -22.577  1.00  0.00     0.050 C 
HETATM    2  C   UNL     1       2.175  10.461 -23.792  1.00  0.00    -0.035 A 
HETATM    3  C   UNL     1       2.852   9.246 -24.038  1.00  0.00     0.057 A 
HETATM    4  C   UNL     1       2.481   8.493 -25.166  1.00  0.00     0.060 A 
HETATM    5  C   UNL     1       1.474   8.911 -26.038  1.00  0.00     0.037 A 
HETATM    6  C   UNL     1       0.810  10.110 -25.775  1.00  0.00     0.030 A 
HETATM    7  C   UNL     1       1.158  10.879 -24.665  1.00  0.00     0.011 A 
ENDROOT
BRANCH   5   8
HETATM    8  N   UNL     1       1.054   8.174 -27.164  1.00  0.00    -0.324 N 
HETATM    9  C   UNL     1       0.288   7.026 -27.178  1.00  0.00     0.245 C 
HETATM   10  O   UNL     1      -0.082   6.359 -26.223  1.00  0.00    -0.268 OA
HETATM   11  H   UNL     1       1.354   8.546 -28.054  1.00  0.00     0.169 HD
BRANCH   9  12
HETATM   12  C   UNL     1      -0.055   6.627 -28.569  1.00  0.00     0.075 C 
HETATM   13  C   UNL     1      -0.509   7.532 -29.449  1.00  0.00     0.017 C 
BRANCH  13  14
HETATM   14  C   UNL     1      -0.819   7.107 -30.810  1.00  0.00    -0.036 A 
HETATM   15  C   UNL     1      -0.523   5.806 -31.223  1.00  0.00     0.014 A 
HETATM   16  C   UNL     1      -0.715   5.430 -32.555  1.00  0.00     0.037 A 
HETATM   17  C   UNL     1      -1.182   6.365 -33.478  1.00  0.00     0.068 A 
HETATM   18  C   UNL     1      -1.530   7.648 -33.058  1.00  0.00     0.037 A 
HETATM   19  C   UNL     1      -1.342   8.023 -31.728  1.00  0.00     0.014 A 
BRANCH  17  20
HETATM   20  O   UNL     1      -1.404   6.089 -34.796  1.00  0.00    -0.351 OA
BRANCH  20  21
HETATM   21  C   UNL     1      -2.208   4.939 -35.067  1.00  0.00     0.177 C 
BRANCH  21  22
HETATM   22  C   UNL     1      -3.666   5.392 -35.074  1.00  0.00     0.054 C 
BRANCH  22  23
HETATM   23  C   UNL     1      -4.411   4.812 -33.875  1.00  0.00     0.236 C 
BRANCH  23  24
HETATM   24  N   UNL     1      -5.107   5.899 -33.079  1.00  0.00    -0.079 N 
HETATM   25  H   UNL     1      -4.903   6.802 -33.527  1.00  0.00     0.278 HD
HETATM   26  C   UNL     1      -6.605   5.740 -33.042  1.00  0.00     0.269 C 
HETATM   27  C   UNL     1      -4.546   5.978 -31.681  1.00  0.00     0.269 C 
ENDBRANCH  23  24
ENDBRANCH  22  23
ENDBRANCH  21  22
ENDBRANCH  20  21
ENDBRANCH  17  20
ENDBRANCH  13  14
ENDBRANCH   9  12
ENDBRANCH   5   8
BRANCH   3  28
HETATM   28  N   UNL     1       3.807   8.776 -23.118  1.00  0.00    -0.188 N 
HETATM   29  H   UNL     1       3.542   8.799 -22.146  1.00  0.00     0.184 HD
BRANCH  28  30
HETATM   30  C   UNL     1       5.192   8.649 -23.205  1.00  0.00     0.727 A 
HETATM   31  N   UNL     1       5.843   7.668 -22.561  1.00  0.00    -0.062 NA
HETATM   32  C   UNL     1       7.186   7.574 -22.678  1.00  0.00     0.089 A 
HETATM   33  C   UNL     1       7.885   8.487 -23.441  1.00  0.00     0.053 A 
HETATM   34  C   UNL     1       7.146   9.477 -24.042  1.00  0.00     0.139 A 
HETATM   35  N   UNL     1       5.813   9.586 -23.933  1.00  0.00    -0.075 NA
BRANCH  32  36
HETATM   36  C   UNL     1       7.814   6.455 -21.935  1.00  0.00     0.011 A 
HETATM   37  C   UNL     1       7.675   6.331 -20.546  1.00  0.00     0.130 A 
HETATM   38  N   UNL     1       8.230   5.353 -19.778  1.00  0.00    -0.272 NA
HETATM   39  C   UNL     1       8.965   4.428 -20.419  1.00  0.00     0.116 A 
HETATM   40  C   UNL     1       9.171   4.434 -21.786  1.00  0.00     0.020 A 
HETATM   41  C   UNL     1       8.592   5.455 -22.542  1.00  0.00     0.017 A 
ENDBRANCH  32  36
ENDBRANCH  28  30
ENDBRANCH   3  28
TORSDOF 11
ENDMDL
MODEL 5
REMARK VINA RESULT:      -8.1      3.836      6.279
REMARK  11 active torsions:
REMARK  status: ('A' for Active; 'I' for Inactive)
REMARK    1  A    between atoms: C_3  and  N_4 
REMARK    2  A    between atoms: N_4  and  C_5 
REMARK    3  A    between atoms: C_7  and  C_8 
REMARK    4  A    between atoms: C_18  and  N_19 
REMARK       I    between atoms: N_19  and  C_20 
REMARK    5  A    between atoms: C_20  and  C_21 
REMARK    6  A    between atoms: C_22  and  C_23 
REMARK    7  A    between atoms: C_26  and  O_27 
REMARK    8  A    between atoms: O_27  and  C_28 
REMARK    9  A    between atoms: C_28  and  C_29 
REMARK   10  A    between atoms: C_29  and  C_30 
REMARK   11  A    between atoms: C_30  and  N_31 
ROOT
HETATM    1  C   UNL     1      -5.636  -2.086 -34.114  1.00  0.00     0.050 C 
HETATM    2  C   UNL     1      -5.040  -0.831 -33.533  1.00  0.00    -0.035 A 
HETATM    3  C   UNL     1      -5.626   0.437 -33.740  1.00  0.00     0.057 A 
HETATM    4  C   UNL     1      -5.038   1.552 -33.117  1.00  0.00     0.060 A 
HETATM    5  C   UNL     1      -3.905   1.439 -32.310  1.00  0.00     0.037 A 
HETATM    6  C   UNL     1      -3.343   0.177 -32.111  1.00  0.00     0.030 A 
HETATM    7  C   UNL     1      -3.902  -0.946 -32.718  1.00  0.00     0.011 A 
ENDROOT
BRANCH   5   8
HETATM    8  N   UNL     1      -3.301   2.528 -31.647  1.00  0.00    -0.324 N 
HETATM    9  C   UNL     1      -2.722   3.642 -32.220  1.00  0.00     0.245 C 
HETATM   10  O   UNL     1      -2.516   3.855 -33.406  1.00  0.00    -0.268 OA
HETATM   11  H   UNL     1      -3.307   2.470 -30.639  1.00  0.00     0.169 HD
BRANCH   9  12
HETATM   12  C   UNL     1      -2.319   4.629 -31.183  1.00  0.00     0.075 C 
HETATM   13  C   UNL     1      -1.067   5.108 -31.143  1.00  0.00     0.017 C 
BRANCH  13  14
HETATM   14  C   UNL     1      -0.712   6.089 -30.122  1.00  0.00    -0.036 A 
HETATM   15  C   UNL     1      -1.294   7.359 -30.139  1.00  0.00     0.014 A 
HETATM   16  C   UNL     1      -0.874   8.336 -29.232  1.00  0.00     0.037 A 
HETATM   17  C   UNL     1       0.143   8.048 -28.324  1.00  0.00     0.068 A 
HETATM   18  C   UNL     1       0.687   6.765 -28.268  1.00  0.00     0.037 A 
HETATM   19  C   UNL     1       0.267   5.788 -29.170  1.00  0.00     0.014 A 
BRANCH  17  20
HETATM   20  O   UNL     1       0.614   8.935 -27.400  1.00  0.00    -0.351 OA
BRANCH  20  21
HETATM   21  C   UNL     1      -0.291   9.969 -27.009  1.00  0.00     0.177 C 
BRANCH  21  22
HETATM   22  C   UNL     1      -0.758   9.654 -25.590  1.00  0.00     0.054 C 
BRANCH  22  23
HETATM   23  C   UNL     1      -2.280   9.727 -25.500  1.00  0.00     0.236 C 
BRANCH  23  24
HETATM   24  N   UNL     1      -2.855   8.483 -24.853  1.00  0.00    -0.079 N 
HETATM   25  H   UNL     1      -2.491   8.426 -23.892  1.00  0.00     0.278 HD
HETATM   26  C   UNL     1      -4.359   8.501 -24.766  1.00  0.00     0.269 C 
HETATM   27  C   UNL     1      -2.378   7.242 -25.565  1.00  0.00     0.269 C 
ENDBRANCH  23  24
ENDBRANCH  22  23
ENDBRANCH  21  22
ENDBRANCH  20  21
ENDBRANCH  17  20
ENDBRANCH  13  14
ENDBRANCH   9  12
ENDBRANCH   5   8
BRANCH   3  28
HETATM   28  N   UNL     1      -6.818   0.547 -34.479  1.00  0.00    -0.188 N 
HETATM   29  H   UNL     1      -6.721   0.807 -35.448  1.00  0.00     0.184 HD
BRANCH  28  30
HETATM   30  C   UNL     1      -8.136   0.765 -34.083  1.00  0.00     0.727 A 
HETATM   31  N   UNL     1      -8.796   1.877 -34.442  1.00  0.00    -0.062 NA
HETATM   32  C   UNL     1     -10.077   2.047 -34.045  1.00  0.00     0.089 A 
HETATM   33  C   UNL     1     -10.698   1.092 -33.265  1.00  0.00     0.053 A 
HETATM   34  C   UNL     1      -9.942  -0.003 -32.918  1.00  0.00     0.139 A 
HETATM   35  N   UNL     1      -8.669  -0.183 -33.301  1.00  0.00    -0.075 NA
BRANCH  32  36
HETATM   36  C   UNL     1     -10.722   3.303 -34.494  1.00  0.00     0.011 A 
HETATM   37  C   UNL     1     -12.041   3.317 -34.969  1.00  0.00     0.130 A 
HETATM   38  N   UNL     1     -12.710   4.415 -35.421  1.00  0.00    -0.272 NA
HETATM   39  C   UNL     1     -12.039   5.580 -35.397  1.00  0.00     0.116 A 
HETATM   40  C   UNL     1     -10.739   5.700 -34.946  1.00  0.00     0.020 A 
HETATM   41  C   UNL     1     -10.082   4.553 -34.495  1.00  0.00     0.017 A 
ENDBRANCH  32  36
ENDBRANCH  28  30
ENDBRANCH   3  28
TORSDOF 11
ENDMDL
MODEL 6
REMARK VINA RESULT:      -8.1      3.644      5.656
REMARK  11 active torsions:
REMARK  status: ('A' for Active; 'I' for Inactive)
REMARK    1  A    between atoms: C_3  and  N_4 
REMARK    2  A    between atoms: N_4  and  C_5 
REMARK    3  A    between atoms: C_7  and  C_8 
REMARK    4  A    between atoms: C_18  and  N_19 
REMARK       I    between atoms: N_19  and  C_20 
REMARK    5  A    between atoms: C_20  and  C_21 
REMARK    6  A    between atoms: C_22  and  C_23 
REMARK    7  A    between atoms: C_26  and  O_27 
REMARK    8  A    between atoms: O_27  and  C_28 
REMARK    9  A    between atoms: C_28  and  C_29 
REMARK   10  A    between atoms: C_29  and  C_30 
REMARK   11  A    between atoms: C_30  and  N_31 
ROOT
HETATM    1  C   UNL     1      -6.171  -1.856 -34.195  1.00  0.00     0.050 C 
HETATM    2  C   UNL     1      -5.473  -0.655 -33.613  1.00  0.00    -0.035 A 
HETATM    3  C   UNL     1      -5.951   0.657 -33.822  1.00  0.00     0.057 A 
HETATM    4  C   UNL     1      -5.273   1.720 -33.198  1.00  0.00     0.060 A 
HETATM    5  C   UNL     1      -4.155   1.513 -32.388  1.00  0.00     0.037 A 
HETATM    6  C   UNL     1      -3.702   0.209 -32.186  1.00  0.00     0.030 A 
HETATM    7  C   UNL     1      -4.352  -0.865 -32.794  1.00  0.00     0.011 A 
ENDROOT
BRANCH   5   8
HETATM    8  N   UNL     1      -3.464   2.547 -31.724  1.00  0.00    -0.324 N 
HETATM    9  C   UNL     1      -2.779   3.600 -32.295  1.00  0.00     0.245 C 
HETATM   10  O   UNL     1      -2.538   3.784 -33.480  1.00  0.00    -0.268 OA
HETATM   11  H   UNL     1      -3.489   2.499 -30.715  1.00  0.00     0.169 HD
BRANCH   9  12
HETATM   12  C   UNL     1      -2.302   4.555 -31.259  1.00  0.00     0.075 C 
HETATM   13  C   UNL     1      -1.116   5.168 -31.387  1.00  0.00     0.017 C 
BRANCH  13  14
HETATM   14  C   UNL     1      -0.689   6.112 -30.359  1.00  0.00    -0.036 A 
HETATM   15  C   UNL     1       0.254   5.728 -29.403  1.00  0.00     0.014 A 
HETATM   16  C   UNL     1       0.582   6.589 -28.353  1.00  0.00     0.037 A 
HETATM   17  C   UNL     1      -0.053   7.826 -28.247  1.00  0.00     0.068 A 
HETATM   18  C   UNL     1      -0.954   8.235 -29.230  1.00  0.00     0.037 A 
HETATM   19  C   UNL     1      -1.279   7.378 -30.281  1.00  0.00     0.014 A 
BRANCH  17  20
HETATM   20  O   UNL     1       0.206   8.733 -27.261  1.00  0.00    -0.351 OA
BRANCH  20  21
HETATM   21  C   UNL     1       0.548   8.189 -25.985  1.00  0.00     0.177 C 
BRANCH  21  22
HETATM   22  C   UNL     1       1.249   9.291 -25.193  1.00  0.00     0.054 C 
BRANCH  22  23
HETATM   23  C   UNL     1       2.735   8.978 -25.043  1.00  0.00     0.236 C 
BRANCH  23  24
HETATM   24  N   UNL     1       3.304   9.594 -23.780  1.00  0.00    -0.079 N 
HETATM   25  H   UNL     1       3.046  10.590 -23.768  1.00  0.00     0.278 HD
HETATM   26  C   UNL     1       2.762   8.971 -22.519  1.00  0.00     0.269 C 
HETATM   27  C   UNL     1       4.811   9.542 -23.793  1.00  0.00     0.269 C 
ENDBRANCH  23  24
ENDBRANCH  22  23
ENDBRANCH  21  22
ENDBRANCH  20  21
ENDBRANCH  17  20
ENDBRANCH  13  14
ENDBRANCH   9  12
ENDBRANCH   5   8
BRANCH   3  28
HETATM   28  N   UNL     1      -7.127   0.867 -34.565  1.00  0.00    -0.188 N 
HETATM   29  H   UNL     1      -7.007   1.190 -35.512  1.00  0.00     0.184 HD
BRANCH  28  30
HETATM   30  C   UNL     1      -8.441   1.108 -34.170  1.00  0.00     0.727 A 
HETATM   31  N   UNL     1      -9.077   2.237 -34.519  1.00  0.00    -0.062 NA
HETATM   32  C   UNL     1     -10.354   2.430 -34.123  1.00  0.00     0.089 A 
HETATM   33  C   UNL     1     -10.997   1.481 -33.354  1.00  0.00     0.053 A 
HETATM   34  C   UNL     1     -10.265   0.367 -33.016  1.00  0.00     0.139 A 
HETATM   35  N   UNL     1      -8.995   0.164 -33.398  1.00  0.00    -0.075 NA
BRANCH  32  36
HETATM   36  C   UNL     1     -10.973   3.703 -34.561  1.00  0.00     0.011 A 
HETATM   37  C   UNL     1     -10.192   4.792 -34.972  1.00  0.00     0.130 A 
HETATM   38  N   UNL     1     -10.668   6.005 -35.370  1.00  0.00    -0.272 NA
HETATM   39  C   UNL     1     -12.004   6.155 -35.375  1.00  0.00     0.116 A 
HETATM   40  C   UNL     1     -12.882   5.156 -35.001  1.00  0.00     0.020 A 
HETATM   41  C   UNL     1     -12.360   3.927 -34.591  1.00  0.00     0.017 A 
ENDBRANCH  32  36
ENDBRANCH  28  30
ENDBRANCH   3  28
TORSDOF 11
ENDMDL
MODEL 7
REMARK VINA RESULT:      -7.8      8.122     13.849
REMARK  11 active torsions:
REMARK  status: ('A' for Active; 'I' for Inactive)
REMARK    1  A    between atoms: C_3  and  N_4 
REMARK    2  A    between atoms: N_4  and  C_5 
REMARK    3  A    between atoms: C_7  and  C_8 
REMARK    4  A    between atoms: C_18  and  N_19 
REMARK       I    between atoms: N_19  and  C_20 
REMARK    5  A    between atoms: C_20  and  C_21 
REMARK    6  A    between atoms: C_22  and  C_23 
REMARK    7  A    between atoms: C_26  and  O_27 
REMARK    8  A    between atoms: O_27  and  C_28 
REMARK    9  A    between atoms: C_28  and  C_29 
REMARK   10  A    between atoms: C_29  and  C_30 
REMARK   11  A    between atoms: C_30  and  N_31 
ROOT
HETATM    1  C   UNL     1     -17.932   3.918 -31.445  1.00  0.00     0.050 C 
HETATM    2  C   UNL     1     -16.566   3.530 -31.944  1.00  0.00    -0.035 A 
HETATM    3  C   UNL     1     -15.490   4.444 -31.957  1.00  0.00     0.057 A 
HETATM    4  C   UNL     1     -14.232   3.987 -32.388  1.00  0.00     0.060 A 
HETATM    5  C   UNL     1     -14.023   2.668 -32.796  1.00  0.00     0.037 A 
HETATM    6  C   UNL     1     -15.095   1.776 -32.769  1.00  0.00     0.030 A 
HETATM    7  C   UNL     1     -16.355   2.202 -32.350  1.00  0.00     0.011 A 
ENDROOT
BRANCH   5   8
HETATM    8  N   UNL     1     -12.772   2.163 -33.209  1.00  0.00    -0.324 N 
HETATM    9  C   UNL     1     -12.377   1.848 -34.493  1.00  0.00     0.245 C 
HETATM   10  O   UNL     1     -13.061   1.835 -35.507  1.00  0.00    -0.268 OA
HETATM   11  H   UNL     1     -12.099   2.029 -32.467  1.00  0.00     0.169 HD
BRANCH   9  12
HETATM   12  C   UNL     1     -10.938   1.475 -34.535  1.00  0.00     0.075 C 
HETATM   13  C   UNL     1     -10.373   0.809 -33.518  1.00  0.00     0.017 C 
BRANCH  13  14
HETATM   14  C   UNL     1      -8.962   0.444 -33.602  1.00  0.00    -0.036 A 
HETATM   15  C   UNL     1      -8.327   0.384 -34.845  1.00  0.00     0.014 A 
HETATM   16  C   UNL     1      -7.009  -0.072 -34.940  1.00  0.00     0.037 A 
HETATM   17  C   UNL     1      -6.337  -0.490 -33.793  1.00  0.00     0.068 A 
HETATM   18  C   UNL     1      -6.949  -0.380 -32.544  1.00  0.00     0.037 A 
HETATM   19  C   UNL     1      -8.262   0.079 -32.448  1.00  0.00     0.014 A 
BRANCH  17  20
HETATM   20  O   UNL     1      -5.050  -0.945 -33.787  1.00  0.00    -0.351 OA
BRANCH  20  21
HETATM   21  C   UNL     1      -4.395  -0.950 -32.518  1.00  0.00     0.177 C 
BRANCH  21  22
HETATM   22  C   UNL     1      -3.221   0.023 -32.607  1.00  0.00     0.054 C 
BRANCH  22  23
HETATM   23  C   UNL     1      -3.410   1.179 -31.629  1.00  0.00     0.236 C 
BRANCH  23  24
HETATM   24  N   UNL     1      -3.622   2.491 -32.359  1.00  0.00    -0.079 N 
HETATM   25  H   UNL     1      -3.175   2.416 -33.283  1.00  0.00     0.278 HD
HETATM   26  C   UNL     1      -5.076   2.816 -32.585  1.00  0.00     0.269 C 
HETATM   27  C   UNL     1      -2.931   3.620 -31.638  1.00  0.00     0.269 C 
ENDBRANCH  23  24
ENDBRANCH  22  23
ENDBRANCH  21  22
ENDBRANCH  20  21
ENDBRANCH  17  20
ENDBRANCH  13  14
ENDBRANCH   9  12
ENDBRANCH   5   8
BRANCH   3  28
HETATM   28  N   UNL     1     -15.672   5.750 -31.465  1.00  0.00    -0.188 N 
HETATM   29  H   UNL     1     -16.333   6.327 -31.961  1.00  0.00     0.184 HD
BRANCH  28  30
HETATM   30  C   UNL     1     -14.857   6.566 -30.684  1.00  0.00     0.727 A 
HETATM   31  N   UNL     1     -14.848   6.464 -29.345  1.00  0.00    -0.062 NA
HETATM   32  C   UNL     1     -14.037   7.268 -28.623  1.00  0.00     0.089 A 
HETATM   33  C   UNL     1     -13.234   8.197 -29.254  1.00  0.00     0.053 A 
HETATM   34  C   UNL     1     -13.326   8.257 -30.624  1.00  0.00     0.139 A 
HETATM   35  N   UNL     1     -14.129   7.468 -31.355  1.00  0.00    -0.075 NA
BRANCH  32  36
HETATM   36  C   UNL     1     -14.093   7.077 -27.155  1.00  0.00     0.011 A 
HETATM   37  C   UNL     1     -13.434   7.950 -26.279  1.00  0.00     0.130 A 
HETATM   38  N   UNL     1     -13.411   7.844 -24.920  1.00  0.00    -0.272 NA
HETATM   39  C   UNL     1     -14.089   6.813 -24.386  1.00  0.00     0.116 A 
HETATM   40  C   UNL     1     -14.786   5.889 -25.140  1.00  0.00     0.020 A 
HETATM   41  C   UNL     1     -14.783   6.024 -26.531  1.00  0.00     0.017 A 
ENDBRANCH  32  36
ENDBRANCH  28  30
ENDBRANCH   3  28
TORSDOF 11
ENDMDL
MODEL 8
REMARK VINA RESULT:      -7.6     10.226     14.542
REMARK  11 active torsions:
REMARK  status: ('A' for Active; 'I' for Inactive)
REMARK    1  A    between atoms: C_3  and  N_4 
REMARK    2  A    between atoms: N_4  and  C_5 
REMARK    3  A    between atoms: C_7  and  C_8 
REMARK    4  A    between atoms: C_18  and  N_19 
REMARK       I    between atoms: N_19  and  C_20 
REMARK    5  A    between atoms: C_20  and  C_21 
REMARK    6  A    between atoms: C_22  and  C_23 
REMARK    7  A    between atoms: C_26  and  O_27 
REMARK    8  A    between atoms: O_27  and  C_28 
REMARK    9  A    between atoms: C_28  and  C_29 
REMARK   10  A    between atoms: C_29  and  C_30 
REMARK   11  A    between atoms: C_30  and  N_31 
ROOT
HETATM    1  C   UNL     1     -18.155   3.941 -31.460  1.00  0.00     0.050 C 
HETATM    2  C   UNL     1     -16.777   3.557 -31.933  1.00  0.00    -0.035 A 
HETATM    3  C   UNL     1     -15.692   4.458 -31.876  1.00  0.00     0.057 A 
HETATM    4  C   UNL     1     -14.426   4.004 -32.285  1.00  0.00     0.060 A 
HETATM    5  C   UNL     1     -14.217   2.701 -32.740  1.00  0.00     0.037 A 
HETATM    6  C   UNL     1     -15.299   1.821 -32.781  1.00  0.00     0.030 A 
HETATM    7  C   UNL     1     -16.567   2.244 -32.385  1.00  0.00     0.011 A 
ENDROOT
BRANCH   5   8
HETATM    8  N   UNL     1     -12.960   2.198 -33.134  1.00  0.00    -0.324 N 
HETATM    9  C   UNL     1     -12.550   1.870 -34.410  1.00  0.00     0.245 C 
HETATM   10  O   UNL     1     -13.223   1.840 -35.430  1.00  0.00    -0.268 OA
HETATM   11  H   UNL     1     -12.294   2.077 -32.384  1.00  0.00     0.169 HD
BRANCH   9  12
HETATM   12  C   UNL     1     -11.108   1.505 -34.433  1.00  0.00     0.075 C 
HETATM   13  C   UNL     1     -10.442   1.273 -33.292  1.00  0.00     0.017 C 
BRANCH  13  14
HETATM   14  C   UNL     1      -9.032   0.900 -33.355  1.00  0.00    -0.036 A 
HETATM   15  C   UNL     1      -8.485   0.426 -34.549  1.00  0.00     0.014 A 
HETATM   16  C   UNL     1      -7.167  -0.037 -34.584  1.00  0.00     0.037 A 
HETATM   17  C   UNL     1      -6.405  -0.046 -33.417  1.00  0.00     0.068 A 
HETATM   18  C   UNL     1      -6.930   0.478 -32.236  1.00  0.00     0.037 A 
HETATM   19  C   UNL     1      -8.244   0.943 -32.200  1.00  0.00     0.014 A 
BRANCH  17  20
HETATM   20  O   UNL     1      -5.110  -0.474 -33.355  1.00  0.00    -0.351 OA
BRANCH  20  21
HETATM   21  C   UNL     1      -4.624  -0.806 -32.054  1.00  0.00     0.177 C 
BRANCH  21  22
HETATM   22  C   UNL     1      -3.610  -1.936 -32.221  1.00  0.00     0.054 C 
BRANCH  22  23
HETATM   23  C   UNL     1      -3.610  -2.444 -33.661  1.00  0.00     0.236 C 
BRANCH  23  24
HETATM   24  N   UNL     1      -4.547  -3.623 -33.830  1.00  0.00    -0.079 N 
HETATM   25  H   UNL     1      -5.122  -3.698 -32.980  1.00  0.00     0.278 HD
HETATM   26  C   UNL     1      -5.486  -3.471 -34.999  1.00  0.00     0.269 C 
HETATM   27  C   UNL     1      -3.771  -4.912 -33.936  1.00  0.00     0.269 C 
ENDBRANCH  23  24
ENDBRANCH  22  23
ENDBRANCH  21  22
ENDBRANCH  20  21
ENDBRANCH  17  20
ENDBRANCH  13  14
ENDBRANCH   9  12
ENDBRANCH   5   8
BRANCH   3  28
HETATM   28  N   UNL     1     -15.876   5.746 -31.338  1.00  0.00    -0.188 N 
HETATM   29  H   UNL     1     -16.535   6.341 -31.816  1.00  0.00     0.184 HD
BRANCH  28  30
HETATM   30  C   UNL     1     -15.065   6.533 -30.524  1.00  0.00     0.727 A 
HETATM   31  N   UNL     1     -15.156   6.476 -29.186  1.00  0.00    -0.062 NA
HETATM   32  C   UNL     1     -14.345   7.249 -28.431  1.00  0.00     0.089 A 
HETATM   33  C   UNL     1     -13.440   8.102 -29.029  1.00  0.00     0.053 A 
HETATM   34  C   UNL     1     -13.431   8.122 -30.403  1.00  0.00     0.139 A 
HETATM   35  N   UNL     1     -14.233   7.363 -31.167  1.00  0.00    -0.075 NA
BRANCH  32  36
HETATM   36  C   UNL     1     -14.516   7.111 -26.966  1.00  0.00     0.011 A 
HETATM   37  C   UNL     1     -14.431   8.220 -26.113  1.00  0.00     0.130 A 
HETATM   38  N   UNL     1     -14.553   8.189 -24.756  1.00  0.00    -0.272 NA
HETATM   39  C   UNL     1     -14.784   6.987 -24.200  1.00  0.00     0.116 A 
HETATM   40  C   UNL     1     -14.898   5.820 -24.931  1.00  0.00     0.020 A 
HETATM   41  C   UNL     1     -14.761   5.888 -26.320  1.00  0.00     0.017 A 
ENDBRANCH  32  36
ENDBRANCH  28  30
ENDBRANCH   3  28
TORSDOF 11
ENDMDL
MODEL 9
REMARK VINA RESULT:      -7.6      5.964      9.408
REMARK  11 active torsions:
REMARK  status: ('A' for Active; 'I' for Inactive)
REMARK    1  A    between atoms: C_3  and  N_4 
REMARK    2  A    between atoms: N_4  and  C_5 
REMARK    3  A    between atoms: C_7  and  C_8 
REMARK    4  A    between atoms: C_18  and  N_19 
REMARK       I    between atoms: N_19  and  C_20 
REMARK    5  A    between atoms: C_20  and  C_21 
REMARK    6  A    between atoms: C_22  and  C_23 
REMARK    7  A    between atoms: C_26  and  O_27 
REMARK    8  A    between atoms: O_27  and  C_28 
REMARK    9  A    between atoms: C_28  and  C_29 
REMARK   10  A    between atoms: C_29  and  C_30 
REMARK   11  A    between atoms: C_30  and  N_31 
ROOT
HETATM    1  C   UNL     1     -12.783   0.018 -33.636  1.00  0.00     0.050 C 
HETATM    2  C   UNL     1     -11.407   0.620 -33.536  1.00  0.00    -0.035 A 
HETATM    3  C   UNL     1     -11.087   1.853 -34.145  1.00  0.00     0.057 A 
HETATM    4  C   UNL     1      -9.795   2.374 -33.958  1.00  0.00     0.060 A 
HETATM    5  C   UNL     1      -8.832   1.711 -33.195  1.00  0.00     0.037 A 
HETATM    6  C   UNL     1      -9.167   0.498 -32.593  1.00  0.00     0.030 A 
HETATM    7  C   UNL     1     -10.440  -0.045 -32.764  1.00  0.00     0.011 A 
ENDROOT
BRANCH   5   8
HETATM    8  N   UNL     1      -7.534   2.212 -32.961  1.00  0.00    -0.324 N 
HETATM    9  C   UNL     1      -6.350   1.761 -33.508  1.00  0.00     0.245 C 
HETATM   10  O   UNL     1      -6.175   0.776 -34.209  1.00  0.00    -0.268 OA
HETATM   11  H   UNL     1      -7.486   2.993 -32.322  1.00  0.00     0.169 HD
BRANCH   9  12
HETATM   12  C   UNL     1      -5.213   2.638 -33.120  1.00  0.00     0.075 C 
HETATM   13  C   UNL     1      -4.855   3.677 -33.888  1.00  0.00     0.017 C 
BRANCH  13  14
HETATM   14  C   UNL     1      -3.745   4.525 -33.467  1.00  0.00    -0.036 A 
HETATM   15  C   UNL     1      -2.672   3.975 -32.761  1.00  0.00     0.014 A 
HETATM   16  C   UNL     1      -1.663   4.802 -32.259  1.00  0.00     0.037 A 
HETATM   17  C   UNL     1      -1.742   6.182 -32.444  1.00  0.00     0.068 A 
HETATM   18  C   UNL     1      -2.783   6.727 -33.195  1.00  0.00     0.037 A 
HETATM   19  C   UNL     1      -3.788   5.903 -33.699  1.00  0.00     0.014 A 
BRANCH  17  20
HETATM   20  O   UNL     1      -0.804   7.066 -31.995  1.00  0.00    -0.351 OA
BRANCH  20  21
HETATM   21  C   UNL     1       0.231   6.517 -31.177  1.00  0.00     0.177 C 
BRANCH  21  22
HETATM   22  C   UNL     1       0.096   7.142 -29.791  1.00  0.00     0.054 C 
BRANCH  22  23
HETATM   23  C   UNL     1       0.571   6.167 -28.717  1.00  0.00     0.236 C 
BRANCH  23  24
HETATM   24  N   UNL     1       0.985   6.897 -27.454  1.00  0.00    -0.079 N 
HETATM   25  H   UNL     1       1.771   6.384 -27.033  1.00  0.00     0.278 HD
HETATM   26  C   UNL     1       1.451   8.307 -27.709  1.00  0.00     0.269 C 
HETATM   27  C   UNL     1      -0.129   6.881 -26.439  1.00  0.00     0.269 C 
ENDBRANCH  23  24
ENDBRANCH  22  23
ENDBRANCH  21  22
ENDBRANCH  20  21
ENDBRANCH  17  20
ENDBRANCH  13  14
ENDBRANCH   9  12
ENDBRANCH   5   8
BRANCH   3  28
HETATM   28  N   UNL     1     -12.078   2.569 -34.843  1.00  0.00    -0.188 N 
HETATM   29  H   UNL     1     -12.201   2.332 -35.815  1.00  0.00     0.184 HD
BRANCH  28  30
HETATM   30  C   UNL     1     -12.664   3.810 -34.604  1.00  0.00     0.727 A 
HETATM   31  N   UNL     1     -12.607   4.794 -35.515  1.00  0.00    -0.062 NA
HETATM   32  C   UNL     1     -13.195   5.981 -35.249  1.00  0.00     0.089 A 
HETATM   33  C   UNL     1     -13.839   6.186 -34.045  1.00  0.00     0.053 A 
HETATM   34  C   UNL     1     -13.826   5.138 -33.157  1.00  0.00     0.139 A 
HETATM   35  N   UNL     1     -13.242   3.955 -33.405  1.00  0.00    -0.075 NA
BRANCH  32  36
HETATM   36  C   UNL     1     -13.083   7.002 -36.317  1.00  0.00     0.011 A 
HETATM   37  C   UNL     1     -12.008   7.900 -36.360  1.00  0.00     0.130 A 
HETATM   38  N   UNL     1     -11.831   8.882 -37.288  1.00  0.00    -0.272 NA
HETATM   39  C   UNL     1     -12.771   8.983 -38.244  1.00  0.00     0.116 A 
HETATM   40  C   UNL     1     -13.874   8.154 -38.317  1.00  0.00     0.020 A 
HETATM   41  C   UNL     1     -14.027   7.162 -37.346  1.00  0.00     0.017 A 
ENDBRANCH  32  36
ENDBRANCH  28  30
ENDBRANCH   3  28
TORSDOF 11
ENDMDL
MODEL 10
REMARK VINA RESULT:      -7.5      7.449     11.055
REMARK  11 active torsions:
REMARK  status: ('A' for Active; 'I' for Inactive)
REMARK    1  A    between atoms: C_3  and  N_4 
REMARK    2  A    between atoms: N_4  and  C_5 
REMARK    3  A    between atoms: C_7  and  C_8 
REMARK    4  A    between atoms: C_18  and  N_19 
REMARK       I    between atoms: N_19  and  C_20 
REMARK    5  A    between atoms: C_20  and  C_21 
REMARK    6  A    between atoms: C_22  and  C_23 
REMARK    7  A    between atoms: C_26  and  O_27 
REMARK    8  A    between atoms: O_27  and  C_28 
REMARK    9  A    between atoms: C_28  and  C_29 
REMARK   10  A    between atoms: C_29  and  C_30 
REMARK   11  A    between atoms: C_30  and  N_31 
ROOT
HETATM    1  C   UNL     1      -2.913   3.472 -32.396  1.00  0.00     0.050 C 
HETATM    2  C   UNL     1      -4.050   4.019 -31.575  1.00  0.00    -0.035 A 
HETATM    3  C   UNL     1      -5.165   3.226 -31.225  1.00  0.00     0.057 A 
HETATM    4  C   UNL     1      -6.158   3.795 -30.409  1.00  0.00     0.060 A 
HETATM    5  C   UNL     1      -6.071   5.108 -29.943  1.00  0.00     0.037 A 
HETATM    6  C   UNL     1      -4.960   5.875 -30.292  1.00  0.00     0.030 A 
HETATM    7  C   UNL     1      -3.960   5.338 -31.102  1.00  0.00     0.011 A 
ENDROOT
BRANCH   5   8
HETATM    8  N   UNL     1      -7.032   5.708 -29.102  1.00  0.00    -0.324 N 
HETATM    9  C   UNL     1      -7.959   6.673 -29.441  1.00  0.00     0.245 C 
HETATM   10  O   UNL     1      -8.058   7.279 -30.498  1.00  0.00    -0.268 OA
HETATM   11  H   UNL     1      -7.031   5.377 -28.148  1.00  0.00     0.169 HD
BRANCH   9  12
HETATM   12  C   UNL     1      -8.885   6.948 -28.311  1.00  0.00     0.075 C 
HETATM   13  C   UNL     1      -9.838   7.885 -28.418  1.00  0.00     0.017 C 
BRANCH  13  14
HETATM   14  C   UNL     1     -10.740   8.116 -27.294  1.00  0.00    -0.036 A 
HETATM   15  C   UNL     1     -10.259   8.046 -25.985  1.00  0.00     0.014 A 
HETATM   16  C   UNL     1     -11.140   8.155 -24.905  1.00  0.00     0.037 A 
HETATM   17  C   UNL     1     -12.506   8.310 -25.139  1.00  0.00     0.068 A 
HETATM   18  C   UNL     1     -12.982   8.434 -26.444  1.00  0.00     0.037 A 
HETATM   19  C   UNL     1     -12.103   8.330 -27.522  1.00  0.00     0.014 A 
BRANCH  17  20
HETATM   20  O   UNL     1     -13.439   8.430 -24.151  1.00  0.00    -0.351 OA
BRANCH  20  21
HETATM   21  C   UNL     1     -14.665   9.062 -24.523  1.00  0.00     0.177 C 
BRANCH  21  22
HETATM   22  C   UNL     1     -15.791   8.346 -23.780  1.00  0.00     0.054 C 
BRANCH  22  23
HETATM   23  C   UNL     1     -15.924   6.907 -24.270  1.00  0.00     0.236 C 
BRANCH  23  24
HETATM   24  N   UNL     1     -17.376   6.528 -24.482  1.00  0.00    -0.079 N 
HETATM   25  H   UNL     1     -17.767   6.242 -23.574  1.00  0.00     0.278 HD
HETATM   26  C   UNL     1     -18.217   7.667 -24.998  1.00  0.00     0.269 C 
HETATM   27  C   UNL     1     -17.488   5.330 -25.392  1.00  0.00     0.269 C 
ENDBRANCH  23  24
ENDBRANCH  22  23
ENDBRANCH  21  22
ENDBRANCH  20  21
ENDBRANCH  17  20
ENDBRANCH  13  14
ENDBRANCH   9  12
ENDBRANCH   5   8
BRANCH   3  28
HETATM   28  N   UNL     1      -5.217   1.875 -31.618  1.00  0.00    -0.188 N 
HETATM   29  H   UNL     1      -4.533   1.262 -31.205  1.00  0.00     0.184 HD
BRANCH  28  30
HETATM   30  C   UNL     1      -5.749   1.261 -32.750  1.00  0.00     0.727 A 
HETATM   31  N   UNL     1      -5.554  -0.045 -32.990  1.00  0.00    -0.062 NA
HETATM   32  C   UNL     1      -6.093  -0.606 -34.094  1.00  0.00     0.089 A 
HETATM   33  C   UNL     1      -6.827   0.160 -34.978  1.00  0.00     0.053 A 
HETATM   34  C   UNL     1      -6.954   1.494 -34.674  1.00  0.00     0.139 A 
HETATM   35  N   UNL     1      -6.421   2.066 -33.583  1.00  0.00    -0.075 NA
BRANCH  32  36
HETATM   36  C   UNL     1      -5.827  -2.053 -34.270  1.00  0.00     0.011 A 
HETATM   37  C   UNL     1      -4.560  -2.599 -34.023  1.00  0.00     0.130 A 
HETATM   38  N   UNL     1      -4.217  -3.909 -34.175  1.00  0.00    -0.272 NA
HETATM   39  C   UNL     1      -5.188  -4.741 -34.590  1.00  0.00     0.116 A 
HETATM   40  C   UNL     1      -6.479  -4.329 -34.859  1.00  0.00     0.020 A 
HETATM   41  C   UNL     1      -6.795  -2.977 -34.698  1.00  0.00     0.017 A 
ENDBRANCH  32  36
ENDBRANCH  28  30
ENDBRANCH   3  28
TORSDOF 11
ENDMDL
