MODEL 1
REMARK VINA RESULT:      -7.4      0.000      0.000
REMARK  6 active torsions:
REMARK  status: ('A' for Active; 'I' for Inactive)
REMARK    1  A    between atoms: C_2  and  O_3 
REMARK    2  A    between atoms: O_3  and  C_4 
REMARK    3  A    between atoms: C_4  and  C_5 
REMARK    4  A    between atoms: C_6  and  O_7 
REMARK    5  A    between atoms: C_12  and  O_13 
REMARK    6  A    between atoms: C_17  and  C_18 
ROOT
HETATM    1  C   UNL     1      -3.116   4.169 -33.164  1.00  0.00     0.133 C 
HETATM    2  C   UNL     1      -4.035   5.273 -33.796  1.00  0.00     0.073 C 
HETATM    3  C   UNL     1      -5.178   4.626 -34.596  1.00  0.00     0.047 C 
HETATM    4  C   UNL     1      -4.626   6.271 -32.762  1.00  0.00     0.097 C 
HETATM    5  C   UNL     1      -5.086   5.537 -31.564  1.00  0.00     0.042 A 
HETATM    6  C   UNL     1      -4.644   4.305 -31.128  1.00  0.00     0.030 A 
HETATM    7  C   UNL     1      -5.373   4.112 -29.942  1.00  0.00     0.190 A 
HETATM    8  N   UNL     1      -6.209   5.103 -29.660  1.00  0.00    -0.149 NA
HETATM    9  N   UNL     1      -6.017   5.971 -30.667  1.00  0.00    -0.279 N 
HETATM   10  H   UNL     1      -6.550   6.835 -30.667  1.00  0.00     0.189 HD
HETATM   11  C   UNL     1      -3.577   3.529 -31.822  1.00  0.00     0.075 C 
ENDROOT
BRANCH  11  12
HETATM   12  C   UNL     1      -4.034   2.085 -31.977  1.00  0.00    -0.045 A 
HETATM   13  C   UNL     1      -5.120   1.686 -32.772  1.00  0.00     0.050 A 
HETATM   14  C   UNL     1      -5.461   0.339 -32.875  1.00  0.00     0.117 A 
HETATM   15  F   UNL     1      -6.502  -0.019 -33.636  1.00  0.00    -0.206 F 
HETATM   16  C   UNL     1      -4.739  -0.640 -32.203  1.00  0.00     0.042 A 
HETATM   17  C   UNL     1      -3.655  -0.267 -31.417  1.00  0.00     0.004 A 
HETATM   18  C   UNL     1      -3.302   1.082 -31.310  1.00  0.00     0.008 A 
ENDBRANCH  11  12
BRANCH   1  19
HETATM   19  C   UNL     1      -1.732   4.735 -32.917  1.00  0.00     0.267 C 
HETATM   20  O   UNL     1      -1.045   5.291 -33.763  1.00  0.00    -0.265 OA
BRANCH  19  21
HETATM   21  O   UNL     1      -1.367   4.527 -31.621  1.00  0.00    -0.316 OA
BRANCH  21  22
HETATM   22  C   UNL     1      -0.637   5.588 -30.974  1.00  0.00     0.123 C 
HETATM   23  C   UNL     1       0.332   5.014 -29.945  1.00  0.00     0.040 C 
HETATM   24  C   UNL     1      -1.669   6.477 -30.291  1.00  0.00     0.040 C 
ENDBRANCH  21  22
ENDBRANCH  19  21
ENDBRANCH   1  19
BRANCH   2  25
HETATM   25  O   UNL     1      -3.295   6.015 -34.786  1.00  0.00    -0.389 OA
HETATM   26  H   UNL     1      -2.348   5.985 -34.543  1.00  0.00     0.210 HD
ENDBRANCH   2  25
BRANCH   7  27
HETATM   27  O   UNL     1      -5.351   3.093 -29.080  1.00  0.00    -0.343 OA
HETATM   28  H   UNL     1      -4.486   3.048 -28.647  1.00  0.00     0.219 HD
ENDBRANCH   7  27
TORSDOF 6
ENDMDL
MODEL 2
REMARK VINA RESULT:      -7.3      3.439      6.286
REMARK  6 active torsions:
REMARK  status: ('A' for Active; 'I' for Inactive)
REMARK    1  A    between atoms: C_2  and  O_3 
REMARK    2  A    between atoms: O_3  and  C_4 
REMARK    3  A    between atoms: C_4  and  C_5 
REMARK    4  A    between atoms: C_6  and  O_7 
REMARK    5  A    between atoms: C_12  and  O_13 
REMARK    6  A    between atoms: C_17  and  C_18 
ROOT
HETATM    1  C   UNL     1      -6.056   1.203 -33.569  1.00  0.00     0.133 C 
HETATM    2  C   UNL     1      -5.865   0.100 -32.470  1.00  0.00     0.073 C 
HETATM    3  C   UNL     1      -4.394   0.031 -32.028  1.00  0.00     0.047 C 
HETATM    4  C   UNL     1      -6.773   0.287 -31.222  1.00  0.00     0.097 C 
HETATM    5  C   UNL     1      -6.795   1.712 -30.829  1.00  0.00     0.042 A 
HETATM    6  C   UNL     1      -6.540   2.799 -31.640  1.00  0.00     0.030 A 
HETATM    7  C   UNL     1      -6.742   3.889 -30.777  1.00  0.00     0.190 A 
HETATM    8  N   UNL     1      -7.070   3.539 -29.539  1.00  0.00    -0.149 NA
HETATM    9  N   UNL     1      -7.100   2.197 -29.591  1.00  0.00    -0.279 N 
HETATM   10  H   UNL     1      -7.343   1.687 -28.748  1.00  0.00     0.189 HD
HETATM   11  C   UNL     1      -6.220   2.676 -33.091  1.00  0.00     0.075 C 
ENDROOT
BRANCH  11  12
HETATM   12  C   UNL     1      -5.010   3.544 -33.408  1.00  0.00    -0.045 A 
HETATM   13  C   UNL     1      -3.795   3.483 -32.709  1.00  0.00     0.050 A 
HETATM   14  C   UNL     1      -2.728   4.300 -33.077  1.00  0.00     0.117 A 
HETATM   15  F   UNL     1      -1.579   4.228 -32.394  1.00  0.00    -0.206 F 
HETATM   16  C   UNL     1      -2.834   5.188 -34.140  1.00  0.00     0.042 A 
HETATM   17  C   UNL     1      -4.027   5.259 -34.852  1.00  0.00     0.004 A 
HETATM   18  C   UNL     1      -5.102   4.440 -34.493  1.00  0.00     0.008 A 
ENDBRANCH  11  12
BRANCH   1  19
HETATM   19  C   UNL     1      -7.277   0.885 -34.408  1.00  0.00     0.267 C 
HETATM   20  O   UNL     1      -7.306   0.059 -35.311  1.00  0.00    -0.265 OA
BRANCH  19  21
HETATM   21  O   UNL     1      -8.329   1.655 -34.013  1.00  0.00    -0.316 OA
BRANCH  21  22
HETATM   22  C   UNL     1      -9.643   1.086 -34.167  1.00  0.00     0.123 C 
HETATM   23  C   UNL     1     -10.687   2.190 -34.306  1.00  0.00     0.040 C 
HETATM   24  C   UNL     1      -9.912   0.258 -32.916  1.00  0.00     0.040 C 
ENDBRANCH  21  22
ENDBRANCH  19  21
ENDBRANCH   1  19
BRANCH   2  25
HETATM   25  O   UNL     1      -6.119  -1.202 -33.036  1.00  0.00    -0.389 OA
HETATM   26  H   UNL     1      -7.002  -1.496 -32.736  1.00  0.00     0.210 HD
ENDBRANCH   2  25
BRANCH   7  27
HETATM   27  O   UNL     1      -6.646   5.199 -31.016  1.00  0.00    -0.343 OA
HETATM   28  H   UNL     1      -7.138   5.692 -30.342  1.00  0.00     0.219 HD
ENDBRANCH   7  27
TORSDOF 6
ENDMDL
MODEL 3
REMARK VINA RESULT:      -7.1      2.840      5.898
REMARK  6 active torsions:
REMARK  status: ('A' for Active; 'I' for Inactive)
REMARK    1  A    between atoms: C_2  and  O_3 
REMARK    2  A    between atoms: O_3  and  C_4 
REMARK    3  A    between atoms: C_4  and  C_5 
REMARK    4  A    between atoms: C_6  and  O_7 
REMARK    5  A    between atoms: C_12  and  O_13 
REMARK    6  A    between atoms: C_17  and  C_18 
ROOT
HETATM    1  C   UNL     1      -5.074   1.942 -32.566  1.00  0.00     0.133 C 
HETATM    2  C   UNL     1      -4.742   1.140 -31.259  1.00  0.00     0.073 C 
HETATM    3  C   UNL     1      -3.225   1.127 -31.007  1.00  0.00     0.047 C 
HETATM    4  C   UNL     1      -5.474   1.666 -29.993  1.00  0.00     0.097 C 
HETATM    5  C   UNL     1      -5.437   3.144 -29.971  1.00  0.00     0.042 A 
HETATM    6  C   UNL     1      -5.287   3.984 -31.055  1.00  0.00     0.030 A 
HETATM    7  C   UNL     1      -5.367   5.262 -30.476  1.00  0.00     0.190 A 
HETATM    8  N   UNL     1      -5.527   5.243 -29.158  1.00  0.00    -0.149 NA
HETATM    9  N   UNL     1      -5.570   3.933 -28.867  1.00  0.00    -0.279 N 
HETATM   10  H   UNL     1      -5.700   3.658 -27.898  1.00  0.00     0.189 HD
HETATM   11  C   UNL     1      -5.166   3.492 -32.458  1.00  0.00     0.075 C 
ENDROOT
BRANCH  11  12
HETATM   12  C   UNL     1      -4.006   4.207 -33.136  1.00  0.00    -0.045 A 
HETATM   13  C   UNL     1      -2.710   4.285 -32.601  1.00  0.00     0.050 A 
HETATM   14  C   UNL     1      -1.698   4.943 -33.297  1.00  0.00     0.117 A 
HETATM   15  F   UNL     1      -0.471   5.009 -32.766  1.00  0.00    -0.206 F 
HETATM   16  C   UNL     1      -1.939   5.532 -34.532  1.00  0.00     0.042 A 
HETATM   17  C   UNL     1      -3.213   5.459 -35.084  1.00  0.00     0.004 A 
HETATM   18  C   UNL     1      -4.235   4.797 -34.395  1.00  0.00     0.008 A 
ENDBRANCH  11  12
BRANCH   1  19
HETATM   19  C   UNL     1      -6.398   1.472 -33.134  1.00  0.00     0.267 C 
HETATM   20  O   UNL     1      -7.490   1.926 -32.821  1.00  0.00    -0.265 OA
BRANCH  19  21
HETATM   21  O   UNL     1      -6.191   0.471 -34.035  1.00  0.00    -0.316 OA
BRANCH  21  22
HETATM   22  C   UNL     1      -7.241  -0.506 -34.171  1.00  0.00     0.123 C 
HETATM   23  C   UNL     1      -6.648  -1.907 -34.300  1.00  0.00     0.040 C 
HETATM   24  C   UNL     1      -8.018  -0.144 -35.430  1.00  0.00     0.040 C 
ENDBRANCH  21  22
ENDBRANCH  19  21
ENDBRANCH   1  19
BRANCH   2  25
HETATM   25  O   UNL     1      -5.076  -0.251 -31.442  1.00  0.00    -0.389 OA
HETATM   26  H   UNL     1      -4.262  -0.778 -31.312  1.00  0.00     0.210 HD
ENDBRANCH   2  25
BRANCH   7  27
HETATM   27  O   UNL     1      -5.298   6.467 -31.046  1.00  0.00    -0.343 OA
HETATM   28  H   UNL     1      -5.674   7.132 -30.452  1.00  0.00     0.219 HD
ENDBRANCH   7  27
TORSDOF 6
ENDMDL
MODEL 4
REMARK VINA RESULT:      -7.1      3.026      6.016
REMARK  6 active torsions:
REMARK  status: ('A' for Active; 'I' for Inactive)
REMARK    1  A    between atoms: C_2  and  O_3 
REMARK    2  A    between atoms: O_3  and  C_4 
REMARK    3  A    between atoms: C_4  and  C_5 
REMARK    4  A    between atoms: C_6  and  O_7 
REMARK    5  A    between atoms: C_12  and  O_13 
REMARK    6  A    between atoms: C_17  and  C_18 
ROOT
HETATM    1  C   UNL     1      -5.292   1.384 -31.572  1.00  0.00     0.133 C 
HETATM    2  C   UNL     1      -6.695   1.361 -30.870  1.00  0.00     0.073 C 
HETATM    3  C   UNL     1      -6.721   2.346 -29.690  1.00  0.00     0.047 C 
HETATM    4  C   UNL     1      -7.884   1.663 -31.824  1.00  0.00     0.097 C 
HETATM    5  C   UNL     1      -7.534   2.786 -32.719  1.00  0.00     0.042 A 
HETATM    6  C   UNL     1      -6.266   3.194 -33.080  1.00  0.00     0.030 A 
HETATM    7  C   UNL     1      -6.518   4.256 -33.965  1.00  0.00     0.190 A 
HETATM    8  N   UNL     1      -7.808   4.517 -34.136  1.00  0.00    -0.149 NA
HETATM    9  N   UNL     1      -8.417   3.602 -33.364  1.00  0.00    -0.279 N 
HETATM   10  H   UNL     1      -9.432   3.592 -33.337  1.00  0.00     0.189 HD
HETATM   11  C   UNL     1      -5.026   2.507 -32.616  1.00  0.00     0.075 C 
ENDROOT
BRANCH  11  12
HETATM   12  C   UNL     1      -4.033   3.552 -32.128  1.00  0.00    -0.045 A 
HETATM   13  C   UNL     1      -2.723   3.679 -32.616  1.00  0.00     0.050 A 
HETATM   14  C   UNL     1      -1.883   4.678 -32.128  1.00  0.00     0.117 A 
HETATM   15  F   UNL     1      -0.636   4.778 -32.605  1.00  0.00    -0.206 F 
HETATM   16  C   UNL     1      -2.315   5.572 -31.157  1.00  0.00     0.042 A 
HETATM   17  C   UNL     1      -3.612   5.469 -30.666  1.00  0.00     0.004 A 
HETATM   18  C   UNL     1      -4.464   4.473 -31.152  1.00  0.00     0.008 A 
ENDBRANCH  11  12
BRANCH   1  19
HETATM   19  C   UNL     1      -5.054   0.068 -32.286  1.00  0.00     0.267 C 
HETATM   20  O   UNL     1      -4.671  -0.959 -31.743  1.00  0.00    -0.265 OA
BRANCH  19  21
HETATM   21  O   UNL     1      -5.324   0.203 -33.614  1.00  0.00    -0.316 OA
BRANCH  21  22
HETATM   22  C   UNL     1      -6.414  -0.581 -34.137  1.00  0.00     0.123 C 
HETATM   23  C   UNL     1      -5.898  -1.910 -34.682  1.00  0.00     0.040 C 
HETATM   24  C   UNL     1      -7.048   0.238 -35.254  1.00  0.00     0.040 C 
ENDBRANCH  21  22
ENDBRANCH  19  21
ENDBRANCH   1  19
BRANCH   2  25
HETATM   25  O   UNL     1      -6.911   0.075 -30.254  1.00  0.00    -0.389 OA
HETATM   26  H   UNL     1      -6.038  -0.337 -30.098  1.00  0.00     0.210 HD
ENDBRANCH   2  25
BRANCH   7  27
HETATM   27  O   UNL     1      -5.663   5.029 -34.639  1.00  0.00    -0.343 OA
HETATM   28  H   UNL     1      -5.908   5.049 -35.576  1.00  0.00     0.219 HD
ENDBRANCH   7  27
TORSDOF 6
ENDMDL
MODEL 5
REMARK VINA RESULT:      -7.1      1.583      1.964
REMARK  6 active torsions:
REMARK  status: ('A' for Active; 'I' for Inactive)
REMARK    1  A    between atoms: C_2  and  O_3 
REMARK    2  A    between atoms: O_3  and  C_4 
REMARK    3  A    between atoms: C_4  and  C_5 
REMARK    4  A    between atoms: C_6  and  O_7 
REMARK    5  A    between atoms: C_12  and  O_13 
REMARK    6  A    between atoms: C_17  and  C_18 
ROOT
HETATM    1  C   UNL     1      -4.002   4.052 -32.355  1.00  0.00     0.133 C 
HETATM    2  C   UNL     1      -5.100   4.879 -33.112  1.00  0.00     0.073 C 
HETATM    3  C   UNL     1      -5.643   4.080 -34.309  1.00  0.00     0.047 C 
HETATM    4  C   UNL     1      -6.283   5.331 -32.212  1.00  0.00     0.097 C 
HETATM    5  C   UNL     1      -6.688   4.222 -31.323  1.00  0.00     0.042 A 
HETATM    6  C   UNL     1      -5.909   3.158 -30.919  1.00  0.00     0.030 A 
HETATM    7  C   UNL     1      -6.768   2.447 -30.063  1.00  0.00     0.190 A 
HETATM    8  N   UNL     1      -7.976   2.985 -29.948  1.00  0.00    -0.149 NA
HETATM    9  N   UNL     1      -7.907   4.076 -30.729  1.00  0.00    -0.279 N 
HETATM   10  H   UNL     1      -8.726   4.672 -30.796  1.00  0.00     0.189 HD
HETATM   11  C   UNL     1      -4.482   2.993 -31.320  1.00  0.00     0.075 C 
ENDROOT
BRANCH  11  12
HETATM   12  C   UNL     1      -4.260   1.561 -31.786  1.00  0.00    -0.045 A 
HETATM   13  C   UNL     1      -4.971   0.956 -32.833  1.00  0.00     0.050 A 
HETATM   14  C   UNL     1      -4.691  -0.356 -33.211  1.00  0.00     0.117 A 
HETATM   15  F   UNL     1      -5.385  -0.914 -34.210  1.00  0.00    -0.206 F 
HETATM   16  C   UNL     1      -3.706  -1.095 -32.569  1.00  0.00     0.042 A 
HETATM   17  C   UNL     1      -2.983  -0.512 -31.534  1.00  0.00     0.004 A 
HETATM   18  C   UNL     1      -3.254   0.805 -31.150  1.00  0.00     0.008 A 
ENDBRANCH  11  12
BRANCH   1  19
HETATM   19  C   UNL     1      -3.076   4.992 -31.609  1.00  0.00     0.267 C 
HETATM   20  O   UNL     1      -3.358   5.562 -30.563  1.00  0.00    -0.265 OA
BRANCH  19  21
HETATM   21  O   UNL     1      -1.894   5.110 -32.275  1.00  0.00    -0.316 OA
BRANCH  21  22
HETATM   22  C   UNL     1      -1.268   6.407 -32.261  1.00  0.00     0.123 C 
HETATM   23  C   UNL     1      -0.990   6.878 -33.685  1.00  0.00     0.040 C 
HETATM   24  C   UNL     1       0.037   6.257 -31.490  1.00  0.00     0.040 C 
ENDBRANCH  21  22
ENDBRANCH  19  21
ENDBRANCH   1  19
BRANCH   2  25
HETATM   25  O   UNL     1      -4.503   6.045 -33.714  1.00  0.00    -0.389 OA
HETATM   26  H   UNL     1      -4.015   5.759 -34.512  1.00  0.00     0.210 HD
ENDBRANCH   2  25
BRANCH   7  27
HETATM   27  O   UNL     1      -6.551   1.327 -29.369  1.00  0.00    -0.343 OA
HETATM   28  H   UNL     1      -5.626   1.056 -29.466  1.00  0.00     0.219 HD
ENDBRANCH   7  27
TORSDOF 6
ENDMDL
MODEL 6
REMARK VINA RESULT:      -6.9      3.695      5.867
REMARK  6 active torsions:
REMARK  status: ('A' for Active; 'I' for Inactive)
REMARK    1  A    between atoms: C_2  and  O_3 
REMARK    2  A    between atoms: O_3  and  C_4 
REMARK    3  A    between atoms: C_4  and  C_5 
REMARK    4  A    between atoms: C_6  and  O_7 
REMARK    5  A    between atoms: C_12  and  O_13 
REMARK    6  A    between atoms: C_17  and  C_18 
ROOT
HETATM    1  C   UNL     1      -6.704   1.499 -32.295  1.00  0.00     0.133 C 
HETATM    2  C   UNL     1      -5.762   2.734 -32.516  1.00  0.00     0.073 C 
HETATM    3  C   UNL     1      -6.149   3.480 -33.804  1.00  0.00     0.047 C 
HETATM    4  C   UNL     1      -5.738   3.732 -31.325  1.00  0.00     0.097 C 
HETATM    5  C   UNL     1      -7.112   3.943 -30.822  1.00  0.00     0.042 A 
HETATM    6  C   UNL     1      -8.183   3.084 -30.954  1.00  0.00     0.030 A 
HETATM    7  C   UNL     1      -9.209   3.752 -30.264  1.00  0.00     0.190 A 
HETATM    8  N   UNL     1      -8.842   4.926 -29.764  1.00  0.00    -0.149 NA
HETATM    9  N   UNL     1      -7.549   5.024 -30.115  1.00  0.00    -0.279 N 
HETATM   10  H   UNL     1      -7.034   5.851 -29.829  1.00  0.00     0.189 HD
HETATM   11  C   UNL     1      -8.086   1.756 -31.627  1.00  0.00     0.075 C 
ENDROOT
BRANCH  11  12
HETATM   12  C   UNL     1      -9.253   1.603 -32.592  1.00  0.00    -0.045 A 
HETATM   13  C   UNL     1     -10.177   0.548 -32.546  1.00  0.00     0.050 A 
HETATM   14  C   UNL     1     -11.231   0.492 -33.456  1.00  0.00     0.117 A 
HETATM   15  F   UNL     1     -12.098  -0.526 -33.397  1.00  0.00    -0.206 F 
HETATM   16  C   UNL     1     -11.397   1.473 -34.426  1.00  0.00     0.042 A 
HETATM   17  C   UNL     1     -10.497   2.531 -34.485  1.00  0.00     0.004 A 
HETATM   18  C   UNL     1      -9.439   2.599 -33.572  1.00  0.00     0.008 A 
ENDBRANCH  11  12
BRANCH   1  19
HETATM   19  C   UNL     1      -6.000   0.464 -31.440  1.00  0.00     0.267 C 
HETATM   20  O   UNL     1      -5.386   0.712 -30.412  1.00  0.00    -0.265 OA
BRANCH  19  21
HETATM   21  O   UNL     1      -6.149  -0.775 -31.988  1.00  0.00    -0.316 OA
BRANCH  21  22
HETATM   22  C   UNL     1      -5.947  -0.882 -33.411  1.00  0.00     0.123 C 
HETATM   23  C   UNL     1      -7.015  -1.777 -34.032  1.00  0.00     0.040 C 
HETATM   24  C   UNL     1      -4.564  -1.491 -33.612  1.00  0.00     0.040 C 
ENDBRANCH  21  22
ENDBRANCH  19  21
ENDBRANCH   1  19
BRANCH   2  25
HETATM   25  O   UNL     1      -4.416   2.282 -32.769  1.00  0.00    -0.389 OA
HETATM   26  H   UNL     1      -3.799   2.962 -32.434  1.00  0.00     0.210 HD
ENDBRANCH   2  25
BRANCH   7  27
HETATM   27  O   UNL     1     -10.476   3.389 -30.051  1.00  0.00    -0.343 OA
HETATM   28  H   UNL     1     -10.761   2.773 -30.743  1.00  0.00     0.219 HD
ENDBRANCH   7  27
TORSDOF 6
ENDMDL
MODEL 7
REMARK VINA RESULT:      -6.9      3.531      4.996
REMARK  6 active torsions:
REMARK  status: ('A' for Active; 'I' for Inactive)
REMARK    1  A    between atoms: C_2  and  O_3 
REMARK    2  A    between atoms: O_3  and  C_4 
REMARK    3  A    between atoms: C_4  and  C_5 
REMARK    4  A    between atoms: C_6  and  O_7 
REMARK    5  A    between atoms: C_12  and  O_13 
REMARK    6  A    between atoms: C_17  and  C_18 
ROOT
HETATM    1  C   UNL     1      -5.830   2.927 -32.305  1.00  0.00     0.133 C 
HETATM    2  C   UNL     1      -4.897   2.555 -31.099  1.00  0.00     0.073 C 
HETATM    3  C   UNL     1      -5.715   1.909 -29.968  1.00  0.00     0.047 C 
HETATM    4  C   UNL     1      -3.713   1.623 -31.479  1.00  0.00     0.097 C 
HETATM    5  C   UNL     1      -4.186   0.560 -32.392  1.00  0.00     0.042 A 
HETATM    6  C   UNL     1      -5.292   0.607 -33.215  1.00  0.00     0.030 A 
HETATM    7  C   UNL     1      -5.242  -0.631 -33.878  1.00  0.00     0.190 A 
HETATM    8  N   UNL     1      -4.227  -1.399 -33.504  1.00  0.00    -0.149 NA
HETATM    9  N   UNL     1      -3.588  -0.649 -32.591  1.00  0.00    -0.279 N 
HETATM   10  H   UNL     1      -2.751  -1.027 -32.158  1.00  0.00     0.189 HD
HETATM   11  C   UNL     1      -6.180   1.800 -33.320  1.00  0.00     0.075 C 
ENDROOT
BRANCH  11  12
HETATM   12  C   UNL     1      -7.631   1.348 -33.230  1.00  0.00    -0.045 A 
HETATM   13  C   UNL     1      -8.598   1.609 -34.213  1.00  0.00     0.050 A 
HETATM   14  C   UNL     1      -9.902   1.141 -34.062  1.00  0.00     0.117 A 
HETATM   15  F   UNL     1     -10.809   1.406 -35.011  1.00  0.00    -0.206 F 
HETATM   16  C   UNL     1     -10.278   0.405 -32.946  1.00  0.00     0.042 A 
HETATM   17  C   UNL     1      -9.334   0.127 -31.964  1.00  0.00     0.004 A 
HETATM   18  C   UNL     1      -8.022   0.589 -32.108  1.00  0.00     0.008 A 
ENDBRANCH  11  12
BRANCH   1  19
HETATM   19  C   UNL     1      -5.204   4.049 -33.109  1.00  0.00     0.267 C 
HETATM   20  O   UNL     1      -5.815   5.012 -33.552  1.00  0.00    -0.265 OA
BRANCH  19  21
HETATM   21  O   UNL     1      -3.870   3.823 -33.267  1.00  0.00    -0.316 OA
BRANCH  21  22
HETATM   22  C   UNL     1      -3.034   4.981 -33.453  1.00  0.00     0.123 C 
HETATM   23  C   UNL     1      -2.655   5.132 -34.924  1.00  0.00     0.040 C 
HETATM   24  C   UNL     1      -1.786   4.762 -32.606  1.00  0.00     0.040 C 
ENDBRANCH  21  22
ENDBRANCH  19  21
ENDBRANCH   1  19
BRANCH   2  25
HETATM   25  O   UNL     1      -4.369   3.756 -30.502  1.00  0.00    -0.389 OA
HETATM   26  H   UNL     1      -3.868   4.241 -31.188  1.00  0.00     0.210 HD
ENDBRANCH   2  25
BRANCH   7  27
HETATM   27  O   UNL     1      -6.057  -1.138 -34.806  1.00  0.00    -0.343 OA
HETATM   28  H   UNL     1      -6.640  -0.443 -35.146  1.00  0.00     0.219 HD
ENDBRANCH   7  27
TORSDOF 6
ENDMDL
MODEL 8
REMARK VINA RESULT:      -6.7      4.784      7.585
REMARK  6 active torsions:
REMARK  status: ('A' for Active; 'I' for Inactive)
REMARK    1  A    between atoms: C_2  and  O_3 
REMARK    2  A    between atoms: O_3  and  C_4 
REMARK    3  A    between atoms: C_4  and  C_5 
REMARK    4  A    between atoms: C_6  and  O_7 
REMARK    5  A    between atoms: C_12  and  O_13 
REMARK    6  A    between atoms: C_17  and  C_18 
ROOT
HETATM    1  C   UNL     1      -8.753   1.342 -33.250  1.00  0.00     0.133 C 
HETATM    2  C   UNL     1      -7.728   0.756 -34.283  1.00  0.00     0.073 C 
HETATM    3  C   UNL     1      -6.787   1.861 -34.791  1.00  0.00     0.047 C 
HETATM    4  C   UNL     1      -6.886  -0.430 -33.736  1.00  0.00     0.097 C 
HETATM    5  C   UNL     1      -6.444  -0.135 -32.356  1.00  0.00     0.042 A 
HETATM    6  C   UNL     1      -7.040   0.732 -31.463  1.00  0.00     0.030 A 
HETATM    7  C   UNL     1      -6.246   0.592 -30.312  1.00  0.00     0.190 A 
HETATM    8  N   UNL     1      -5.235  -0.256 -30.459  1.00  0.00    -0.149 NA
HETATM    9  N   UNL     1      -5.374  -0.693 -31.721  1.00  0.00    -0.279 N 
HETATM   10  H   UNL     1      -4.709  -1.376 -32.071  1.00  0.00     0.189 HD
HETATM   11  C   UNL     1      -8.281   1.498 -31.775  1.00  0.00     0.075 C 
ENDROOT
BRANCH  11  12
HETATM   12  C   UNL     1      -8.084   2.950 -31.362  1.00  0.00    -0.045 A 
HETATM   13  C   UNL     1      -7.085   3.786 -31.882  1.00  0.00     0.050 A 
HETATM   14  C   UNL     1      -6.986   5.112 -31.465  1.00  0.00     0.117 A 
HETATM   15  F   UNL     1      -6.022   5.890 -31.971  1.00  0.00    -0.206 F 
HETATM   16  C   UNL     1      -7.869   5.641 -30.532  1.00  0.00     0.042 A 
HETATM   17  C   UNL     1      -8.873   4.832 -30.010  1.00  0.00     0.004 A 
HETATM   18  C   UNL     1      -8.983   3.501 -30.426  1.00  0.00     0.008 A 
ENDBRANCH  11  12
BRANCH   1  19
HETATM   19  C   UNL     1      -9.996   0.475 -33.214  1.00  0.00     0.267 C 
HETATM   20  O   UNL     1     -10.133  -0.517 -32.511  1.00  0.00    -0.265 OA
BRANCH  19  21
HETATM   21  O   UNL     1     -10.929   0.961 -34.079  1.00  0.00    -0.316 OA
BRANCH  21  22
HETATM   22  C   UNL     1     -12.229   1.257 -33.532  1.00  0.00     0.123 C 
HETATM   23  C   UNL     1     -13.318   0.944 -34.553  1.00  0.00     0.040 C 
HETATM   24  C   UNL     1     -12.234   2.742 -33.192  1.00  0.00     0.040 C 
ENDBRANCH  21  22
ENDBRANCH  19  21
ENDBRANCH   1  19
BRANCH   2  25
HETATM   25  O   UNL     1      -8.424   0.322 -35.469  1.00  0.00    -0.389 OA
HETATM   26  H   UNL     1      -8.670   1.116 -35.984  1.00  0.00     0.210 HD
ENDBRANCH   2  25
BRANCH   7  27
HETATM   27  O   UNL     1      -6.355   1.183 -29.120  1.00  0.00    -0.343 OA
HETATM   28  H   UNL     1      -6.390   2.144 -29.233  1.00  0.00     0.219 HD
ENDBRANCH   7  27
TORSDOF 6
ENDMDL
MODEL 9
REMARK VINA RESULT:      -6.7      4.122      6.652
REMARK  6 active torsions:
REMARK  status: ('A' for Active; 'I' for Inactive)
REMARK    1  A    between atoms: C_2  and  O_3 
REMARK    2  A    between atoms: O_3  and  C_4 
REMARK    3  A    between atoms: C_4  and  C_5 
REMARK    4  A    between atoms: C_6  and  O_7 
REMARK    5  A    between atoms: C_12  and  O_13 
REMARK    6  A    between atoms: C_17  and  C_18 
ROOT
HETATM    1  C   UNL     1      -7.566   1.064 -32.952  1.00  0.00     0.133 C 
HETATM    2  C   UNL     1      -7.600   0.462 -34.400  1.00  0.00     0.073 C 
HETATM    3  C   UNL     1      -6.749   1.315 -35.356  1.00  0.00     0.047 C 
HETATM    4  C   UNL     1      -7.141  -1.020 -34.480  1.00  0.00     0.097 C 
HETATM    5  C   UNL     1      -5.944  -1.219 -33.636  1.00  0.00     0.042 A 
HETATM    6  C   UNL     1      -5.559  -0.457 -32.552  1.00  0.00     0.030 A 
HETATM    7  C   UNL     1      -4.397  -1.109 -32.107  1.00  0.00     0.190 A 
HETATM    8  N   UNL     1      -4.059  -2.163 -32.840  1.00  0.00    -0.149 NA
HETATM    9  N   UNL     1      -5.023  -2.216 -33.774  1.00  0.00    -0.279 N 
HETATM   10  H   UNL     1      -4.988  -2.962 -34.461  1.00  0.00     0.189 HD
HETATM   11  C   UNL     1      -6.349   0.703 -32.050  1.00  0.00     0.075 C 
ENDROOT
BRANCH  11  12
HETATM   12  C   UNL     1      -5.411   1.880 -31.818  1.00  0.00    -0.045 A 
HETATM   13  C   UNL     1      -4.324   2.194 -32.649  1.00  0.00     0.050 A 
HETATM   14  C   UNL     1      -3.525   3.302 -32.376  1.00  0.00     0.117 A 
HETATM   15  F   UNL     1      -2.492   3.580 -33.180  1.00  0.00    -0.206 F 
HETATM   16  C   UNL     1      -3.780   4.123 -31.285  1.00  0.00     0.042 A 
HETATM   17  C   UNL     1      -4.857   3.835 -30.453  1.00  0.00     0.004 A 
HETATM   18  C   UNL     1      -5.668   2.727 -30.721  1.00  0.00     0.008 A 
ENDBRANCH  11  12
BRANCH   1  19
HETATM   19  C   UNL     1      -8.806   0.638 -32.190  1.00  0.00     0.267 C 
HETATM   20  O   UNL     1      -9.435  -0.390 -32.404  1.00  0.00    -0.265 OA
BRANCH  19  21
HETATM   21  O   UNL     1      -9.114   1.566 -31.243  1.00  0.00    -0.316 OA
BRANCH  21  22
HETATM   22  C   UNL     1      -9.268   2.926 -31.694  1.00  0.00     0.123 C 
HETATM   23  C   UNL     1      -9.255   3.884 -30.506  1.00  0.00     0.040 C 
HETATM   24  C   UNL     1     -10.607   2.999 -32.417  1.00  0.00     0.040 C 
ENDBRANCH  21  22
ENDBRANCH  19  21
ENDBRANCH   1  19
BRANCH   2  25
HETATM   25  O   UNL     1      -8.934   0.564 -34.939  1.00  0.00    -0.389 OA
HETATM   26  H   UNL     1      -9.008  -0.062 -35.687  1.00  0.00     0.210 HD
ENDBRANCH   2  25
BRANCH   7  27
HETATM   27  O   UNL     1      -3.595  -0.822 -31.079  1.00  0.00    -0.343 OA
HETATM   28  H   UNL     1      -4.085  -0.322 -30.410  1.00  0.00     0.219 HD
ENDBRANCH   7  27
TORSDOF 6
ENDMDL
MODEL 10
REMARK VINA RESULT:      -6.6      4.274      6.985
REMARK  6 active torsions:
REMARK  status: ('A' for Active; 'I' for Inactive)
REMARK    1  A    between atoms: C_2  and  O_3 
REMARK    2  A    between atoms: O_3  and  C_4 
REMARK    3  A    between atoms: C_4  and  C_5 
REMARK    4  A    between atoms: C_6  and  O_7 
REMARK    5  A    between atoms: C_12  and  O_13 
REMARK    6  A    between atoms: C_17  and  C_18 
ROOT
HETATM    1  C   UNL     1      -8.188   2.539 -33.558  1.00  0.00     0.133 C 
HETATM    2  C   UNL     1      -7.995   1.027 -33.930  1.00  0.00     0.073 C 
HETATM    3  C   UNL     1      -6.666   0.824 -34.677  1.00  0.00     0.047 C 
HETATM    4  C   UNL     1      -8.058   0.063 -32.713  1.00  0.00     0.097 C 
HETATM    5  C   UNL     1      -7.302   0.639 -31.580  1.00  0.00     0.042 A 
HETATM    6  C   UNL     1      -7.020   1.972 -31.364  1.00  0.00     0.030 A 
HETATM    7  C   UNL     1      -6.329   1.953 -30.141  1.00  0.00     0.190 A 
HETATM    8  N   UNL     1      -6.164   0.736 -29.637  1.00  0.00    -0.149 NA
HETATM    9  N   UNL     1      -6.771  -0.059 -30.535  1.00  0.00    -0.279 N 
HETATM   10  H   UNL     1      -6.788  -1.059 -30.360  1.00  0.00     0.189 HD
HETATM   11  C   UNL     1      -7.485   3.060 -32.271  1.00  0.00     0.075 C 
ENDROOT
BRANCH  11  12
HETATM   12  C   UNL     1      -6.319   3.994 -32.566  1.00  0.00    -0.045 A 
HETATM   13  C   UNL     1      -5.051   3.559 -32.984  1.00  0.00     0.050 A 
HETATM   14  C   UNL     1      -4.043   4.482 -33.252  1.00  0.00     0.117 A 
HETATM   15  F   UNL     1      -2.840   4.045 -33.645  1.00  0.00    -0.206 F 
HETATM   16  C   UNL     1      -4.262   5.848 -33.118  1.00  0.00     0.042 A 
HETATM   17  C   UNL     1      -5.513   6.300 -32.713  1.00  0.00     0.004 A 
HETATM   18  C   UNL     1      -6.533   5.382 -32.446  1.00  0.00     0.008 A 
ENDBRANCH  11  12
BRANCH   1  19
HETATM   19  C   UNL     1      -9.664   2.841 -33.394  1.00  0.00     0.267 C 
HETATM   20  O   UNL     1     -10.245   2.913 -32.319  1.00  0.00    -0.265 OA
BRANCH  19  21
HETATM   21  O   UNL     1     -10.245   3.015 -34.614  1.00  0.00    -0.316 OA
BRANCH  21  22
HETATM   22  C   UNL     1     -11.684   3.083 -34.644  1.00  0.00     0.123 C 
HETATM   23  C   UNL     1     -12.261   1.814 -35.263  1.00  0.00     0.040 C 
HETATM   24  C   UNL     1     -12.049   4.297 -35.489  1.00  0.00     0.040 C 
ENDBRANCH  21  22
ENDBRANCH  19  21
ENDBRANCH   1  19
BRANCH   2  25
HETATM   25  O   UNL     1      -8.996   0.629 -34.889  1.00  0.00    -0.389 OA
HETATM   26  H   UNL     1      -9.178  -0.324 -34.760  1.00  0.00     0.210 HD
ENDBRANCH   2  25
BRANCH   7  27
HETATM   27  O   UNL     1      -5.817   2.961 -29.431  1.00  0.00    -0.343 OA
HETATM   28  H   UNL     1      -5.898   2.770 -28.485  1.00  0.00     0.219 HD
ENDBRANCH   7  27
TORSDOF 6
ENDMDL
