MODEL 1
REMARK VINA RESULT:      -8.9      0.000      0.000
REMARK  6 active torsions:
REMARK  status: ('A' for Active; 'I' for Inactive)
REMARK    1  A    between atoms: C_2  and  C_3 
REMARK    2  A    between atoms: C_6  and  C_7 
REMARK    3  A    between atoms: C_11  and  C_12 
REMARK       I    between atoms: C_12  and  N_13 
REMARK    4  A    between atoms: N_13  and  N_14 
REMARK    5  A    between atoms: C_15  and  C_16 
REMARK    6  A    between atoms: C_19  and  O_20 
ROOT
HETATM    1  C   UNL     1      -4.989   3.165 -32.971  1.00  0.00     0.289 C 
HETATM    2  N   UNL     1      -4.666   1.903 -32.496  1.00  0.00    -0.241 N 
HETATM    3  O   UNL     1      -5.735   3.381 -33.923  1.00  0.00    -0.264 OA
HETATM    4  H   UNL     1      -4.032   1.807 -31.716  1.00  0.00     0.192 HD
ENDROOT
BRANCH   1   5
HETATM    5  C   UNL     1      -4.349   4.248 -32.264  1.00  0.00     0.121 A 
HETATM    6  N   UNL     1      -4.974   5.450 -32.081  1.00  0.00    -0.272 N 
HETATM    7  N   UNL     1      -4.232   6.364 -31.440  1.00  0.00    -0.174 NA
HETATM    8  H   UNL     1      -5.908   5.701 -32.394  1.00  0.00     0.189 HD
HETATM    9  C   UNL     1      -3.086   5.730 -31.151  1.00  0.00     0.089 A 
HETATM   10  C   UNL     1      -3.119   4.400 -31.654  1.00  0.00     0.071 A 
BRANCH   9  11
HETATM   11  C   UNL     1      -1.990   6.391 -30.435  1.00  0.00    -0.006 A 
HETATM   12  C   UNL     1      -2.230   7.118 -29.261  1.00  0.00     0.014 A 
HETATM   13  C   UNL     1      -1.178   7.723 -28.567  1.00  0.00     0.008 A 
HETATM   14  C   UNL     1       0.137   7.617 -29.037  1.00  0.00    -0.059 A 
HETATM   15  C   UNL     1       0.380   6.897 -30.211  1.00  0.00     0.008 A 
HETATM   16  C   UNL     1      -0.673   6.295 -30.906  1.00  0.00     0.014 A 
BRANCH  14  17
HETATM   17  C   UNL     1       1.273   8.244 -28.271  1.00  0.00     0.034 C 
HETATM   18  C   UNL     1       1.373   7.694 -26.856  1.00  0.00     0.010 C 
ENDBRANCH  14  17
ENDBRANCH   9  11
ENDBRANCH   1   5
BRANCH   2  19
HETATM   19  N   UNL     1      -5.208   0.791 -33.065  1.00  0.00    -0.176 NA
HETATM   20  C   UNL     1      -4.500  -0.300 -33.138  1.00  0.00     0.061 C 
HETATM   21  C   UNL     1      -3.059  -0.398 -32.674  1.00  0.00     0.073 C 
BRANCH  20  22
HETATM   22  C   UNL     1      -5.147  -1.522 -33.720  1.00  0.00    -0.010 A 
HETATM   23  C   UNL     1      -4.348  -2.641 -34.001  1.00  0.00     0.016 A 
HETATM   24  C   UNL     1      -4.910  -3.799 -34.545  1.00  0.00     0.037 A 
HETATM   25  C   UNL     1      -6.274  -3.833 -34.812  1.00  0.00     0.065 A 
HETATM   26  C   UNL     1      -7.079  -2.730 -34.551  1.00  0.00     0.037 A 
HETATM   27  C   UNL     1      -6.516  -1.570 -34.011  1.00  0.00     0.016 A 
BRANCH  25  28
HETATM   28  O   UNL     1      -6.868  -4.940 -35.341  1.00  0.00    -0.361 OA
HETATM   29  H   UNL     1      -7.331  -4.684 -36.155  1.00  0.00     0.217 HD
ENDBRANCH  25  28
ENDBRANCH  20  22
ENDBRANCH   2  19
TORSDOF 6
ENDMDL
MODEL 2
REMARK VINA RESULT:      -8.4      7.249     10.865
REMARK  6 active torsions:
REMARK  status: ('A' for Active; 'I' for Inactive)
REMARK    1  A    between atoms: C_2  and  C_3 
REMARK    2  A    between atoms: C_6  and  C_7 
REMARK    3  A    between atoms: C_11  and  C_12 
REMARK       I    between atoms: C_12  and  N_13 
REMARK    4  A    between atoms: N_13  and  N_14 
REMARK    5  A    between atoms: C_15  and  C_16 
REMARK    6  A    between atoms: C_19  and  O_20 
ROOT
HETATM    1  C   UNL     1     -10.371   1.996 -33.036  1.00  0.00     0.289 C 
HETATM    2  N   UNL     1     -11.606   1.835 -33.645  1.00  0.00    -0.241 N 
HETATM    3  O   UNL     1     -10.145   2.777 -32.115  1.00  0.00    -0.264 OA
HETATM    4  H   UNL     1     -11.709   1.183 -34.408  1.00  0.00     0.192 HD
ENDROOT
BRANCH   1   5
HETATM    5  C   UNL     1      -9.323   1.176 -33.594  1.00  0.00     0.121 A 
HETATM    6  N   UNL     1      -8.830   1.403 -34.848  1.00  0.00    -0.272 N 
HETATM    7  N   UNL     1      -7.887   0.531 -35.236  1.00  0.00    -0.174 NA
HETATM    8  H   UNL     1      -9.120   2.136 -35.491  1.00  0.00     0.189 HD
HETATM    9  C   UNL     1      -7.720  -0.280 -34.180  1.00  0.00     0.089 A 
HETATM   10  C   UNL     1      -8.606   0.092 -33.130  1.00  0.00     0.071 A 
BRANCH   9  11
HETATM   11  C   UNL     1      -6.758  -1.385 -34.193  1.00  0.00    -0.006 A 
HETATM   12  C   UNL     1      -7.119  -2.651 -34.678  1.00  0.00     0.014 A 
HETATM   13  C   UNL     1      -6.190  -3.695 -34.713  1.00  0.00     0.008 A 
HETATM   14  C   UNL     1      -4.879  -3.495 -34.260  1.00  0.00    -0.059 A 
HETATM   15  C   UNL     1      -4.517  -2.236 -33.771  1.00  0.00     0.008 A 
HETATM   16  C   UNL     1      -5.448  -1.194 -33.733  1.00  0.00     0.014 A 
BRANCH  14  17
HETATM   17  C   UNL     1      -3.871  -4.613 -34.327  1.00  0.00     0.034 C 
HETATM   18  C   UNL     1      -3.097  -4.754 -33.025  1.00  0.00     0.010 C 
ENDBRANCH  14  17
ENDBRANCH   9  11
ENDBRANCH   1   5
BRANCH   2  19
HETATM   19  N   UNL     1     -12.687   2.540 -33.211  1.00  0.00    -0.176 NA
HETATM   20  C   UNL     1     -13.844   1.948 -33.120  1.00  0.00     0.061 C 
HETATM   21  C   UNL     1     -14.083   0.507 -33.528  1.00  0.00     0.073 C 
BRANCH  20  22
HETATM   22  C   UNL     1     -15.001   2.739 -32.586  1.00  0.00    -0.010 A 
HETATM   23  C   UNL     1     -16.248   2.109 -32.456  1.00  0.00     0.016 A 
HETATM   24  C   UNL     1     -17.352   2.811 -31.964  1.00  0.00     0.037 A 
HETATM   25  C   UNL     1     -17.207   4.147 -31.608  1.00  0.00     0.065 A 
HETATM   26  C   UNL     1     -15.983   4.790 -31.741  1.00  0.00     0.037 A 
HETATM   27  C   UNL     1     -14.879   4.090 -32.237  1.00  0.00     0.016 A 
BRANCH  25  28
HETATM   28  O   UNL     1     -18.254   4.872 -31.122  1.00  0.00    -0.361 OA
HETATM   29  H   UNL     1     -18.121   5.010 -30.170  1.00  0.00     0.217 HD
ENDBRANCH  25  28
ENDBRANCH  20  22
ENDBRANCH   2  19
TORSDOF 6
ENDMDL
MODEL 3
REMARK VINA RESULT:      -8.4      3.082     10.858
REMARK  6 active torsions:
REMARK  status: ('A' for Active; 'I' for Inactive)
REMARK    1  A    between atoms: C_2  and  C_3 
REMARK    2  A    between atoms: C_6  and  C_7 
REMARK    3  A    between atoms: C_11  and  C_12 
REMARK       I    between atoms: C_12  and  N_13 
REMARK    4  A    between atoms: N_13  and  N_14 
REMARK    5  A    between atoms: C_15  and  C_16 
REMARK    6  A    between atoms: C_19  and  O_20 
ROOT
HETATM    1  C   UNL     1      -2.150   4.681 -31.400  1.00  0.00     0.289 C 
HETATM    2  N   UNL     1      -2.565   5.629 -30.477  1.00  0.00    -0.241 N 
HETATM    3  O   UNL     1      -0.996   4.559 -31.803  1.00  0.00    -0.264 OA
HETATM    4  H   UNL     1      -3.536   5.676 -30.207  1.00  0.00     0.192 HD
ENDROOT
BRANCH   1   5
HETATM    5  C   UNL     1      -3.208   3.833 -31.896  1.00  0.00     0.121 A 
HETATM    6  N   UNL     1      -4.476   4.308 -32.080  1.00  0.00    -0.272 N 
HETATM    7  N   UNL     1      -5.352   3.387 -32.509  1.00  0.00    -0.174 NA
HETATM    8  H   UNL     1      -4.800   5.256 -31.908  1.00  0.00     0.189 HD
HETATM    9  C   UNL     1      -4.625   2.268 -32.653  1.00  0.00     0.089 A 
HETATM   10  C   UNL     1      -3.274   2.508 -32.277  1.00  0.00     0.071 A 
BRANCH   9  11
HETATM   11  C   UNL     1      -5.217   1.010 -33.117  1.00  0.00    -0.006 A 
HETATM   12  C   UNL     1      -6.286   1.007 -34.025  1.00  0.00     0.014 A 
HETATM   13  C   UNL     1      -6.829  -0.196 -34.486  1.00  0.00     0.008 A 
HETATM   14  C   UNL     1      -6.317  -1.422 -34.044  1.00  0.00    -0.059 A 
HETATM   15  C   UNL     1      -5.255  -1.424 -33.134  1.00  0.00     0.008 A 
HETATM   16  C   UNL     1      -4.715  -0.220 -32.672  1.00  0.00     0.014 A 
BRANCH  14  17
HETATM   17  C   UNL     1      -6.885  -2.718 -34.565  1.00  0.00     0.034 C 
HETATM   18  C   UNL     1      -5.796  -3.637 -35.098  1.00  0.00     0.010 C 
ENDBRANCH  14  17
ENDBRANCH   9  11
ENDBRANCH   1   5
BRANCH   2  19
HETATM   19  N   UNL     1      -1.668   6.489 -29.920  1.00  0.00    -0.176 NA
HETATM   20  C   UNL     1      -2.021   7.203 -28.889  1.00  0.00     0.061 C 
HETATM   21  C   UNL     1      -3.415   7.181 -28.291  1.00  0.00     0.073 C 
BRANCH  20  22
HETATM   22  C   UNL     1      -0.991   8.098 -28.266  1.00  0.00    -0.010 A 
HETATM   23  C   UNL     1      -1.414   9.280 -27.638  1.00  0.00     0.016 A 
HETATM   24  C   UNL     1      -0.487  10.143 -27.047  1.00  0.00     0.037 A 
HETATM   25  C   UNL     1       0.865   9.823 -27.090  1.00  0.00     0.065 A 
HETATM   26  C   UNL     1       1.303   8.663 -27.717  1.00  0.00     0.037 A 
HETATM   27  C   UNL     1       0.377   7.802 -28.313  1.00  0.00     0.016 A 
BRANCH  25  28
HETATM   28  O   UNL     1       1.806  10.632 -26.526  1.00  0.00    -0.361 OA
HETATM   29  H   UNL     1       1.901  11.427 -27.075  1.00  0.00     0.217 HD
ENDBRANCH  25  28
ENDBRANCH  20  22
ENDBRANCH   2  19
TORSDOF 6
ENDMDL
MODEL 4
REMARK VINA RESULT:      -8.3      1.526      2.269
REMARK  6 active torsions:
REMARK  status: ('A' for Active; 'I' for Inactive)
REMARK    1  A    between atoms: C_2  and  C_3 
REMARK    2  A    between atoms: C_6  and  C_7 
REMARK    3  A    between atoms: C_11  and  C_12 
REMARK       I    between atoms: C_12  and  N_13 
REMARK    4  A    between atoms: N_13  and  N_14 
REMARK    5  A    between atoms: C_15  and  C_16 
REMARK    6  A    between atoms: C_19  and  O_20 
ROOT
HETATM    1  C   UNL     1      -2.621   3.984 -32.434  1.00  0.00     0.289 C 
HETATM    2  N   UNL     1      -3.446   3.037 -31.845  1.00  0.00    -0.241 N 
HETATM    3  O   UNL     1      -2.295   3.984 -33.618  1.00  0.00    -0.264 OA
HETATM    4  H   UNL     1      -3.655   3.097 -30.859  1.00  0.00     0.192 HD
ENDROOT
BRANCH   1   5
HETATM    5  C   UNL     1      -2.131   4.992 -31.525  1.00  0.00     0.121 A 
HETATM    6  N   UNL     1      -2.588   6.280 -31.573  1.00  0.00    -0.272 N 
HETATM    7  N   UNL     1      -2.007   7.104 -30.689  1.00  0.00    -0.174 NA
HETATM    8  H   UNL     1      -3.289   6.651 -32.209  1.00  0.00     0.189 HD
HETATM    9  C   UNL     1      -1.161   6.322 -30.001  1.00  0.00     0.089 A 
HETATM   10  C   UNL     1      -1.208   4.989 -30.498  1.00  0.00     0.071 A 
BRANCH   9  11
HETATM   11  C   UNL     1      -0.322   6.846 -28.919  1.00  0.00    -0.006 A 
HETATM   12  C   UNL     1      -0.422   6.336 -27.617  1.00  0.00     0.014 A 
HETATM   13  C   UNL     1       0.399   6.821 -26.594  1.00  0.00     0.008 A 
HETATM   14  C   UNL     1       1.336   7.829 -26.853  1.00  0.00    -0.059 A 
HETATM   15  C   UNL     1       1.436   8.344 -28.150  1.00  0.00     0.008 A 
HETATM   16  C   UNL     1       0.612   7.861 -29.170  1.00  0.00     0.014 A 
BRANCH  14  17
HETATM   17  C   UNL     1       2.241   8.329 -25.756  1.00  0.00     0.034 C 
HETATM   18  C   UNL     1       1.725   9.622 -25.144  1.00  0.00     0.010 C 
ENDBRANCH  14  17
ENDBRANCH   9  11
ENDBRANCH   1   5
BRANCH   2  19
HETATM   19  N   UNL     1      -3.987   2.034 -32.589  1.00  0.00    -0.176 NA
HETATM   20  C   UNL     1      -3.835   0.799 -32.206  1.00  0.00     0.061 C 
HETATM   21  C   UNL     1      -3.027   0.391 -30.989  1.00  0.00     0.073 C 
BRANCH  20  22
HETATM   22  C   UNL     1      -4.492  -0.278 -33.019  1.00  0.00    -0.010 A 
HETATM   23  C   UNL     1      -3.888  -1.544 -33.077  1.00  0.00     0.016 A 
HETATM   24  C   UNL     1      -4.466  -2.573 -33.825  1.00  0.00     0.037 A 
HETATM   25  C   UNL     1      -5.647  -2.333 -34.518  1.00  0.00     0.065 A 
HETATM   26  C   UNL     1      -6.252  -1.082 -34.481  1.00  0.00     0.037 A 
HETATM   27  C   UNL     1      -5.672  -0.050 -33.738  1.00  0.00     0.016 A 
BRANCH  25  28
HETATM   28  O   UNL     1      -6.249  -3.306 -35.259  1.00  0.00    -0.361 OA
HETATM   29  H   UNL     1      -5.641  -4.059 -35.334  1.00  0.00     0.217 HD
ENDBRANCH  25  28
ENDBRANCH  20  22
ENDBRANCH   2  19
TORSDOF 6
ENDMDL
MODEL 5
REMARK VINA RESULT:      -8.2      2.864     10.576
REMARK  6 active torsions:
REMARK  status: ('A' for Active; 'I' for Inactive)
REMARK    1  A    between atoms: C_2  and  C_3 
REMARK    2  A    between atoms: C_6  and  C_7 
REMARK    3  A    between atoms: C_11  and  C_12 
REMARK       I    between atoms: C_12  and  N_13 
REMARK    4  A    between atoms: N_13  and  N_14 
REMARK    5  A    between atoms: C_15  and  C_16 
REMARK    6  A    between atoms: C_19  and  O_20 
ROOT
HETATM    1  C   UNL     1      -4.338   5.101 -30.784  1.00  0.00     0.289 C 
HETATM    2  N   UNL     1      -3.013   5.478 -30.949  1.00  0.00    -0.241 N 
HETATM    3  O   UNL     1      -5.079   5.527 -29.902  1.00  0.00    -0.264 OA
HETATM    4  H   UNL     1      -2.463   5.071 -31.690  1.00  0.00     0.192 HD
ENDROOT
BRANCH   1   5
HETATM    5  C   UNL     1      -4.798   4.119 -31.737  1.00  0.00     0.121 A 
HETATM    6  N   UNL     1      -5.256   4.483 -32.972  1.00  0.00    -0.272 N 
HETATM    7  N   UNL     1      -5.683   3.458 -33.724  1.00  0.00    -0.174 NA
HETATM    8  H   UNL     1      -5.313   5.427 -33.344  1.00  0.00     0.189 HD
HETATM    9  C   UNL     1      -5.462   2.369 -32.973  1.00  0.00     0.089 A 
HETATM   10  C   UNL     1      -4.908   2.743 -31.716  1.00  0.00     0.071 A 
BRANCH   9  11
HETATM   11  C   UNL     1      -5.792   1.020 -33.441  1.00  0.00    -0.006 A 
HETATM   12  C   UNL     1      -5.139  -0.105 -32.918  1.00  0.00     0.014 A 
HETATM   13  C   UNL     1      -5.477  -1.392 -33.349  1.00  0.00     0.008 A 
HETATM   14  C   UNL     1      -6.472  -1.580 -34.316  1.00  0.00    -0.059 A 
HETATM   15  C   UNL     1      -7.122  -0.459 -34.845  1.00  0.00     0.008 A 
HETATM   16  C   UNL     1      -6.781   0.827 -34.416  1.00  0.00     0.014 A 
BRANCH  14  17
HETATM   17  C   UNL     1      -6.855  -2.969 -34.757  1.00  0.00     0.034 C 
HETATM   18  C   UNL     1      -5.641  -3.879 -34.873  1.00  0.00     0.010 C 
ENDBRANCH  14  17
ENDBRANCH   9  11
ENDBRANCH   1   5
BRANCH   2  19
HETATM   19  N   UNL     1      -2.452   6.406 -30.125  1.00  0.00    -0.176 NA
HETATM   20  C   UNL     1      -1.161   6.407 -29.948  1.00  0.00     0.061 C 
HETATM   21  C   UNL     1      -0.228   5.386 -30.569  1.00  0.00     0.073 C 
BRANCH  20  22
HETATM   22  C   UNL     1      -0.571   7.478 -29.079  1.00  0.00    -0.010 A 
HETATM   23  C   UNL     1       0.799   7.424 -28.777  1.00  0.00     0.016 A 
HETATM   24  C   UNL     1       1.389   8.400 -27.969  1.00  0.00     0.037 A 
HETATM   25  C   UNL     1       0.604   9.427 -27.459  1.00  0.00     0.065 A 
HETATM   26  C   UNL     1      -0.756   9.489 -27.737  1.00  0.00     0.037 A 
HETATM   27  C   UNL     1      -1.348   8.511 -28.541  1.00  0.00     0.016 A 
BRANCH  25  28
HETATM   28  O   UNL     1       1.134  10.402 -26.668  1.00  0.00    -0.361 OA
HETATM   29  H   UNL     1       2.064  10.531 -26.915  1.00  0.00     0.217 HD
ENDBRANCH  25  28
ENDBRANCH  20  22
ENDBRANCH   2  19
TORSDOF 6
ENDMDL
MODEL 6
REMARK VINA RESULT:      -8.2      6.415      8.821
REMARK  6 active torsions:
REMARK  status: ('A' for Active; 'I' for Inactive)
REMARK    1  A    between atoms: C_2  and  C_3 
REMARK    2  A    between atoms: C_6  and  C_7 
REMARK    3  A    between atoms: C_11  and  C_12 
REMARK       I    between atoms: C_12  and  N_13 
REMARK    4  A    between atoms: N_13  and  N_14 
REMARK    5  A    between atoms: C_15  and  C_16 
REMARK    6  A    between atoms: C_19  and  O_20 
ROOT
HETATM    1  C   UNL     1      -9.504   1.051 -34.076  1.00  0.00     0.289 C 
HETATM    2  N   UNL     1      -8.464   0.798 -34.958  1.00  0.00    -0.241 N 
HETATM    3  O   UNL     1      -9.987   0.218 -33.313  1.00  0.00    -0.264 OA
HETATM    4  H   UNL     1      -8.131   1.533 -35.566  1.00  0.00     0.192 HD
ENDROOT
BRANCH   1   5
HETATM    5  C   UNL     1     -10.018   2.398 -34.134  1.00  0.00     0.121 A 
HETATM    6  N   UNL     1     -10.167   3.154 -33.005  1.00  0.00    -0.272 N 
HETATM    7  N   UNL     1     -10.693   4.369 -33.222  1.00  0.00    -0.174 NA
HETATM    8  H   UNL     1      -9.938   2.876 -32.054  1.00  0.00     0.189 HD
HETATM    9  C   UNL     1     -10.861   4.434 -34.551  1.00  0.00     0.089 A 
HETATM   10  C   UNL     1     -10.450   3.215 -35.159  1.00  0.00     0.071 A 
BRANCH   9  11
HETATM   11  C   UNL     1     -11.417   5.621 -35.207  1.00  0.00    -0.006 A 
HETATM   12  C   UNL     1     -10.610   6.732 -35.493  1.00  0.00     0.014 A 
HETATM   13  C   UNL     1     -11.139   7.851 -36.144  1.00  0.00     0.008 A 
HETATM   14  C   UNL     1     -12.488   7.883 -36.519  1.00  0.00    -0.059 A 
HETATM   15  C   UNL     1     -13.297   6.779 -36.231  1.00  0.00     0.008 A 
HETATM   16  C   UNL     1     -12.768   5.663 -35.577  1.00  0.00     0.014 A 
BRANCH  14  17
HETATM   17  C   UNL     1     -13.048   9.078 -37.247  1.00  0.00     0.034 C 
HETATM   18  C   UNL     1     -13.033   8.878 -38.755  1.00  0.00     0.010 C 
ENDBRANCH  14  17
ENDBRANCH   9  11
ENDBRANCH   1   5
BRANCH   2  19
HETATM   19  N   UNL     1      -7.877  -0.430 -35.002  1.00  0.00    -0.176 NA
HETATM   20  C   UNL     1      -6.713  -0.603 -34.444  1.00  0.00     0.061 C 
HETATM   21  C   UNL     1      -5.924   0.511 -33.785  1.00  0.00     0.073 C 
BRANCH  20  22
HETATM   22  C   UNL     1      -6.122  -1.982 -34.462  1.00  0.00    -0.010 A 
HETATM   23  C   UNL     1      -6.953  -3.070 -34.773  1.00  0.00     0.016 A 
HETATM   24  C   UNL     1      -6.443  -4.370 -34.799  1.00  0.00     0.037 A 
HETATM   25  C   UNL     1      -5.100  -4.582 -34.508  1.00  0.00     0.065 A 
HETATM   26  C   UNL     1      -4.265  -3.518 -34.186  1.00  0.00     0.037 A 
HETATM   27  C   UNL     1      -4.775  -2.217 -34.156  1.00  0.00     0.016 A 
BRANCH  25  28
HETATM   28  O   UNL     1      -4.557  -5.832 -34.522  1.00  0.00    -0.361 OA
HETATM   29  H   UNL     1      -5.134  -6.415 -35.040  1.00  0.00     0.217 HD
ENDBRANCH  25  28
ENDBRANCH  20  22
ENDBRANCH   2  19
TORSDOF 6
ENDMDL
MODEL 7
REMARK VINA RESULT:      -7.8      4.404      5.397
REMARK  6 active torsions:
REMARK  status: ('A' for Active; 'I' for Inactive)
REMARK    1  A    between atoms: C_2  and  C_3 
REMARK    2  A    between atoms: C_6  and  C_7 
REMARK    3  A    between atoms: C_11  and  C_12 
REMARK       I    between atoms: C_12  and  N_13 
REMARK    4  A    between atoms: N_13  and  N_14 
REMARK    5  A    between atoms: C_15  and  C_16 
REMARK    6  A    between atoms: C_19  and  O_20 
ROOT
HETATM    1  C   UNL     1      -7.963   3.375 -32.817  1.00  0.00     0.289 C 
HETATM    2  N   UNL     1      -8.291   2.382 -33.729  1.00  0.00    -0.241 N 
HETATM    3  O   UNL     1      -8.778   4.110 -32.266  1.00  0.00    -0.264 OA
HETATM    4  H   UNL     1      -7.562   1.828 -34.152  1.00  0.00     0.192 HD
ENDROOT
BRANCH   1   5
HETATM    5  C   UNL     1      -6.548   3.509 -32.569  1.00  0.00     0.121 A 
HETATM    6  N   UNL     1      -5.727   2.418 -32.513  1.00  0.00    -0.272 N 
HETATM    7  N   UNL     1      -4.446   2.707 -32.236  1.00  0.00    -0.174 NA
HETATM    8  H   UNL     1      -5.998   1.447 -32.641  1.00  0.00     0.189 HD
HETATM    9  C   UNL     1      -4.412   4.045 -32.145  1.00  0.00     0.089 A 
HETATM   10  C   UNL     1      -5.713   4.586 -32.346  1.00  0.00     0.071 A 
BRANCH   9  11
HETATM   11  C   UNL     1      -3.173   4.773 -31.854  1.00  0.00    -0.006 A 
HETATM   12  C   UNL     1      -3.134   5.761 -30.860  1.00  0.00     0.014 A 
HETATM   13  C   UNL     1      -1.943   6.433 -30.567  1.00  0.00     0.008 A 
HETATM   14  C   UNL     1      -0.768   6.135 -31.267  1.00  0.00    -0.059 A 
HETATM   15  C   UNL     1      -0.805   5.155 -32.265  1.00  0.00     0.008 A 
HETATM   16  C   UNL     1      -1.996   4.485 -32.558  1.00  0.00     0.014 A 
BRANCH  14  17
HETATM   17  C   UNL     1       0.521   6.840 -30.930  1.00  0.00     0.034 C 
HETATM   18  C   UNL     1       0.549   7.300 -29.480  1.00  0.00     0.010 C 
ENDBRANCH  14  17
ENDBRANCH   9  11
ENDBRANCH   1   5
BRANCH   2  19
HETATM   19  N   UNL     1      -9.592   2.140 -34.048  1.00  0.00    -0.176 NA
HETATM   20  C   UNL     1     -10.210   1.133 -33.499  1.00  0.00     0.061 C 
HETATM   21  C   UNL     1      -9.543   0.156 -32.550  1.00  0.00     0.073 C 
BRANCH  20  22
HETATM   22  C   UNL     1     -11.658   0.929 -33.831  1.00  0.00    -0.010 A 
HETATM   23  C   UNL     1     -12.328   1.916 -34.571  1.00  0.00     0.016 A 
HETATM   24  C   UNL     1     -13.678   1.766 -34.899  1.00  0.00     0.037 A 
HETATM   25  C   UNL     1     -14.359   0.629 -34.481  1.00  0.00     0.065 A 
HETATM   26  C   UNL     1     -13.715  -0.353 -33.737  1.00  0.00     0.037 A 
HETATM   27  C   UNL     1     -12.366  -0.202 -33.405  1.00  0.00     0.016 A 
BRANCH  25  28
HETATM   28  O   UNL     1     -15.675   0.437 -34.778  1.00  0.00    -0.361 OA
HETATM   29  H   UNL     1     -16.088  -0.061 -34.054  1.00  0.00     0.217 HD
ENDBRANCH  25  28
ENDBRANCH  20  22
ENDBRANCH   2  19
TORSDOF 6
ENDMDL
MODEL 8
REMARK VINA RESULT:      -7.7      3.703      4.372
REMARK  6 active torsions:
REMARK  status: ('A' for Active; 'I' for Inactive)
REMARK    1  A    between atoms: C_2  and  C_3 
REMARK    2  A    between atoms: C_6  and  C_7 
REMARK    3  A    between atoms: C_11  and  C_12 
REMARK       I    between atoms: C_12  and  N_13 
REMARK    4  A    between atoms: N_13  and  N_14 
REMARK    5  A    between atoms: C_15  and  C_16 
REMARK    6  A    between atoms: C_19  and  O_20 
ROOT
HETATM    1  C   UNL     1      -5.266   4.463 -33.558  1.00  0.00     0.289 C 
HETATM    2  N   UNL     1      -6.329   3.977 -32.812  1.00  0.00    -0.241 N 
HETATM    3  O   UNL     1      -5.300   4.663 -34.770  1.00  0.00    -0.264 OA
HETATM    4  H   UNL     1      -6.218   3.824 -31.820  1.00  0.00     0.192 HD
ENDROOT
BRANCH   1   5
HETATM    5  C   UNL     1      -4.065   4.702 -32.795  1.00  0.00     0.121 A 
HETATM    6  N   UNL     1      -3.097   3.745 -32.669  1.00  0.00    -0.272 N 
HETATM    7  N   UNL     1      -2.062   4.108 -31.897  1.00  0.00    -0.174 NA
HETATM    8  H   UNL     1      -3.106   2.815 -33.080  1.00  0.00     0.189 HD
HETATM    9  C   UNL     1      -2.336   5.369 -31.532  1.00  0.00     0.089 A 
HETATM   10  C   UNL     1      -3.587   5.778 -32.074  1.00  0.00     0.071 A 
BRANCH   9  11
HETATM   11  C   UNL     1      -1.435   6.144 -30.673  1.00  0.00    -0.006 A 
HETATM   12  C   UNL     1      -1.933   7.121 -29.800  1.00  0.00     0.014 A 
HETATM   13  C   UNL     1      -1.072   7.839 -28.964  1.00  0.00     0.008 A 
HETATM   14  C   UNL     1       0.307   7.595 -28.986  1.00  0.00    -0.059 A 
HETATM   15  C   UNL     1       0.808   6.624 -29.860  1.00  0.00     0.008 A 
HETATM   16  C   UNL     1      -0.053   5.911 -30.698  1.00  0.00     0.014 A 
BRANCH  14  17
HETATM   17  C   UNL     1       1.229   8.348 -28.062  1.00  0.00     0.034 C 
HETATM   18  C   UNL     1       1.505   7.571 -26.784  1.00  0.00     0.010 C 
ENDBRANCH  14  17
ENDBRANCH   9  11
ENDBRANCH   1   5
BRANCH   2  19
HETATM   19  N   UNL     1      -7.527   3.716 -33.403  1.00  0.00    -0.176 NA
HETATM   20  C   UNL     1      -8.229   2.694 -33.005  1.00  0.00     0.061 C 
HETATM   21  C   UNL     1      -7.762   1.719 -31.941  1.00  0.00     0.073 C 
BRANCH  20  22
HETATM   22  C   UNL     1      -9.569   2.469 -33.640  1.00  0.00    -0.010 A 
HETATM   23  C   UNL     1     -10.261   1.281 -33.356  1.00  0.00     0.016 A 
HETATM   24  C   UNL     1     -11.511   1.031 -33.928  1.00  0.00     0.037 A 
HETATM   25  C   UNL     1     -12.067   1.971 -34.789  1.00  0.00     0.065 A 
HETATM   26  C   UNL     1     -11.391   3.147 -35.091  1.00  0.00     0.037 A 
HETATM   27  C   UNL     1     -10.138   3.396 -34.523  1.00  0.00     0.016 A 
BRANCH  25  28
HETATM   28  O   UNL     1     -13.284   1.773 -35.370  1.00  0.00    -0.361 OA
HETATM   29  H   UNL     1     -13.197   1.911 -36.327  1.00  0.00     0.217 HD
ENDBRANCH  25  28
ENDBRANCH  20  22
ENDBRANCH   2  19
TORSDOF 6
ENDMDL
MODEL 9
REMARK VINA RESULT:      -7.6      3.803     10.987
REMARK  6 active torsions:
REMARK  status: ('A' for Active; 'I' for Inactive)
REMARK    1  A    between atoms: C_2  and  C_3 
REMARK    2  A    between atoms: C_6  and  C_7 
REMARK    3  A    between atoms: C_11  and  C_12 
REMARK       I    between atoms: C_12  and  N_13 
REMARK    4  A    between atoms: N_13  and  N_14 
REMARK    5  A    between atoms: C_15  and  C_16 
REMARK    6  A    between atoms: C_19  and  O_20 
ROOT
HETATM    1  C   UNL     1      -0.585   5.828 -30.962  1.00  0.00     0.289 C 
HETATM    2  N   UNL     1      -0.727   5.776 -29.584  1.00  0.00    -0.241 N 
HETATM    3  O   UNL     1       0.205   6.559 -31.554  1.00  0.00    -0.264 OA
HETATM    4  H   UNL     1      -1.411   5.158 -29.172  1.00  0.00     0.192 HD
ENDROOT
BRANCH   1   5
HETATM    5  C   UNL     1      -1.477   4.953 -31.685  1.00  0.00     0.121 A 
HETATM    6  N   UNL     1      -1.557   4.984 -33.049  1.00  0.00    -0.272 N 
HETATM    7  N   UNL     1      -2.460   4.138 -33.567  1.00  0.00    -0.174 NA
HETATM    8  H   UNL     1      -1.024   5.583 -33.674  1.00  0.00     0.189 HD
HETATM    9  C   UNL     1      -2.968   3.493 -32.506  1.00  0.00     0.089 A 
HETATM   10  C   UNL     1      -2.378   3.978 -31.305  1.00  0.00     0.071 A 
BRANCH   9  11
HETATM   11  C   UNL     1      -4.001   2.462 -32.644  1.00  0.00    -0.006 A 
HETATM   12  C   UNL     1      -5.297   2.790 -33.066  1.00  0.00     0.014 A 
HETATM   13  C   UNL     1      -6.271   1.799 -33.223  1.00  0.00     0.008 A 
HETATM   14  C   UNL     1      -5.969   0.458 -32.956  1.00  0.00    -0.059 A 
HETATM   15  C   UNL     1      -4.679   0.127 -32.529  1.00  0.00     0.008 A 
HETATM   16  C   UNL     1      -3.707   1.119 -32.370  1.00  0.00     0.014 A 
BRANCH  14  17
HETATM   17  C   UNL     1      -7.012  -0.612 -33.154  1.00  0.00     0.034 C 
HETATM   18  C   UNL     1      -8.422  -0.046 -33.086  1.00  0.00     0.010 C 
ENDBRANCH  14  17
ENDBRANCH   9  11
ENDBRANCH   1   5
BRANCH   2  19
HETATM   19  N   UNL     1       0.059   6.543 -28.779  1.00  0.00    -0.176 NA
HETATM   20  C   UNL     1      -0.444   7.606 -28.218  1.00  0.00     0.061 C 
HETATM   21  C   UNL     1      -1.862   8.089 -28.454  1.00  0.00     0.073 C 
BRANCH  20  22
HETATM   22  C   UNL     1       0.434   8.396 -27.293  1.00  0.00    -0.010 A 
HETATM   23  C   UNL     1       1.468   7.734 -26.612  1.00  0.00     0.016 A 
HETATM   24  C   UNL     1       2.306   8.432 -25.739  1.00  0.00     0.037 A 
HETATM   25  C   UNL     1       2.106   9.794 -25.545  1.00  0.00     0.065 A 
HETATM   26  C   UNL     1       1.081  10.463 -26.202  1.00  0.00     0.037 A 
HETATM   27  C   UNL     1       0.238   9.765 -27.071  1.00  0.00     0.016 A 
BRANCH  25  28
HETATM   28  O   UNL     1       2.900  10.517 -24.706  1.00  0.00    -0.361 OA
HETATM   29  H   UNL     1       2.405  10.697 -23.890  1.00  0.00     0.217 HD
ENDBRANCH  25  28
ENDBRANCH  20  22
ENDBRANCH   2  19
TORSDOF 6
ENDMDL
MODEL 10
REMARK VINA RESULT:      -7.6      2.353      2.792
REMARK  6 active torsions:
REMARK  status: ('A' for Active; 'I' for Inactive)
REMARK    1  A    between atoms: C_2  and  C_3 
REMARK    2  A    between atoms: C_6  and  C_7 
REMARK    3  A    between atoms: C_11  and  C_12 
REMARK       I    between atoms: C_12  and  N_13 
REMARK    4  A    between atoms: N_13  and  N_14 
REMARK    5  A    between atoms: C_15  and  C_16 
REMARK    6  A    between atoms: C_19  and  O_20 
ROOT
HETATM    1  C   UNL     1      -6.177   2.139 -31.174  1.00  0.00     0.289 C 
HETATM    2  N   UNL     1      -5.482   1.740 -32.306  1.00  0.00    -0.241 N 
HETATM    3  O   UNL     1      -7.107   1.513 -30.671  1.00  0.00    -0.264 OA
HETATM    4  H   UNL     1      -4.738   2.318 -32.669  1.00  0.00     0.192 HD
ENDROOT
BRANCH   1   5
HETATM    5  C   UNL     1      -5.738   3.398 -30.621  1.00  0.00     0.121 A 
HETATM    6  N   UNL     1      -6.047   3.760 -29.340  1.00  0.00    -0.272 N 
HETATM    7  N   UNL     1      -5.599   4.975 -28.988  1.00  0.00    -0.174 NA
HETATM    8  H   UNL     1      -6.580   3.215 -28.667  1.00  0.00     0.189 HD
HETATM    9  C   UNL     1      -4.934   5.417 -30.066  1.00  0.00     0.089 A 
HETATM   10  C   UNL     1      -5.000   4.455 -31.113  1.00  0.00     0.071 A 
BRANCH   9  11
HETATM   11  C   UNL     1      -4.277   6.727 -30.092  1.00  0.00    -0.006 A 
HETATM   12  C   UNL     1      -4.359   7.553 -31.222  1.00  0.00     0.014 A 
HETATM   13  C   UNL     1      -3.754   8.813 -31.232  1.00  0.00     0.008 A 
HETATM   14  C   UNL     1      -3.050   9.272 -30.111  1.00  0.00    -0.059 A 
HETATM   15  C   UNL     1      -2.961   8.449 -28.984  1.00  0.00     0.008 A 
HETATM   16  C   UNL     1      -3.564   7.187 -28.977  1.00  0.00     0.014 A 
BRANCH  14  17
HETATM   17  C   UNL     1      -2.424  10.643 -30.113  1.00  0.00     0.034 C 
HETATM   18  C   UNL     1      -2.049  11.094 -28.709  1.00  0.00     0.010 C 
ENDBRANCH  14  17
ENDBRANCH   9  11
ENDBRANCH   1   5
BRANCH   2  19
HETATM   19  N   UNL     1      -5.786   0.566 -32.925  1.00  0.00    -0.176 NA
HETATM   20  C   UNL     1      -4.864  -0.345 -33.058  1.00  0.00     0.061 C 
HETATM   21  C   UNL     1      -3.428  -0.157 -32.610  1.00  0.00     0.073 C 
BRANCH  20  22
HETATM   22  C   UNL     1      -5.248  -1.648 -33.695  1.00  0.00    -0.010 A 
HETATM   23  C   UNL     1      -6.580  -1.838 -34.096  1.00  0.00     0.016 A 
HETATM   24  C   UNL     1      -6.980  -3.037 -34.691  1.00  0.00     0.037 A 
HETATM   25  C   UNL     1      -6.046  -4.049 -34.879  1.00  0.00     0.065 A 
HETATM   26  C   UNL     1      -4.726  -3.884 -34.477  1.00  0.00     0.037 A 
HETATM   27  C   UNL     1      -4.326  -2.686 -33.878  1.00  0.00     0.016 A 
BRANCH  25  28
HETATM   28  O   UNL     1      -6.388  -5.236 -35.456  1.00  0.00    -0.361 OA
HETATM   29  H   UNL     1      -5.907  -5.323 -36.295  1.00  0.00     0.217 HD
ENDBRANCH  25  28
ENDBRANCH  20  22
ENDBRANCH   2  19
TORSDOF 6
ENDMDL
