MODEL 1
REMARK VINA RESULT:      -9.2      0.000      0.000
REMARK  8 active torsions:
REMARK  status: ('A' for Active; 'I' for Inactive)
REMARK    1  A    between atoms: O_2  and  C_3 
REMARK    2  A    between atoms: C_5  and  O_6 
REMARK    3  A    between atoms: C_8  and  C_9 
REMARK    4  A    between atoms: N_10  and  C_12 
REMARK    5  A    between atoms: C_12  and  C_13 
REMARK       I    between atoms: C_13  and  N_14 
REMARK    6  A    between atoms: N_14  and  C_15 
REMARK    7  A    between atoms: C_16  and  C_17 
REMARK    8  A    between atoms: C_17  and  C_18 
ROOT
HETATM    1  C   UNL     1      -4.860   2.428 -30.523  1.00  0.00     0.338 C 
ENDROOT
BRANCH   1   2
HETATM    2  N   UNL     1      -5.884   1.654 -31.349  1.00  0.00    -0.054 N 
HETATM    3  C   UNL     1      -5.571   1.623 -32.862  1.00  0.00     0.224 C 
HETATM    4  C   UNL     1      -6.637   2.557 -33.444  1.00  0.00     0.040 C 
HETATM    5  C   UNL     1      -7.855   2.289 -32.586  1.00  0.00     0.030 C 
HETATM    6  C   UNL     1      -7.286   2.207 -31.186  1.00  0.00     0.236 C 
HETATM    7  H   UNL     1      -5.849   0.689 -31.018  1.00  0.00     0.281 HD
BRANCH   3   8
HETATM    8  C   UNL     1      -5.615   0.238 -33.497  1.00  0.00     0.006 A 
HETATM    9  C   UNL     1      -4.485  -0.599 -33.355  1.00  0.00     0.079 A 
HETATM   10  C   UNL     1      -4.485  -1.886 -33.902  1.00  0.00     0.074 A 
HETATM   11  C   UNL     1      -5.582  -2.360 -34.623  1.00  0.00     0.070 A 
HETATM   12  C   UNL     1      -6.680  -1.529 -34.814  1.00  0.00     0.037 A 
HETATM   13  C   UNL     1      -6.695  -0.240 -34.265  1.00  0.00     0.015 A 
BRANCH   9  14
HETATM   14  O   UNL     1      -3.432  -0.056 -32.663  1.00  0.00    -0.355 OA
HETATM   15  C   UNL     1      -2.897  -0.835 -31.593  1.00  0.00     0.210 C 
ENDBRANCH   9  14
BRANCH  11  16
HETATM   16  O   UNL     1      -5.445  -3.632 -35.100  1.00  0.00    -0.356 OA
HETATM   17  C   UNL     1      -6.607  -4.453 -35.119  1.00  0.00     0.210 C 
ENDBRANCH  11  16
ENDBRANCH   3   8
ENDBRANCH   1   2
BRANCH   1  18
HETATM   18  C   UNL     1      -4.282   3.642 -31.252  1.00  0.00     0.248 C 
HETATM   19  N   UNL     1      -3.040   3.408 -31.827  1.00  0.00    -0.325 N 
HETATM   20  H   UNL     1      -2.824   2.459 -32.102  1.00  0.00     0.169 HD
HETATM   21  O   UNL     1      -4.940   4.672 -31.351  1.00  0.00    -0.271 OA
BRANCH  19  22
HETATM   22  C   UNL     1      -2.346   4.397 -32.564  1.00  0.00     0.041 A 
HETATM   23  C   UNL     1      -1.352   5.234 -32.025  1.00  0.00    -0.027 A 
HETATM   24  C   UNL     1      -0.786   6.221 -32.860  1.00  0.00     0.010 A 
HETATM   25  C   UNL     1      -1.159   6.344 -34.197  1.00  0.00     0.001 A 
HETATM   26  C   UNL     1      -2.090   5.467 -34.736  1.00  0.00     0.002 A 
HETATM   27  C   UNL     1      -2.671   4.490 -33.929  1.00  0.00     0.030 A 
BRANCH  23  28
HETATM   28  C   UNL     1      -0.717   5.042 -30.660  1.00  0.00     0.079 C 
BRANCH  28  29
HETATM   29  C   UNL     1      -0.668   6.323 -29.848  1.00  0.00    -0.054 A 
HETATM   30  C   UNL     1       0.556   6.829 -29.387  1.00  0.00     0.007 A 
HETATM   31  C   UNL     1       0.598   7.991 -28.614  1.00  0.00     0.001 A 
HETATM   32  C   UNL     1      -0.582   8.660 -28.294  1.00  0.00     0.000 A 
HETATM   33  C   UNL     1      -1.804   8.168 -28.745  1.00  0.00     0.001 A 
HETATM   34  C   UNL     1      -1.848   7.005 -29.516  1.00  0.00     0.007 A 
ENDBRANCH  28  29
ENDBRANCH  23  28
ENDBRANCH  19  22
ENDBRANCH   1  18
TORSDOF 8
ENDMDL
MODEL 2
REMARK VINA RESULT:      -9.1      5.263      9.634
REMARK  8 active torsions:
REMARK  status: ('A' for Active; 'I' for Inactive)
REMARK    1  A    between atoms: O_2  and  C_3 
REMARK    2  A    between atoms: C_5  and  O_6 
REMARK    3  A    between atoms: C_8  and  C_9 
REMARK    4  A    between atoms: N_10  and  C_12 
REMARK    5  A    between atoms: C_12  and  C_13 
REMARK       I    between atoms: C_13  and  N_14 
REMARK    6  A    between atoms: N_14  and  C_15 
REMARK    7  A    between atoms: C_16  and  C_17 
REMARK    8  A    between atoms: C_17  and  C_18 
ROOT
HETATM    1  C   UNL     1     -10.030   1.295 -33.638  1.00  0.00     0.338 C 
ENDROOT
BRANCH   1   2
HETATM    2  N   UNL     1     -10.944   2.095 -32.715  1.00  0.00    -0.054 N 
HETATM    3  C   UNL     1     -11.914   3.039 -33.460  1.00  0.00     0.224 C 
HETATM    4  C   UNL     1     -11.330   4.423 -33.161  1.00  0.00     0.040 C 
HETATM    5  C   UNL     1     -10.820   4.298 -31.741  1.00  0.00     0.030 C 
HETATM    6  C   UNL     1     -10.162   2.935 -31.724  1.00  0.00     0.236 C 
HETATM    7  H   UNL     1     -11.517   1.412 -32.217  1.00  0.00     0.281 HD
BRANCH   3   8
HETATM    8  C   UNL     1     -13.373   2.927 -33.031  1.00  0.00     0.006 A 
HETATM    9  C   UNL     1     -14.087   1.762 -33.386  1.00  0.00     0.079 A 
HETATM   10  C   UNL     1     -15.421   1.604 -32.998  1.00  0.00     0.074 A 
HETATM   11  C   UNL     1     -16.083   2.602 -32.281  1.00  0.00     0.070 A 
HETATM   12  C   UNL     1     -15.408   3.776 -31.969  1.00  0.00     0.037 A 
HETATM   13  C   UNL     1     -14.069   3.943 -32.347  1.00  0.00     0.015 A 
BRANCH   9  14
HETATM   14  O   UNL     1     -13.384   0.838 -34.117  1.00  0.00    -0.355 OA
HETATM   15  C   UNL     1     -13.367  -0.499 -33.617  1.00  0.00     0.210 C 
ENDBRANCH   9  14
BRANCH  11  16
HETATM   16  O   UNL     1     -17.381   2.315 -31.970  1.00  0.00    -0.356 OA
HETATM   17  C   UNL     1     -18.271   3.412 -31.795  1.00  0.00     0.210 C 
ENDBRANCH  11  16
ENDBRANCH   3   8
ENDBRANCH   1   2
BRANCH   1  18
HETATM   18  C   UNL     1      -8.552   1.376 -33.253  1.00  0.00     0.248 C 
HETATM   19  N   UNL     1      -8.134   0.341 -32.425  1.00  0.00    -0.325 N 
HETATM   20  H   UNL     1      -8.629  -0.538 -32.491  1.00  0.00     0.169 HD
HETATM   21  O   UNL     1      -7.838   2.252 -33.728  1.00  0.00    -0.271 OA
BRANCH  19  22
HETATM   22  C   UNL     1      -6.798   0.223 -31.973  1.00  0.00     0.041 A 
HETATM   23  C   UNL     1      -5.768  -0.399 -32.703  1.00  0.00    -0.027 A 
HETATM   24  C   UNL     1      -4.495  -0.502 -32.103  1.00  0.00     0.010 A 
HETATM   25  C   UNL     1      -4.238   0.034 -30.842  1.00  0.00     0.001 A 
HETATM   26  C   UNL     1      -5.245   0.706 -30.162  1.00  0.00     0.002 A 
HETATM   27  C   UNL     1      -6.514   0.812 -30.729  1.00  0.00     0.030 A 
BRANCH  23  28
HETATM   28  C   UNL     1      -5.878  -0.814 -34.158  1.00  0.00     0.079 C 
BRANCH  28  29
HETATM   29  C   UNL     1      -5.679  -2.304 -34.363  1.00  0.00    -0.054 A 
HETATM   30  C   UNL     1      -6.746  -3.115 -34.776  1.00  0.00     0.007 A 
HETATM   31  C   UNL     1      -6.570  -4.492 -34.935  1.00  0.00     0.001 A 
HETATM   32  C   UNL     1      -5.328  -5.071 -34.683  1.00  0.00     0.000 A 
HETATM   33  C   UNL     1      -4.261  -4.276 -34.272  1.00  0.00     0.001 A 
HETATM   34  C   UNL     1      -4.435  -2.901 -34.110  1.00  0.00     0.007 A 
ENDBRANCH  28  29
ENDBRANCH  23  28
ENDBRANCH  19  22
ENDBRANCH   1  18
TORSDOF 8
ENDMDL
MODEL 3
REMARK VINA RESULT:      -8.9      2.332      9.211
REMARK  8 active torsions:
REMARK  status: ('A' for Active; 'I' for Inactive)
REMARK    1  A    between atoms: O_2  and  C_3 
REMARK    2  A    between atoms: C_5  and  O_6 
REMARK    3  A    between atoms: C_8  and  C_9 
REMARK    4  A    between atoms: N_10  and  C_12 
REMARK    5  A    between atoms: C_12  and  C_13 
REMARK       I    between atoms: C_13  and  N_14 
REMARK    6  A    between atoms: N_14  and  C_15 
REMARK    7  A    between atoms: C_16  and  C_17 
REMARK    8  A    between atoms: C_17  and  C_18 
ROOT
HETATM    1  C   UNL     1      -4.524   5.106 -33.689  1.00  0.00     0.338 C 
ENDROOT
BRANCH   1   2
HETATM    2  N   UNL     1      -3.021   5.115 -33.430  1.00  0.00    -0.054 N 
HETATM    3  C   UNL     1      -2.504   6.425 -32.793  1.00  0.00     0.224 C 
HETATM    4  C   UNL     1      -1.744   7.081 -33.949  1.00  0.00     0.040 C 
HETATM    5  C   UNL     1      -1.115   5.911 -34.676  1.00  0.00     0.030 C 
HETATM    6  C   UNL     1      -2.221   4.878 -34.695  1.00  0.00     0.236 C 
HETATM    7  H   UNL     1      -2.842   4.367 -32.758  1.00  0.00     0.281 HD
BRANCH   3   8
HETATM    8  C   UNL     1      -1.625   6.236 -31.563  1.00  0.00     0.006 A 
HETATM    9  C   UNL     1      -1.766   7.148 -30.493  1.00  0.00     0.079 A 
HETATM   10  C   UNL     1      -0.996   7.004 -29.335  1.00  0.00     0.074 A 
HETATM   11  C   UNL     1      -0.054   5.981 -29.221  1.00  0.00     0.070 A 
HETATM   12  C   UNL     1       0.131   5.107 -30.286  1.00  0.00     0.037 A 
HETATM   13  C   UNL     1      -0.639   5.236 -31.449  1.00  0.00     0.015 A 
BRANCH   9  14
HETATM   14  O   UNL     1      -2.686   8.147 -30.687  1.00  0.00    -0.355 OA
HETATM   15  C   UNL     1      -2.284   9.469 -30.328  1.00  0.00     0.210 C 
ENDBRANCH   9  14
BRANCH  11  16
HETATM   16  O   UNL     1       0.626   5.960 -28.038  1.00  0.00    -0.356 OA
HETATM   17  C   UNL     1       0.846   7.206 -27.387  1.00  0.00     0.210 C 
ENDBRANCH  11  16
ENDBRANCH   3   8
ENDBRANCH   1   2
BRANCH   1  18
HETATM   18  C   UNL     1      -5.297   4.165 -32.765  1.00  0.00     0.248 C 
HETATM   19  N   UNL     1      -4.822   2.859 -32.775  1.00  0.00    -0.325 N 
HETATM   20  H   UNL     1      -3.845   2.720 -32.996  1.00  0.00     0.169 HD
HETATM   21  O   UNL     1      -6.190   4.601 -32.047  1.00  0.00    -0.271 OA
BRANCH  19  22
HETATM   22  C   UNL     1      -5.386   1.840 -31.971  1.00  0.00     0.041 A 
HETATM   23  C   UNL     1      -6.101   0.738 -32.477  1.00  0.00    -0.027 A 
HETATM   24  C   UNL     1      -6.664  -0.171 -31.556  1.00  0.00     0.010 A 
HETATM   25  C   UNL     1      -6.486  -0.019 -30.182  1.00  0.00     0.001 A 
HETATM   26  C   UNL     1      -5.720   1.033 -29.699  1.00  0.00     0.002 A 
HETATM   27  C   UNL     1      -5.163   1.951 -30.588  1.00  0.00     0.030 A 
BRANCH  23  28
HETATM   28  C   UNL     1      -6.164   0.358 -33.944  1.00  0.00     0.079 C 
BRANCH  28  29
HETATM   29  C   UNL     1      -5.902  -1.117 -34.183  1.00  0.00    -0.054 A 
HETATM   30  C   UNL     1      -4.620  -1.653 -33.994  1.00  0.00     0.007 A 
HETATM   31  C   UNL     1      -4.373  -3.005 -34.243  1.00  0.00     0.001 A 
HETATM   32  C   UNL     1      -5.402  -3.835 -34.683  1.00  0.00     0.000 A 
HETATM   33  C   UNL     1      -6.680  -3.315 -34.874  1.00  0.00     0.001 A 
HETATM   34  C   UNL     1      -6.929  -1.963 -34.628  1.00  0.00     0.007 A 
ENDBRANCH  28  29
ENDBRANCH  23  28
ENDBRANCH  19  22
ENDBRANCH   1  18
TORSDOF 8
ENDMDL
MODEL 4
REMARK VINA RESULT:      -8.5      4.619      8.337
REMARK  8 active torsions:
REMARK  status: ('A' for Active; 'I' for Inactive)
REMARK    1  A    between atoms: O_2  and  C_3 
REMARK    2  A    between atoms: C_5  and  O_6 
REMARK    3  A    between atoms: C_8  and  C_9 
REMARK    4  A    between atoms: N_10  and  C_12 
REMARK    5  A    between atoms: C_12  and  C_13 
REMARK       I    between atoms: C_13  and  N_14 
REMARK    6  A    between atoms: N_14  and  C_15 
REMARK    7  A    between atoms: C_16  and  C_17 
REMARK    8  A    between atoms: C_17  and  C_18 
ROOT
HETATM    1  C   UNL     1      -7.453   2.752 -32.267  1.00  0.00     0.338 C 
ENDROOT
BRANCH   1   2
HETATM    2  N   UNL     1      -7.669   1.247 -32.390  1.00  0.00    -0.054 N 
HETATM    3  C   UNL     1      -7.518   0.710 -33.831  1.00  0.00     0.224 C 
HETATM    4  C   UNL     1      -8.963   0.385 -34.221  1.00  0.00     0.040 C 
HETATM    5  C   UNL     1      -9.575  -0.128 -32.934  1.00  0.00     0.030 C 
HETATM    6  C   UNL     1      -9.035   0.822 -31.887  1.00  0.00     0.236 C 
HETATM    7  H   UNL     1      -6.938   0.805 -31.830  1.00  0.00     0.281 HD
BRANCH   3   8
HETATM    8  C   UNL     1      -6.601  -0.500 -33.971  1.00  0.00     0.006 A 
HETATM    9  C   UNL     1      -5.262  -0.378 -33.539  1.00  0.00     0.079 A 
HETATM   10  C   UNL     1      -4.388  -1.466 -33.628  1.00  0.00     0.074 A 
HETATM   11  C   UNL     1      -4.807  -2.681 -34.171  1.00  0.00     0.070 A 
HETATM   12  C   UNL     1      -6.107  -2.800 -34.647  1.00  0.00     0.037 A 
HETATM   13  C   UNL     1      -6.995  -1.719 -34.557  1.00  0.00     0.015 A 
BRANCH   9  14
HETATM   14  O   UNL     1      -4.911   0.854 -33.047  1.00  0.00    -0.355 OA
HETATM   15  C   UNL     1      -3.963   0.872 -31.979  1.00  0.00     0.210 C 
ENDBRANCH   9  14
BRANCH  11  16
HETATM   16  O   UNL     1      -3.850  -3.654 -34.196  1.00  0.00    -0.356 OA
HETATM   17  C   UNL     1      -4.270  -4.992 -33.950  1.00  0.00     0.210 C 
ENDBRANCH  11  16
ENDBRANCH   3   8
ENDBRANCH   1   2
BRANCH   1  18
HETATM   18  C   UNL     1      -8.703   3.575 -32.582  1.00  0.00     0.248 C 
HETATM   19  N   UNL     1      -8.872   3.837 -33.936  1.00  0.00    -0.325 N 
HETATM   20  H   UNL     1      -8.480   3.174 -34.592  1.00  0.00     0.169 HD
HETATM   21  O   UNL     1      -9.486   3.875 -31.687  1.00  0.00    -0.271 OA
BRANCH  19  22
HETATM   22  C   UNL     1      -9.978   4.564 -34.437  1.00  0.00     0.041 A 
HETATM   23  C   UNL     1     -11.171   3.975 -34.895  1.00  0.00    -0.027 A 
HETATM   24  C   UNL     1     -12.169   4.818 -35.428  1.00  0.00     0.010 A 
HETATM   25  C   UNL     1     -12.010   6.203 -35.463  1.00  0.00     0.001 A 
HETATM   26  C   UNL     1     -10.857   6.777 -34.944  1.00  0.00     0.002 A 
HETATM   27  C   UNL     1      -9.852   5.964 -34.422  1.00  0.00     0.030 A 
BRANCH  23  28
HETATM   28  C   UNL     1     -11.536   2.516 -34.700  1.00  0.00     0.079 C 
BRANCH  28  29
HETATM   29  C   UNL     1     -12.840   2.330 -33.947  1.00  0.00    -0.054 A 
HETATM   30  C   UNL     1     -13.079   3.027 -32.754  1.00  0.00     0.007 A 
HETATM   31  C   UNL     1     -14.267   2.833 -32.045  1.00  0.00     0.001 A 
HETATM   32  C   UNL     1     -15.227   1.942 -32.520  1.00  0.00     0.000 A 
HETATM   33  C   UNL     1     -15.001   1.244 -33.703  1.00  0.00     0.001 A 
HETATM   34  C   UNL     1     -13.814   1.434 -34.413  1.00  0.00     0.007 A 
ENDBRANCH  28  29
ENDBRANCH  23  28
ENDBRANCH  19  22
ENDBRANCH   1  18
TORSDOF 8
ENDMDL
MODEL 5
REMARK VINA RESULT:      -8.3      2.291      3.954
REMARK  8 active torsions:
REMARK  status: ('A' for Active; 'I' for Inactive)
REMARK    1  A    between atoms: O_2  and  C_3 
REMARK    2  A    between atoms: C_5  and  O_6 
REMARK    3  A    between atoms: C_8  and  C_9 
REMARK    4  A    between atoms: N_10  and  C_12 
REMARK    5  A    between atoms: C_12  and  C_13 
REMARK       I    between atoms: C_13  and  N_14 
REMARK    6  A    between atoms: N_14  and  C_15 
REMARK    7  A    between atoms: C_16  and  C_17 
REMARK    8  A    between atoms: C_17  and  C_18 
ROOT
HETATM    1  C   UNL     1      -4.912   2.608 -30.853  1.00  0.00     0.338 C 
ENDROOT
BRANCH   1   2
HETATM    2  N   UNL     1      -5.735   1.855 -31.894  1.00  0.00    -0.054 N 
HETATM    3  C   UNL     1      -6.911   1.049 -31.297  1.00  0.00     0.224 C 
HETATM    4  C   UNL     1      -6.433  -0.398 -31.443  1.00  0.00     0.040 C 
HETATM    5  C   UNL     1      -5.680  -0.397 -32.756  1.00  0.00     0.030 C 
HETATM    6  C   UNL     1      -4.890   0.892 -32.704  1.00  0.00     0.236 C 
HETATM    7  H   UNL     1      -6.141   2.564 -32.507  1.00  0.00     0.281 HD
BRANCH   3   8
HETATM    8  C   UNL     1      -8.256   1.280 -31.977  1.00  0.00     0.006 A 
HETATM    9  C   UNL     1      -8.779   2.592 -31.996  1.00  0.00     0.079 A 
HETATM   10  C   UNL     1      -9.999   2.858 -32.625  1.00  0.00     0.074 A 
HETATM   11  C   UNL     1     -10.739   1.834 -33.218  1.00  0.00     0.070 A 
HETATM   12  C   UNL     1     -10.261   0.530 -33.162  1.00  0.00     0.037 A 
HETATM   13  C   UNL     1      -9.037   0.252 -32.541  1.00  0.00     0.015 A 
BRANCH   9  14
HETATM   14  O   UNL     1      -8.015   3.542 -31.366  1.00  0.00    -0.355 OA
HETATM   15  C   UNL     1      -8.605   4.201 -30.246  1.00  0.00     0.210 C 
ENDBRANCH   9  14
BRANCH  11  16
HETATM   16  O   UNL     1     -11.910   2.236 -33.794  1.00  0.00    -0.356 OA
HETATM   17  C   UNL     1     -12.357   1.520 -34.939  1.00  0.00     0.210 C 
ENDBRANCH  11  16
ENDBRANCH   3   8
ENDBRANCH   1   2
BRANCH   1  18
HETATM   18  C   UNL     1      -3.672   3.289 -31.434  1.00  0.00     0.248 C 
HETATM   19  N   UNL     1      -3.956   4.436 -32.165  1.00  0.00    -0.325 N 
HETATM   20  H   UNL     1      -4.791   4.950 -31.920  1.00  0.00     0.169 HD
HETATM   21  O   UNL     1      -2.554   2.858 -31.174  1.00  0.00    -0.271 OA
BRANCH  19  22
HETATM   22  C   UNL     1      -2.945   5.223 -32.766  1.00  0.00     0.041 A 
HETATM   23  C   UNL     1      -2.463   6.433 -32.234  1.00  0.00    -0.027 A 
HETATM   24  C   UNL     1      -1.495   7.148 -32.972  1.00  0.00     0.010 A 
HETATM   25  C   UNL     1      -0.988   6.657 -34.174  1.00  0.00     0.001 A 
HETATM   26  C   UNL     1      -1.420   5.428 -34.653  1.00  0.00     0.002 A 
HETATM   27  C   UNL     1      -2.384   4.708 -33.947  1.00  0.00     0.030 A 
BRANCH  23  28
HETATM   28  C   UNL     1      -2.779   6.943 -30.840  1.00  0.00     0.079 C 
BRANCH  28  29
HETATM   29  C   UNL     1      -1.551   7.030 -29.952  1.00  0.00    -0.054 A 
HETATM   30  C   UNL     1      -1.240   8.221 -29.280  1.00  0.00     0.007 A 
HETATM   31  C   UNL     1      -0.094   8.310 -28.488  1.00  0.00     0.001 A 
HETATM   32  C   UNL     1       0.753   7.211 -28.358  1.00  0.00     0.000 A 
HETATM   33  C   UNL     1       0.456   6.023 -29.020  1.00  0.00     0.001 A 
HETATM   34  C   UNL     1      -0.689   5.932 -29.815  1.00  0.00     0.007 A 
ENDBRANCH  28  29
ENDBRANCH  23  28
ENDBRANCH  19  22
ENDBRANCH   1  18
TORSDOF 8
ENDMDL
MODEL 6
REMARK VINA RESULT:      -8.2      2.472      5.020
REMARK  8 active torsions:
REMARK  status: ('A' for Active; 'I' for Inactive)
REMARK    1  A    between atoms: O_2  and  C_3 
REMARK    2  A    between atoms: C_5  and  O_6 
REMARK    3  A    between atoms: C_8  and  C_9 
REMARK    4  A    between atoms: N_10  and  C_12 
REMARK    5  A    between atoms: C_12  and  C_13 
REMARK       I    between atoms: C_13  and  N_14 
REMARK    6  A    between atoms: N_14  and  C_15 
REMARK    7  A    between atoms: C_16  and  C_17 
REMARK    8  A    between atoms: C_17  and  C_18 
ROOT
HETATM    1  C   UNL     1      -3.508   1.744 -31.216  1.00  0.00     0.338 C 
ENDROOT
BRANCH   1   2
HETATM    2  N   UNL     1      -4.453   1.117 -32.237  1.00  0.00    -0.054 N 
HETATM    3  C   UNL     1      -5.494   0.157 -31.617  1.00  0.00     0.224 C 
HETATM    4  C   UNL     1      -4.993  -1.218 -32.068  1.00  0.00     0.040 C 
HETATM    5  C   UNL     1      -4.449  -0.963 -33.458  1.00  0.00     0.030 C 
HETATM    6  C   UNL     1      -3.707   0.347 -33.309  1.00  0.00     0.236 C 
HETATM    7  H   UNL     1      -4.973   1.888 -32.658  1.00  0.00     0.281 HD
BRANCH   3   8
HETATM    8  C   UNL     1      -6.935   0.411 -32.047  1.00  0.00     0.006 A 
HETATM    9  C   UNL     1      -7.666   1.416 -31.375  1.00  0.00     0.079 A 
HETATM   10  C   UNL     1      -8.984   1.699 -31.747  1.00  0.00     0.074 A 
HETATM   11  C   UNL     1      -9.614   0.981 -32.764  1.00  0.00     0.070 A 
HETATM   12  C   UNL     1      -8.923  -0.045 -33.399  1.00  0.00     0.037 A 
HETATM   13  C   UNL     1      -7.600  -0.334 -33.040  1.00  0.00     0.015 A 
BRANCH   9  14
HETATM   14  O   UNL     1      -6.996   2.059 -30.366  1.00  0.00    -0.355 OA
HETATM   15  C   UNL     1      -7.636   3.200 -29.795  1.00  0.00     0.210 C 
ENDBRANCH   9  14
BRANCH  11  16
HETATM   16  O   UNL     1     -10.899   1.363 -33.021  1.00  0.00    -0.356 OA
HETATM   17  C   UNL     1     -11.122   2.730 -33.349  1.00  0.00     0.210 C 
ENDBRANCH  11  16
ENDBRANCH   3   8
ENDBRANCH   1   2
BRANCH   1  18
HETATM   18  C   UNL     1      -3.414   3.266 -31.328  1.00  0.00     0.248 C 
HETATM   19  N   UNL     1      -2.359   3.703 -32.120  1.00  0.00    -0.325 N 
HETATM   20  H   UNL     1      -2.039   3.085 -32.853  1.00  0.00     0.169 HD
HETATM   21  O   UNL     1      -4.268   3.977 -30.810  1.00  0.00    -0.271 OA
BRANCH  19  22
HETATM   22  C   UNL     1      -2.113   5.074 -32.367  1.00  0.00     0.041 A 
HETATM   23  C   UNL     1      -2.525   5.755 -33.528  1.00  0.00    -0.027 A 
HETATM   24  C   UNL     1      -2.155   7.110 -33.673  1.00  0.00     0.010 A 
HETATM   25  C   UNL     1      -1.441   7.780 -32.680  1.00  0.00     0.001 A 
HETATM   26  C   UNL     1      -1.101   7.115 -31.510  1.00  0.00     0.002 A 
HETATM   27  C   UNL     1      -1.445   5.774 -31.347  1.00  0.00     0.030 A 
BRANCH  23  28
HETATM   28  C   UNL     1      -3.486   5.192 -34.557  1.00  0.00     0.079 C 
BRANCH  28  29
HETATM   29  C   UNL     1      -4.901   5.052 -34.028  1.00  0.00    -0.054 A 
HETATM   30  C   UNL     1      -5.672   3.923 -34.342  1.00  0.00     0.007 A 
HETATM   31  C   UNL     1      -6.985   3.809 -33.879  1.00  0.00     0.001 A 
HETATM   32  C   UNL     1      -7.541   4.821 -33.098  1.00  0.00     0.000 A 
HETATM   33  C   UNL     1      -6.786   5.947 -32.779  1.00  0.00     0.001 A 
HETATM   34  C   UNL     1      -5.474   6.064 -33.243  1.00  0.00     0.007 A 
ENDBRANCH  28  29
ENDBRANCH  23  28
ENDBRANCH  19  22
ENDBRANCH   1  18
TORSDOF 8
ENDMDL
MODEL 7
REMARK VINA RESULT:      -8.2     17.536     19.052
REMARK  8 active torsions:
REMARK  status: ('A' for Active; 'I' for Inactive)
REMARK    1  A    between atoms: O_2  and  C_3 
REMARK    2  A    between atoms: C_5  and  O_6 
REMARK    3  A    between atoms: C_8  and  C_9 
REMARK    4  A    between atoms: N_10  and  C_12 
REMARK    5  A    between atoms: C_12  and  C_13 
REMARK       I    between atoms: C_13  and  N_14 
REMARK    6  A    between atoms: N_14  and  C_15 
REMARK    7  A    between atoms: C_16  and  C_17 
REMARK    8  A    between atoms: C_17  and  C_18 
ROOT
HETATM    1  C   UNL     1      -4.714 -16.686 -35.268  1.00  0.00     0.338 C 
ENDROOT
BRANCH   1   2
HETATM    2  N   UNL     1      -6.059 -15.975 -35.392  1.00  0.00    -0.054 N 
HETATM    3  C   UNL     1      -5.994 -14.650 -36.185  1.00  0.00     0.224 C 
HETATM    4  C   UNL     1      -6.170 -13.595 -35.089  1.00  0.00     0.040 C 
HETATM    5  C   UNL     1      -7.151 -14.234 -34.129  1.00  0.00     0.030 C 
HETATM    6  C   UNL     1      -6.669 -15.666 -34.040  1.00  0.00     0.236 C 
HETATM    7  H   UNL     1      -6.669 -16.606 -35.915  1.00  0.00     0.281 HD
BRANCH   3   8
HETATM    8  C   UNL     1      -7.040 -14.512 -37.287  1.00  0.00     0.006 A 
HETATM    9  C   UNL     1      -7.075 -15.493 -38.302  1.00  0.00     0.079 A 
HETATM   10  C   UNL     1      -8.029 -15.421 -39.322  1.00  0.00     0.074 A 
HETATM   11  C   UNL     1      -8.942 -14.367 -39.379  1.00  0.00     0.070 A 
HETATM   12  C   UNL     1      -8.885 -13.367 -38.415  1.00  0.00     0.037 A 
HETATM   13  C   UNL     1      -7.939 -13.432 -37.383  1.00  0.00     0.015 A 
BRANCH   9  14
HETATM   14  O   UNL     1      -6.128 -16.481 -38.202  1.00  0.00    -0.355 OA
HETATM   15  C   UNL     1      -5.926 -17.296 -39.356  1.00  0.00     0.210 C 
ENDBRANCH   9  14
BRANCH  11  16
HETATM   16  O   UNL     1      -9.813 -14.423 -40.428  1.00  0.00    -0.356 OA
HETATM   17  C   UNL     1     -10.944 -13.560 -40.386  1.00  0.00     0.210 C 
ENDBRANCH  11  16
ENDBRANCH   3   8
ENDBRANCH   1   2
BRANCH   1  18
HETATM   18  C   UNL     1      -3.525 -15.812 -35.669  1.00  0.00     0.248 C 
HETATM   19  N   UNL     1      -3.208 -15.886 -37.020  1.00  0.00    -0.325 N 
HETATM   20  H   UNL     1      -3.956 -16.110 -37.662  1.00  0.00     0.169 HD
HETATM   21  O   UNL     1      -2.993 -15.078 -34.844  1.00  0.00    -0.271 OA
BRANCH  19  22
HETATM   22  C   UNL     1      -2.154 -15.137 -37.595  1.00  0.00     0.041 A 
HETATM   23  C   UNL     1      -2.308 -13.857 -38.159  1.00  0.00    -0.027 A 
HETATM   24  C   UNL     1      -1.182 -13.251 -38.755  1.00  0.00     0.010 A 
HETATM   25  C   UNL     1       0.066 -13.872 -38.752  1.00  0.00     0.001 A 
HETATM   26  C   UNL     1       0.220 -15.104 -38.130  1.00  0.00     0.002 A 
HETATM   27  C   UNL     1      -0.880 -15.728 -37.544  1.00  0.00     0.030 A 
BRANCH  23  28
HETATM   28  C   UNL     1      -3.555 -13.004 -38.020  1.00  0.00     0.079 C 
BRANCH  28  29
HETATM   29  C   UNL     1      -4.424 -13.025 -39.263  1.00  0.00    -0.054 A 
HETATM   30  C   UNL     1      -5.369 -12.014 -39.491  1.00  0.00     0.007 A 
HETATM   31  C   UNL     1      -6.189 -12.050 -40.620  1.00  0.00     0.001 A 
HETATM   32  C   UNL     1      -6.076 -13.097 -41.533  1.00  0.00     0.000 A 
HETATM   33  C   UNL     1      -5.143 -14.108 -41.319  1.00  0.00     0.001 A 
HETATM   34  C   UNL     1      -4.322 -14.075 -40.190  1.00  0.00     0.007 A 
ENDBRANCH  28  29
ENDBRANCH  23  28
ENDBRANCH  19  22
ENDBRANCH   1  18
TORSDOF 8
ENDMDL
MODEL 8
REMARK VINA RESULT:      -8.2      1.774      3.227
REMARK  8 active torsions:
REMARK  status: ('A' for Active; 'I' for Inactive)
REMARK    1  A    between atoms: O_2  and  C_3 
REMARK    2  A    between atoms: C_5  and  O_6 
REMARK    3  A    between atoms: C_8  and  C_9 
REMARK    4  A    between atoms: N_10  and  C_12 
REMARK    5  A    between atoms: C_12  and  C_13 
REMARK       I    between atoms: C_13  and  N_14 
REMARK    6  A    between atoms: N_14  and  C_15 
REMARK    7  A    between atoms: C_16  and  C_17 
REMARK    8  A    between atoms: C_17  and  C_18 
ROOT
HETATM    1  C   UNL     1      -4.258   2.277 -31.130  1.00  0.00     0.338 C 
ENDROOT
BRANCH   1   2
HETATM    2  N   UNL     1      -5.380   1.333 -31.552  1.00  0.00    -0.054 N 
HETATM    3  C   UNL     1      -5.552   1.213 -33.083  1.00  0.00     0.224 C 
HETATM    4  C   UNL     1      -6.856   1.975 -33.334  1.00  0.00     0.040 C 
HETATM    5  C   UNL     1      -7.702   1.649 -32.121  1.00  0.00     0.030 C 
HETATM    6  C   UNL     1      -6.720   1.744 -30.974  1.00  0.00     0.236 C 
HETATM    7  H   UNL     1      -5.121   0.407 -31.208  1.00  0.00     0.281 HD
BRANCH   3   8
HETATM    8  C   UNL     1      -5.614  -0.217 -33.609  1.00  0.00     0.006 A 
HETATM    9  C   UNL     1      -4.444  -1.006 -33.541  1.00  0.00     0.079 A 
HETATM   10  C   UNL     1      -4.457  -2.329 -33.994  1.00  0.00     0.074 A 
HETATM   11  C   UNL     1      -5.609  -2.888 -34.547  1.00  0.00     0.070 A 
HETATM   12  C   UNL     1      -6.753  -2.107 -34.667  1.00  0.00     0.037 A 
HETATM   13  C   UNL     1      -6.755  -0.783 -34.211  1.00  0.00     0.015 A 
BRANCH   9  14
HETATM   14  O   UNL     1      -3.341  -0.382 -33.016  1.00  0.00    -0.355 OA
HETATM   15  C   UNL     1      -2.686  -1.040 -31.932  1.00  0.00     0.210 C 
ENDBRANCH   9  14
BRANCH  11  16
HETATM   16  O   UNL     1      -5.478  -4.187 -34.947  1.00  0.00    -0.356 OA
HETATM   17  C   UNL     1      -4.652  -5.035 -34.157  1.00  0.00     0.210 C 
ENDBRANCH  11  16
ENDBRANCH   3   8
ENDBRANCH   1   2
BRANCH   1  18
HETATM   18  C   UNL     1      -4.623   3.756 -31.264  1.00  0.00     0.248 C 
HETATM   19  N   UNL     1      -4.680   4.428 -30.050  1.00  0.00    -0.325 N 
HETATM   20  H   UNL     1      -4.105   4.079 -29.295  1.00  0.00     0.169 HD
HETATM   21  O   UNL     1      -4.761   4.258 -32.373  1.00  0.00    -0.271 OA
BRANCH  19  22
HETATM   22  C   UNL     1      -4.980   5.809 -29.960  1.00  0.00     0.041 A 
HETATM   23  C   UNL     1      -4.012   6.822 -29.828  1.00  0.00    -0.027 A 
HETATM   24  C   UNL     1      -4.456   8.154 -29.685  1.00  0.00     0.010 A 
HETATM   25  C   UNL     1      -5.812   8.476 -29.718  1.00  0.00     0.001 A 
HETATM   26  C   UNL     1      -6.753   7.476 -29.919  1.00  0.00     0.002 A 
HETATM   27  C   UNL     1      -6.340   6.151 -30.051  1.00  0.00     0.030 A 
BRANCH  23  28
HETATM   28  C   UNL     1      -2.520   6.610 -30.003  1.00  0.00     0.079 C 
BRANCH  28  29
HETATM   29  C   UNL     1      -2.112   6.459 -31.456  1.00  0.00    -0.054 A 
HETATM   30  C   UNL     1      -1.504   5.278 -31.907  1.00  0.00     0.007 A 
HETATM   31  C   UNL     1      -1.101   5.151 -33.238  1.00  0.00     0.001 A 
HETATM   32  C   UNL     1      -1.302   6.200 -34.133  1.00  0.00     0.000 A 
HETATM   33  C   UNL     1      -1.905   7.378 -33.697  1.00  0.00     0.001 A 
HETATM   34  C   UNL     1      -2.306   7.508 -32.366  1.00  0.00     0.007 A 
ENDBRANCH  28  29
ENDBRANCH  23  28
ENDBRANCH  19  22
ENDBRANCH   1  18
TORSDOF 8
ENDMDL
MODEL 9
REMARK VINA RESULT:      -8.1      1.683      2.381
REMARK  8 active torsions:
REMARK  status: ('A' for Active; 'I' for Inactive)
REMARK    1  A    between atoms: O_2  and  C_3 
REMARK    2  A    between atoms: C_5  and  O_6 
REMARK    3  A    between atoms: C_8  and  C_9 
REMARK    4  A    between atoms: N_10  and  C_12 
REMARK    5  A    between atoms: C_12  and  C_13 
REMARK       I    between atoms: C_13  and  N_14 
REMARK    6  A    between atoms: N_14  and  C_15 
REMARK    7  A    between atoms: C_16  and  C_17 
REMARK    8  A    between atoms: C_17  and  C_18 
ROOT
HETATM    1  C   UNL     1      -3.907   2.878 -31.190  1.00  0.00     0.338 C 
ENDROOT
BRANCH   1   2
HETATM    2  N   UNL     1      -5.242   2.349 -31.706  1.00  0.00    -0.054 N 
HETATM    3  C   UNL     1      -5.274   2.117 -33.233  1.00  0.00     0.224 C 
HETATM    4  C   UNL     1      -6.170   3.256 -33.727  1.00  0.00     0.040 C 
HETATM    5  C   UNL     1      -7.207   3.397 -32.633  1.00  0.00     0.030 C 
HETATM    6  C   UNL     1      -6.394   3.273 -31.363  1.00  0.00     0.236 C 
HETATM    7  H   UNL     1      -5.380   1.440 -31.263  1.00  0.00     0.281 HD
BRANCH   3   8
HETATM    8  C   UNL     1      -5.796   0.750 -33.662  1.00  0.00     0.006 A 
HETATM    9  C   UNL     1      -4.996  -0.384 -33.398  1.00  0.00     0.079 A 
HETATM   10  C   UNL     1      -5.440  -1.661 -33.755  1.00  0.00     0.074 A 
HETATM   11  C   UNL     1      -6.663  -1.842 -34.402  1.00  0.00     0.070 A 
HETATM   12  C   UNL     1      -7.437  -0.730 -34.713  1.00  0.00     0.037 A 
HETATM   13  C   UNL     1      -7.006   0.554 -34.356  1.00  0.00     0.015 A 
BRANCH   9  14
HETATM   14  O   UNL     1      -3.793  -0.130 -32.789  1.00  0.00    -0.355 OA
HETATM   15  C   UNL     1      -3.371  -1.057 -31.789  1.00  0.00     0.210 C 
ENDBRANCH   9  14
BRANCH  11  16
HETATM   16  O   UNL     1      -6.970  -3.140 -34.691  1.00  0.00    -0.356 OA
HETATM   17  C   UNL     1      -5.887  -4.040 -34.895  1.00  0.00     0.210 C 
ENDBRANCH  11  16
ENDBRANCH   3   8
ENDBRANCH   1   2
BRANCH   1  18
HETATM   18  C   UNL     1      -3.671   4.354 -31.512  1.00  0.00     0.248 C 
HETATM   19  N   UNL     1      -3.744   5.186 -30.402  1.00  0.00    -0.325 N 
HETATM   20  H   UNL     1      -3.515   4.785 -29.503  1.00  0.00     0.169 HD
HETATM   21  O   UNL     1      -3.370   4.697 -32.651  1.00  0.00    -0.271 OA
BRANCH  19  22
HETATM   22  C   UNL     1      -3.534   6.583 -30.484  1.00  0.00     0.041 A 
HETATM   23  C   UNL     1      -2.303   7.215 -30.228  1.00  0.00    -0.027 A 
HETATM   24  C   UNL     1      -2.252   8.624 -30.286  1.00  0.00     0.010 A 
HETATM   25  C   UNL     1      -3.371   9.379 -30.632  1.00  0.00     0.001 A 
HETATM   26  C   UNL     1      -4.562   8.740 -30.950  1.00  0.00     0.002 A 
HETATM   27  C   UNL     1      -4.640   7.349 -30.890  1.00  0.00     0.030 A 
BRANCH  23  28
HETATM   28  C   UNL     1      -0.983   6.486 -30.063  1.00  0.00     0.079 C 
BRANCH  28  29
HETATM   29  C   UNL     1      -0.210   6.936 -28.838  1.00  0.00    -0.054 A 
HETATM   30  C   UNL     1      -0.533   6.438 -27.568  1.00  0.00     0.007 A 
HETATM   31  C   UNL     1       0.159   6.876 -26.437  1.00  0.00     0.001 A 
HETATM   32  C   UNL     1       1.181   7.815 -26.562  1.00  0.00     0.000 A 
HETATM   33  C   UNL     1       1.512   8.317 -27.818  1.00  0.00     0.001 A 
HETATM   34  C   UNL     1       0.820   7.882 -28.950  1.00  0.00     0.007 A 
ENDBRANCH  28  29
ENDBRANCH  23  28
ENDBRANCH  19  22
ENDBRANCH   1  18
TORSDOF 8
ENDMDL
MODEL 10
REMARK VINA RESULT:      -8.0      4.305      8.015
REMARK  8 active torsions:
REMARK  status: ('A' for Active; 'I' for Inactive)
REMARK    1  A    between atoms: O_2  and  C_3 
REMARK    2  A    between atoms: C_5  and  O_6 
REMARK    3  A    between atoms: C_8  and  C_9 
REMARK    4  A    between atoms: N_10  and  C_12 
REMARK    5  A    between atoms: C_12  and  C_13 
REMARK       I    between atoms: C_13  and  N_14 
REMARK    6  A    between atoms: N_14  and  C_15 
REMARK    7  A    between atoms: C_16  and  C_17 
REMARK    8  A    between atoms: C_17  and  C_18 
ROOT
HETATM    1  C   UNL     1     -10.014   1.390 -32.996  1.00  0.00     0.338 C 
ENDROOT
BRANCH   1   2
HETATM    2  N   UNL     1     -10.911   2.074 -34.024  1.00  0.00    -0.054 N 
HETATM    3  C   UNL     1     -11.741   3.244 -33.449  1.00  0.00     0.224 C 
HETATM    4  C   UNL     1     -13.159   2.666 -33.423  1.00  0.00     0.040 C 
HETATM    5  C   UNL     1     -13.220   1.806 -34.667  1.00  0.00     0.030 C 
HETATM    6  C   UNL     1     -11.879   1.105 -34.673  1.00  0.00     0.236 C 
HETATM    7  H   UNL     1     -10.287   2.470 -34.729  1.00  0.00     0.281 HD
BRANCH   3   8
HETATM    8  C   UNL     1     -11.664   4.538 -34.251  1.00  0.00     0.006 A 
HETATM    9  C   UNL     1     -10.397   5.130 -34.445  1.00  0.00     0.079 A 
HETATM   10  C   UNL     1     -10.272   6.307 -35.190  1.00  0.00     0.074 A 
HETATM   11  C   UNL     1     -11.394   6.937 -35.731  1.00  0.00     0.070 A 
HETATM   12  C   UNL     1     -12.653   6.392 -35.506  1.00  0.00     0.037 A 
HETATM   13  C   UNL     1     -12.790   5.210 -34.766  1.00  0.00     0.015 A 
BRANCH   9  14
HETATM   14  O   UNL     1      -9.343   4.476 -33.858  1.00  0.00    -0.355 OA
HETATM   15  C   UNL     1      -8.111   5.192 -33.770  1.00  0.00     0.210 C 
ENDBRANCH   9  14
BRANCH  11  16
HETATM   16  O   UNL     1     -11.126   8.076 -36.434  1.00  0.00    -0.356 OA
HETATM   17  C   UNL     1     -12.190   8.647 -37.186  1.00  0.00     0.210 C 
ENDBRANCH  11  16
ENDBRANCH   3   8
ENDBRANCH   1   2
BRANCH   1  18
HETATM   18  C   UNL     1      -8.704   0.865 -33.584  1.00  0.00     0.248 C 
HETATM   19  N   UNL     1      -8.170  -0.209 -32.883  1.00  0.00    -0.325 N 
HETATM   20  H   UNL     1      -8.813  -0.804 -32.378  1.00  0.00     0.169 HD
HETATM   21  O   UNL     1      -8.261   1.339 -34.624  1.00  0.00    -0.271 OA
BRANCH  19  22
HETATM   22  C   UNL     1      -6.973  -0.854 -33.279  1.00  0.00     0.041 A 
HETATM   23  C   UNL     1      -5.699  -0.538 -32.771  1.00  0.00    -0.027 A 
HETATM   24  C   UNL     1      -4.582  -1.218 -33.302  1.00  0.00     0.010 A 
HETATM   25  C   UNL     1      -4.727  -2.211 -34.269  1.00  0.00     0.001 A 
HETATM   26  C   UNL     1      -5.996  -2.562 -34.711  1.00  0.00     0.002 A 
HETATM   27  C   UNL     1      -7.114  -1.897 -34.210  1.00  0.00     0.030 A 
BRANCH  23  28
HETATM   28  C   UNL     1      -5.452   0.358 -31.572  1.00  0.00     0.079 C 
BRANCH  28  29
HETATM   29  C   UNL     1      -4.770   1.662 -31.940  1.00  0.00    -0.054 A 
HETATM   30  C   UNL     1      -3.569   2.038 -31.321  1.00  0.00     0.007 A 
HETATM   31  C   UNL     1      -2.957   3.253 -31.639  1.00  0.00     0.001 A 
HETATM   32  C   UNL     1      -3.537   4.103 -32.578  1.00  0.00     0.000 A 
HETATM   33  C   UNL     1      -4.729   3.741 -33.200  1.00  0.00     0.001 A 
HETATM   34  C   UNL     1      -5.344   2.528 -32.883  1.00  0.00     0.007 A 
ENDBRANCH  28  29
ENDBRANCH  23  28
ENDBRANCH  19  22
ENDBRANCH   1  18
TORSDOF 8
ENDMDL
