MODEL 1
REMARK VINA RESULT:      -8.5      0.000      0.000
REMARK  7 active torsions:
REMARK  status: ('A' for Active; 'I' for Inactive)
REMARK       I    between atoms: C_2  and  N_3 
REMARK    1  A    between atoms: N_3  and  C_4 
REMARK    2  A    between atoms: C_6  and  N_7 
REMARK       I    between atoms: N_7  and  C_8 
REMARK       I    between atoms: C_8  and  N_9 
REMARK    3  A    between atoms: N_9  and  C_10 
REMARK    4  A    between atoms: C_10  and  C_11 
REMARK    5  A    between atoms: C_11  and  C_12 
REMARK    6  A    between atoms: N_14  and  C_16 
REMARK    7  A    between atoms: C_16  and  C_17 
ROOT
HETATM    1  N   UNL     1      -8.759   2.817 -30.580  1.00  0.00    -0.309 N 
HETATM    2  C   UNL     1      -7.499   3.238 -30.298  1.00  0.00     0.320 C 
HETATM    3  N   UNL     1      -6.681   3.514 -31.348  1.00  0.00    -0.343 N 
HETATM    4  O   UNL     1      -7.157   3.414 -29.130  1.00  0.00    -0.247 OA
HETATM    5  H   UNL     1      -9.373   2.886 -29.774  1.00  0.00     0.170 HD
HETATM    6  H   UNL     1      -7.137   3.708 -32.231  1.00  0.00     0.164 HD
ENDROOT
BRANCH   3   7
HETATM    7  C   UNL     1      -5.264   3.767 -31.218  1.00  0.00     0.125 C 
BRANCH   7   8
HETATM    8  C   UNL     1      -4.344   2.654 -31.737  1.00  0.00     0.026 C 
BRANCH   8   9
HETATM    9  C   UNL     1      -4.274   1.360 -30.899  1.00  0.00     0.014 C 
HETATM   10  C   UNL     1      -5.324   0.307 -31.253  1.00  0.00     0.240 C 
HETATM   11  N   UNL     1      -4.661  -0.616 -32.261  1.00  0.00    -0.067 N 
HETATM   12  H   UNL     1      -4.701  -1.554 -31.844  1.00  0.00     0.280 HD
HETATM   13  C   UNL     1      -3.214  -0.219 -32.369  1.00  0.00     0.235 C 
HETATM   14  C   UNL     1      -2.964   0.605 -31.119  1.00  0.00     0.034 C 
BRANCH  11  15
HETATM   15  C   UNL     1      -5.370  -0.722 -33.586  1.00  0.00     0.273 C 
BRANCH  15  16
HETATM   16  C   UNL     1      -5.560  -2.143 -34.042  1.00  0.00    -0.033 A 
HETATM   17  C   UNL     1      -4.487  -3.050 -34.011  1.00  0.00     0.009 A 
HETATM   18  C   UNL     1      -4.645  -4.353 -34.483  1.00  0.00     0.001 A 
HETATM   19  C   UNL     1      -5.876  -4.769 -34.984  1.00  0.00     0.000 A 
HETATM   20  C   UNL     1      -6.952  -3.884 -35.008  1.00  0.00     0.001 A 
HETATM   21  C   UNL     1      -6.798  -2.577 -34.541  1.00  0.00     0.009 A 
ENDBRANCH  15  16
ENDBRANCH  11  15
ENDBRANCH   8   9
ENDBRANCH   7   8
ENDBRANCH   3   7
BRANCH   1  22
HETATM   22  C   UNL     1      -9.273   2.079 -31.665  1.00  0.00     0.038 A 
HETATM   23  C   UNL     1      -9.946   2.651 -32.755  1.00  0.00     0.059 A 
HETATM   24  C   UNL     1     -10.359   1.868 -33.839  1.00  0.00     0.036 A 
HETATM   25  C   UNL     1     -10.045   0.504 -33.843  1.00  0.00     0.029 A 
HETATM   26  C   UNL     1      -9.369  -0.074 -32.771  1.00  0.00     0.004 A 
HETATM   27  C   UNL     1      -8.985   0.711 -31.687  1.00  0.00     0.029 A 
BRANCH  24  28
HETATM   28  N   UNL     1     -11.013   2.362 -34.981  1.00  0.00    -0.327 N 
HETATM   29  C   UNL     1     -12.318   2.389 -35.373  1.00  0.00     0.218 C 
HETATM   30  C   UNL     1     -13.369   1.604 -34.642  1.00  0.00     0.117 C 
HETATM   31  O   UNL     1     -12.619   3.041 -36.376  1.00  0.00    -0.274 OA
HETATM   32  H   UNL     1     -10.423   2.798 -35.683  1.00  0.00     0.169 HD
ENDBRANCH  24  28
ENDBRANCH   1  22
TORSDOF 7
ENDMDL
MODEL 2
REMARK VINA RESULT:      -8.4      4.761      8.507
REMARK  7 active torsions:
REMARK  status: ('A' for Active; 'I' for Inactive)
REMARK       I    between atoms: C_2  and  N_3 
REMARK    1  A    between atoms: N_3  and  C_4 
REMARK    2  A    between atoms: C_6  and  N_7 
REMARK       I    between atoms: N_7  and  C_8 
REMARK       I    between atoms: C_8  and  N_9 
REMARK    3  A    between atoms: N_9  and  C_10 
REMARK    4  A    between atoms: C_10  and  C_11 
REMARK    5  A    between atoms: C_11  and  C_12 
REMARK    6  A    between atoms: N_14  and  C_16 
REMARK    7  A    between atoms: C_16  and  C_17 
ROOT
HETATM    1  N   UNL     1      -1.411   5.800 -32.236  1.00  0.00    -0.309 N 
HETATM    2  C   UNL     1      -2.160   4.801 -32.771  1.00  0.00     0.320 C 
HETATM    3  N   UNL     1      -2.819   3.981 -31.910  1.00  0.00    -0.343 N 
HETATM    4  O   UNL     1      -2.269   4.701 -33.992  1.00  0.00    -0.247 OA
HETATM    5  H   UNL     1      -1.174   6.508 -32.923  1.00  0.00     0.170 HD
HETATM    6  H   UNL     1      -2.983   4.348 -30.980  1.00  0.00     0.164 HD
ENDROOT
BRANCH   3   7
HETATM    7  C   UNL     1      -3.478   2.758 -32.309  1.00  0.00     0.125 C 
BRANCH   7   8
HETATM    8  C   UNL     1      -4.017   1.894 -31.162  1.00  0.00     0.026 C 
BRANCH   8   9
HETATM    9  C   UNL     1      -5.548   1.723 -31.076  1.00  0.00     0.014 C 
HETATM   10  C   UNL     1      -6.264   1.649 -32.425  1.00  0.00     0.240 C 
HETATM   11  N   UNL     1      -6.376   0.170 -32.754  1.00  0.00    -0.067 N 
HETATM   12  H   UNL     1      -7.381  -0.012 -32.865  1.00  0.00     0.280 HD
HETATM   13  C   UNL     1      -5.895  -0.606 -31.558  1.00  0.00     0.235 C 
HETATM   14  C   UNL     1      -5.942   0.399 -30.423  1.00  0.00     0.034 C 
BRANCH  11  15
HETATM   15  C   UNL     1      -5.735  -0.241 -34.053  1.00  0.00     0.273 C 
BRANCH  15  16
HETATM   16  C   UNL     1      -5.702  -1.733 -34.249  1.00  0.00    -0.033 A 
HETATM   17  C   UNL     1      -4.494  -2.439 -34.126  1.00  0.00     0.009 A 
HETATM   18  C   UNL     1      -4.449  -3.814 -34.360  1.00  0.00     0.001 A 
HETATM   19  C   UNL     1      -5.609  -4.500 -34.710  1.00  0.00     0.000 A 
HETATM   20  C   UNL     1      -6.817  -3.813 -34.823  1.00  0.00     0.001 A 
HETATM   21  C   UNL     1      -6.866  -2.436 -34.595  1.00  0.00     0.009 A 
ENDBRANCH  15  16
ENDBRANCH  11  15
ENDBRANCH   8   9
ENDBRANCH   7   8
ENDBRANCH   3   7
BRANCH   1  22
HETATM   22  C   UNL     1      -0.710   5.886 -31.016  1.00  0.00     0.038 A 
HETATM   23  C   UNL     1      -1.026   6.789 -29.990  1.00  0.00     0.059 A 
HETATM   24  C   UNL     1      -0.337   6.765 -28.772  1.00  0.00     0.036 A 
HETATM   25  C   UNL     1       0.646   5.790 -28.573  1.00  0.00     0.029 A 
HETATM   26  C   UNL     1       0.964   4.882 -29.581  1.00  0.00     0.004 A 
HETATM   27  C   UNL     1       0.288   4.931 -30.797  1.00  0.00     0.029 A 
BRANCH  24  28
HETATM   28  N   UNL     1      -0.607   7.612 -27.682  1.00  0.00    -0.327 N 
HETATM   29  C   UNL     1       0.072   8.647 -27.112  1.00  0.00     0.218 C 
HETATM   30  C   UNL     1       1.497   8.942 -27.480  1.00  0.00     0.117 C 
HETATM   31  O   UNL     1      -0.496   9.317 -26.246  1.00  0.00    -0.274 OA
HETATM   32  H   UNL     1      -1.482   7.449 -27.194  1.00  0.00     0.169 HD
ENDBRANCH  24  28
ENDBRANCH   1  22
TORSDOF 7
ENDMDL
MODEL 3
REMARK VINA RESULT:      -8.3      3.948      7.615
REMARK  7 active torsions:
REMARK  status: ('A' for Active; 'I' for Inactive)
REMARK       I    between atoms: C_2  and  N_3 
REMARK    1  A    between atoms: N_3  and  C_4 
REMARK    2  A    between atoms: C_6  and  N_7 
REMARK       I    between atoms: N_7  and  C_8 
REMARK       I    between atoms: C_8  and  N_9 
REMARK    3  A    between atoms: N_9  and  C_10 
REMARK    4  A    between atoms: C_10  and  C_11 
REMARK    5  A    between atoms: C_11  and  C_12 
REMARK    6  A    between atoms: N_14  and  C_16 
REMARK    7  A    between atoms: C_16  and  C_17 
ROOT
HETATM    1  N   UNL     1      -2.584   3.548 -32.923  1.00  0.00    -0.309 N 
HETATM    2  C   UNL     1      -3.731   2.949 -32.512  1.00  0.00     0.320 C 
HETATM    3  N   UNL     1      -4.836   3.730 -32.382  1.00  0.00    -0.343 N 
HETATM    4  O   UNL     1      -3.757   1.733 -32.330  1.00  0.00    -0.247 OA
HETATM    5  H   UNL     1      -1.895   2.874 -33.243  1.00  0.00     0.170 HD
HETATM    6  H   UNL     1      -4.830   4.602 -32.898  1.00  0.00     0.164 HD
ENDROOT
BRANCH   3   7
HETATM    7  C   UNL     1      -6.064   3.290 -31.761  1.00  0.00     0.125 C 
BRANCH   7   8
HETATM    8  C   UNL     1      -7.110   2.699 -32.714  1.00  0.00     0.026 C 
BRANCH   8   9
HETATM    9  C   UNL     1      -7.934   1.503 -32.193  1.00  0.00     0.014 C 
HETATM   10  C   UNL     1      -8.200   0.406 -33.225  1.00  0.00     0.240 C 
HETATM   11  N   UNL     1      -7.087  -0.612 -33.041  1.00  0.00    -0.067 N 
HETATM   12  H   UNL     1      -7.558  -1.500 -32.831  1.00  0.00     0.280 HD
HETATM   13  C   UNL     1      -6.290  -0.212 -31.829  1.00  0.00     0.235 C 
HETATM   14  C   UNL     1      -7.205   0.743 -31.086  1.00  0.00     0.034 C 
BRANCH  11  15
HETATM   15  C   UNL     1      -6.253  -0.867 -34.269  1.00  0.00     0.273 C 
BRANCH  15  16
HETATM   16  C   UNL     1      -5.809  -2.299 -34.394  1.00  0.00    -0.033 A 
HETATM   17  C   UNL     1      -6.714  -3.290 -34.810  1.00  0.00     0.009 A 
HETATM   18  C   UNL     1      -6.321  -4.627 -34.875  1.00  0.00     0.001 A 
HETATM   19  C   UNL     1      -5.020  -4.989 -34.534  1.00  0.00     0.000 A 
HETATM   20  C   UNL     1      -4.109  -4.015 -34.132  1.00  0.00     0.001 A 
HETATM   21  C   UNL     1      -4.498  -2.676 -34.061  1.00  0.00     0.009 A 
ENDBRANCH  15  16
ENDBRANCH  11  15
ENDBRANCH   8   9
ENDBRANCH   7   8
ENDBRANCH   3   7
BRANCH   1  22
HETATM   22  C   UNL     1      -2.101   4.860 -32.738  1.00  0.00     0.038 A 
HETATM   23  C   UNL     1      -1.249   5.243 -31.692  1.00  0.00     0.059 A 
HETATM   24  C   UNL     1      -0.743   6.546 -31.615  1.00  0.00     0.036 A 
HETATM   25  C   UNL     1      -1.064   7.454 -32.629  1.00  0.00     0.029 A 
HETATM   26  C   UNL     1      -1.902   7.083 -33.679  1.00  0.00     0.004 A 
HETATM   27  C   UNL     1      -2.418   5.792 -33.732  1.00  0.00     0.029 A 
BRANCH  24  28
HETATM   28  N   UNL     1       0.136   7.005 -30.618  1.00  0.00    -0.327 N 
HETATM   29  C   UNL     1      -0.053   7.567 -29.392  1.00  0.00     0.218 C 
HETATM   30  C   UNL     1      -1.409   8.034 -28.947  1.00  0.00     0.117 C 
HETATM   31  O   UNL     1       0.928   7.729 -28.661  1.00  0.00    -0.274 OA
HETATM   32  H   UNL     1       1.127   6.916 -30.820  1.00  0.00     0.169 HD
ENDBRANCH  24  28
ENDBRANCH   1  22
TORSDOF 7
ENDMDL
MODEL 4
REMARK VINA RESULT:      -8.2      4.667      8.409
REMARK  7 active torsions:
REMARK  status: ('A' for Active; 'I' for Inactive)
REMARK       I    between atoms: C_2  and  N_3 
REMARK    1  A    between atoms: N_3  and  C_4 
REMARK    2  A    between atoms: C_6  and  N_7 
REMARK       I    between atoms: N_7  and  C_8 
REMARK       I    between atoms: C_8  and  N_9 
REMARK    3  A    between atoms: N_9  and  C_10 
REMARK    4  A    between atoms: C_10  and  C_11 
REMARK    5  A    between atoms: C_11  and  C_12 
REMARK    6  A    between atoms: N_14  and  C_16 
REMARK    7  A    between atoms: C_16  and  C_17 
ROOT
HETATM    1  N   UNL     1      -1.903   6.810 -32.778  1.00  0.00    -0.309 N 
HETATM    2  C   UNL     1      -2.912   6.103 -33.351  1.00  0.00     0.320 C 
HETATM    3  N   UNL     1      -3.684   5.338 -32.535  1.00  0.00    -0.343 N 
HETATM    4  O   UNL     1      -3.135   6.218 -34.555  1.00  0.00    -0.247 OA
HETATM    5  H   UNL     1      -1.553   7.539 -33.391  1.00  0.00     0.170 HD
HETATM    6  H   UNL     1      -3.681   5.588 -31.553  1.00  0.00     0.164 HD
ENDROOT
BRANCH   3   7
HETATM    7  C   UNL     1      -4.652   4.377 -33.012  1.00  0.00     0.125 C 
BRANCH   7   8
HETATM    8  C   UNL     1      -4.363   2.914 -32.650  1.00  0.00     0.026 C 
BRANCH   8   9
HETATM    9  C   UNL     1      -5.541   2.086 -32.095  1.00  0.00     0.014 C 
HETATM   10  C   UNL     1      -5.984   0.923 -32.983  1.00  0.00     0.240 C 
HETATM   11  N   UNL     1      -5.228  -0.294 -32.478  1.00  0.00    -0.067 N 
HETATM   12  H   UNL     1      -5.949  -0.978 -32.216  1.00  0.00     0.280 HD
HETATM   13  C   UNL     1      -4.494   0.105 -31.227  1.00  0.00     0.235 C 
HETATM   14  C   UNL     1      -5.182   1.384 -30.787  1.00  0.00     0.034 C 
BRANCH  11  15
HETATM   15  C   UNL     1      -4.365  -0.976 -33.507  1.00  0.00     0.273 C 
BRANCH  15  16
HETATM   16  C   UNL     1      -4.951  -2.271 -34.003  1.00  0.00    -0.033 A 
HETATM   17  C   UNL     1      -6.299  -2.339 -34.392  1.00  0.00     0.009 A 
HETATM   18  C   UNL     1      -6.859  -3.550 -34.800  1.00  0.00     0.001 A 
HETATM   19  C   UNL     1      -6.079  -4.703 -34.833  1.00  0.00     0.000 A 
HETATM   20  C   UNL     1      -4.737  -4.647 -34.461  1.00  0.00     0.001 A 
HETATM   21  C   UNL     1      -4.173  -3.439 -34.047  1.00  0.00     0.009 A 
ENDBRANCH  15  16
ENDBRANCH  11  15
ENDBRANCH   8   9
ENDBRANCH   7   8
ENDBRANCH   3   7
BRANCH   1  22
HETATM   22  C   UNL     1      -1.110   6.545 -31.643  1.00  0.00     0.038 A 
HETATM   23  C   UNL     1      -1.269   7.189 -30.407  1.00  0.00     0.059 A 
HETATM   24  C   UNL     1      -0.499   6.819 -29.298  1.00  0.00     0.036 A 
HETATM   25  C   UNL     1       0.405   5.759 -29.429  1.00  0.00     0.029 A 
HETATM   26  C   UNL     1       0.566   5.106 -30.649  1.00  0.00     0.004 A 
HETATM   27  C   UNL     1      -0.189   5.498 -31.751  1.00  0.00     0.029 A 
BRANCH  24  28
HETATM   28  N   UNL     1      -0.612   7.391 -28.018  1.00  0.00    -0.327 N 
HETATM   29  C   UNL     1       0.163   8.258 -27.310  1.00  0.00     0.218 C 
HETATM   30  C   UNL     1       1.547   8.622 -27.767  1.00  0.00     0.117 C 
HETATM   31  O   UNL     1      -0.277   8.712 -26.251  1.00  0.00    -0.274 OA
HETATM   32  H   UNL     1      -1.431   7.125 -27.479  1.00  0.00     0.169 HD
ENDBRANCH  24  28
ENDBRANCH   1  22
TORSDOF 7
ENDMDL
MODEL 5
REMARK VINA RESULT:      -8.2      4.228      7.660
REMARK  7 active torsions:
REMARK  status: ('A' for Active; 'I' for Inactive)
REMARK       I    between atoms: C_2  and  N_3 
REMARK    1  A    between atoms: N_3  and  C_4 
REMARK    2  A    between atoms: C_6  and  N_7 
REMARK       I    between atoms: N_7  and  C_8 
REMARK       I    between atoms: C_8  and  N_9 
REMARK    3  A    between atoms: N_9  and  C_10 
REMARK    4  A    between atoms: C_10  and  C_11 
REMARK    5  A    between atoms: C_11  and  C_12 
REMARK    6  A    between atoms: N_14  and  C_16 
REMARK    7  A    between atoms: C_16  and  C_17 
ROOT
HETATM    1  N   UNL     1      -6.653   0.959 -31.576  1.00  0.00    -0.309 N 
HETATM    2  C   UNL     1      -5.583   1.546 -30.978  1.00  0.00     0.320 C 
HETATM    3  N   UNL     1      -4.674   2.159 -31.781  1.00  0.00    -0.343 N 
HETATM    4  O   UNL     1      -5.498   1.562 -29.751  1.00  0.00    -0.247 OA
HETATM    5  H   UNL     1      -7.397   0.763 -30.915  1.00  0.00     0.170 HD
HETATM    6  H   UNL     1      -4.999   2.426 -32.702  1.00  0.00     0.164 HD
ENDROOT
BRANCH   3   7
HETATM    7  C   UNL     1      -3.391   2.641 -31.321  1.00  0.00     0.125 C 
BRANCH   7   8
HETATM    8  C   UNL     1      -2.758   3.747 -32.175  1.00  0.00     0.026 C 
BRANCH   8   9
HETATM    9  C   UNL     1      -3.654   4.950 -32.536  1.00  0.00     0.014 C 
HETATM   10  C   UNL     1      -3.144   6.304 -32.042  1.00  0.00     0.240 C 
HETATM   11  N   UNL     1      -2.340   6.888 -33.192  1.00  0.00    -0.067 N 
HETATM   12  H   UNL     1      -2.785   7.787 -33.411  1.00  0.00     0.280 HD
HETATM   13  C   UNL     1      -2.513   5.983 -34.382  1.00  0.00     0.235 C 
HETATM   14  C   UNL     1      -3.745   5.164 -34.046  1.00  0.00     0.034 C 
BRANCH  11  15
HETATM   15  C   UNL     1      -0.904   7.205 -32.865  1.00  0.00     0.273 C 
BRANCH  15  16
HETATM   16  C   UNL     1      -0.481   6.698 -31.512  1.00  0.00    -0.033 A 
HETATM   17  C   UNL     1      -0.719   7.464 -30.359  1.00  0.00     0.009 A 
HETATM   18  C   UNL     1      -0.281   7.023 -29.111  1.00  0.00     0.001 A 
HETATM   19  C   UNL     1       0.393   5.809 -28.998  1.00  0.00     0.000 A 
HETATM   20  C   UNL     1       0.624   5.033 -30.132  1.00  0.00     0.001 A 
HETATM   21  C   UNL     1       0.192   5.473 -31.384  1.00  0.00     0.009 A 
ENDBRANCH  15  16
ENDBRANCH  11  15
ENDBRANCH   8   9
ENDBRANCH   7   8
ENDBRANCH   3   7
BRANCH   1  22
HETATM   22  C   UNL     1      -6.795   0.354 -32.841  1.00  0.00     0.038 A 
HETATM   23  C   UNL     1      -6.661  -1.023 -33.073  1.00  0.00     0.059 A 
HETATM   24  C   UNL     1      -6.895  -1.566 -34.341  1.00  0.00     0.036 A 
HETATM   25  C   UNL     1      -7.314  -0.716 -35.371  1.00  0.00     0.029 A 
HETATM   26  C   UNL     1      -7.460   0.652 -35.151  1.00  0.00     0.004 A 
HETATM   27  C   UNL     1      -7.201   1.184 -33.891  1.00  0.00     0.029 A 
BRANCH  24  28
HETATM   28  N   UNL     1      -6.811  -2.934 -34.654  1.00  0.00    -0.327 N 
HETATM   29  C   UNL     1      -5.776  -3.819 -34.707  1.00  0.00     0.218 C 
HETATM   30  C   UNL     1      -4.349  -3.358 -34.631  1.00  0.00     0.117 C 
HETATM   31  O   UNL     1      -6.032  -5.016 -34.864  1.00  0.00    -0.274 OA
HETATM   32  H   UNL     1      -7.683  -3.393 -34.897  1.00  0.00     0.169 HD
ENDBRANCH  24  28
ENDBRANCH   1  22
TORSDOF 7
ENDMDL
MODEL 6
REMARK VINA RESULT:      -8.2      4.680      8.416
REMARK  7 active torsions:
REMARK  status: ('A' for Active; 'I' for Inactive)
REMARK       I    between atoms: C_2  and  N_3 
REMARK    1  A    between atoms: N_3  and  C_4 
REMARK    2  A    between atoms: C_6  and  N_7 
REMARK       I    between atoms: N_7  and  C_8 
REMARK       I    between atoms: C_8  and  N_9 
REMARK    3  A    between atoms: N_9  and  C_10 
REMARK    4  A    between atoms: C_10  and  C_11 
REMARK    5  A    between atoms: C_11  and  C_12 
REMARK    6  A    between atoms: N_14  and  C_16 
REMARK    7  A    between atoms: C_16  and  C_17 
ROOT
HETATM    1  N   UNL     1      -1.410   6.702 -33.366  1.00  0.00    -0.309 N 
HETATM    2  C   UNL     1      -2.161   5.894 -34.159  1.00  0.00     0.320 C 
HETATM    3  N   UNL     1      -3.511   5.948 -34.010  1.00  0.00    -0.343 N 
HETATM    4  O   UNL     1      -1.618   5.196 -35.014  1.00  0.00    -0.247 OA
HETATM    5  H   UNL     1      -0.460   6.797 -33.710  1.00  0.00     0.170 HD
HETATM    6  H   UNL     1      -3.880   6.787 -33.581  1.00  0.00     0.164 HD
ENDROOT
BRANCH   3   7
HETATM    7  C   UNL     1      -4.426   5.012 -34.623  1.00  0.00     0.125 C 
BRANCH   7   8
HETATM    8  C   UNL     1      -4.960   3.910 -33.699  1.00  0.00     0.026 C 
BRANCH   8   9
HETATM    9  C   UNL     1      -6.389   3.398 -33.977  1.00  0.00     0.014 C 
HETATM   10  C   UNL     1      -6.495   1.893 -34.227  1.00  0.00     0.240 C 
HETATM   11  N   UNL     1      -6.813   1.271 -32.877  1.00  0.00    -0.067 N 
HETATM   12  H   UNL     1      -7.699   0.769 -33.007  1.00  0.00     0.280 HD
HETATM   13  C   UNL     1      -7.052   2.389 -31.899  1.00  0.00     0.235 C 
HETATM   14  C   UNL     1      -7.313   3.598 -32.777  1.00  0.00     0.034 C 
BRANCH  11  15
HETATM   15  C   UNL     1      -5.819   0.242 -32.405  1.00  0.00     0.273 C 
BRANCH  15  16
HETATM   16  C   UNL     1      -5.754  -0.968 -33.298  1.00  0.00    -0.033 A 
HETATM   17  C   UNL     1      -6.931  -1.543 -33.804  1.00  0.00     0.009 A 
HETATM   18  C   UNL     1      -6.878  -2.696 -34.588  1.00  0.00     0.001 A 
HETATM   19  C   UNL     1      -5.650  -3.283 -34.881  1.00  0.00     0.000 A 
HETATM   20  C   UNL     1      -4.473  -2.716 -34.396  1.00  0.00     0.001 A 
HETATM   21  C   UNL     1      -4.522  -1.565 -33.607  1.00  0.00     0.009 A 
ENDBRANCH  15  16
ENDBRANCH  11  15
ENDBRANCH   8   9
ENDBRANCH   7   8
ENDBRANCH   3   7
BRANCH   1  22
HETATM   22  C   UNL     1      -1.629   7.189 -32.061  1.00  0.00     0.038 A 
HETATM   23  C   UNL     1      -1.368   6.454 -30.895  1.00  0.00     0.059 A 
HETATM   24  C   UNL     1      -1.533   7.030 -29.630  1.00  0.00     0.036 A 
HETATM   25  C   UNL     1      -1.919   8.372 -29.545  1.00  0.00     0.029 A 
HETATM   26  C   UNL     1      -2.172   9.115 -30.696  1.00  0.00     0.004 A 
HETATM   27  C   UNL     1      -2.028   8.525 -31.948  1.00  0.00     0.029 A 
BRANCH  24  28
HETATM   28  N   UNL     1      -1.268   6.377 -28.412  1.00  0.00    -0.327 N 
HETATM   29  C   UNL     1      -0.274   6.491 -27.488  1.00  0.00     0.218 C 
HETATM   30  C   UNL     1       0.965   7.292 -27.768  1.00  0.00     0.117 C 
HETATM   31  O   UNL     1      -0.390   5.883 -26.421  1.00  0.00    -0.274 OA
HETATM   32  H   UNL     1      -1.935   5.665 -28.131  1.00  0.00     0.169 HD
ENDBRANCH  24  28
ENDBRANCH   1  22
TORSDOF 7
ENDMDL
MODEL 7
REMARK VINA RESULT:      -8.1      2.698      6.354
REMARK  7 active torsions:
REMARK  status: ('A' for Active; 'I' for Inactive)
REMARK       I    between atoms: C_2  and  N_3 
REMARK    1  A    between atoms: N_3  and  C_4 
REMARK    2  A    between atoms: C_6  and  N_7 
REMARK       I    between atoms: N_7  and  C_8 
REMARK       I    between atoms: C_8  and  N_9 
REMARK    3  A    between atoms: N_9  and  C_10 
REMARK    4  A    between atoms: C_10  and  C_11 
REMARK    5  A    between atoms: C_11  and  C_12 
REMARK    6  A    between atoms: N_14  and  C_16 
REMARK    7  A    between atoms: C_16  and  C_17 
ROOT
HETATM    1  N   UNL     1      -6.365   4.103 -30.359  1.00  0.00    -0.309 N 
HETATM    2  C   UNL     1      -7.685   4.266 -30.638  1.00  0.00     0.320 C 
HETATM    3  N   UNL     1      -8.130   3.825 -31.845  1.00  0.00    -0.343 N 
HETATM    4  O   UNL     1      -8.437   4.740 -29.789  1.00  0.00    -0.247 OA
HETATM    5  H   UNL     1      -6.169   4.209 -29.369  1.00  0.00     0.170 HD
HETATM    6  H   UNL     1      -7.556   3.130 -32.306  1.00  0.00     0.164 HD
ENDROOT
BRANCH   3   7
HETATM    7  C   UNL     1      -9.446   4.112 -32.369  1.00  0.00     0.125 C 
BRANCH   7   8
HETATM    8  C   UNL     1     -10.428   2.933 -32.366  1.00  0.00     0.026 C 
BRANCH   8   9
HETATM    9  C   UNL     1     -10.481   2.065 -33.641  1.00  0.00     0.014 C 
HETATM   10  C   UNL     1      -9.117   1.647 -34.192  1.00  0.00     0.240 C 
HETATM   11  N   UNL     1      -8.828   0.283 -33.587  1.00  0.00    -0.067 N 
HETATM   12  H   UNL     1      -8.697  -0.350 -34.385  1.00  0.00     0.280 HD
HETATM   13  C   UNL     1     -10.056  -0.161 -32.840  1.00  0.00     0.235 C 
HETATM   14  C   UNL     1     -11.162   0.720 -33.391  1.00  0.00     0.034 C 
BRANCH  11  15
HETATM   15  C   UNL     1      -7.556   0.204 -32.783  1.00  0.00     0.273 C 
BRANCH  15  16
HETATM   16  C   UNL     1      -6.556  -0.765 -33.356  1.00  0.00    -0.033 A 
HETATM   17  C   UNL     1      -6.964  -1.750 -34.271  1.00  0.00     0.009 A 
HETATM   18  C   UNL     1      -6.051  -2.683 -34.762  1.00  0.00     0.001 A 
HETATM   19  C   UNL     1      -4.720  -2.639 -34.353  1.00  0.00     0.000 A 
HETATM   20  C   UNL     1      -4.300  -1.659 -33.455  1.00  0.00     0.001 A 
HETATM   21  C   UNL     1      -5.211  -0.726 -32.956  1.00  0.00     0.009 A 
ENDBRANCH  15  16
ENDBRANCH  11  15
ENDBRANCH   8   9
ENDBRANCH   7   8
ENDBRANCH   3   7
BRANCH   1  22
HETATM   22  C   UNL     1      -5.233   4.084 -31.199  1.00  0.00     0.038 A 
HETATM   23  C   UNL     1      -4.768   5.196 -31.916  1.00  0.00     0.059 A 
HETATM   24  C   UNL     1      -3.589   5.128 -32.667  1.00  0.00     0.036 A 
HETATM   25  C   UNL     1      -2.850   3.940 -32.655  1.00  0.00     0.029 A 
HETATM   26  C   UNL     1      -3.296   2.831 -31.939  1.00  0.00     0.004 A 
HETATM   27  C   UNL     1      -4.483   2.903 -31.215  1.00  0.00     0.029 A 
BRANCH  24  28
HETATM   28  N   UNL     1      -3.038   6.200 -33.391  1.00  0.00    -0.327 N 
HETATM   29  C   UNL     1      -1.925   6.968 -33.222  1.00  0.00     0.218 C 
HETATM   30  C   UNL     1      -1.125   6.914 -31.953  1.00  0.00     0.117 C 
HETATM   31  O   UNL     1      -1.607   7.750 -34.122  1.00  0.00    -0.274 OA
HETATM   32  H   UNL     1      -3.548   6.491 -34.220  1.00  0.00     0.169 HD
ENDBRANCH  24  28
ENDBRANCH   1  22
TORSDOF 7
ENDMDL
MODEL 8
REMARK VINA RESULT:      -8.0      4.238      7.452
REMARK  7 active torsions:
REMARK  status: ('A' for Active; 'I' for Inactive)
REMARK       I    between atoms: C_2  and  N_3 
REMARK    1  A    between atoms: N_3  and  C_4 
REMARK    2  A    between atoms: C_6  and  N_7 
REMARK       I    between atoms: N_7  and  C_8 
REMARK       I    between atoms: C_8  and  N_9 
REMARK    3  A    between atoms: N_9  and  C_10 
REMARK    4  A    between atoms: C_10  and  C_11 
REMARK    5  A    between atoms: C_11  and  C_12 
REMARK    6  A    between atoms: N_14  and  C_16 
REMARK    7  A    between atoms: C_16  and  C_17 
ROOT
HETATM    1  N   UNL     1      -3.201   7.004 -27.539  1.00  0.00    -0.309 N 
HETATM    2  C   UNL     1      -4.494   6.600 -27.641  1.00  0.00     0.320 C 
HETATM    3  N   UNL     1      -4.768   5.584 -28.501  1.00  0.00    -0.343 N 
HETATM    4  O   UNL     1      -5.354   7.109 -26.924  1.00  0.00    -0.247 OA
HETATM    5  H   UNL     1      -3.041   7.566 -26.709  1.00  0.00     0.170 HD
HETATM    6  H   UNL     1      -3.988   4.988 -28.752  1.00  0.00     0.164 HD
ENDROOT
BRANCH   3   7
HETATM    7  C   UNL     1      -6.106   5.185 -28.874  1.00  0.00     0.125 C 
BRANCH   7   8
HETATM    8  C   UNL     1      -6.193   4.096 -29.950  1.00  0.00     0.026 C 
BRANCH   8   9
HETATM    9  C   UNL     1      -4.893   3.758 -30.710  1.00  0.00     0.014 C 
HETATM   10  C   UNL     1      -4.561   2.267 -30.785  1.00  0.00     0.240 C 
HETATM   11  N   UNL     1      -5.149   1.779 -32.098  1.00  0.00    -0.067 N 
HETATM   12  H   UNL     1      -4.358   1.389 -32.627  1.00  0.00     0.280 HD
HETATM   13  C   UNL     1      -5.662   2.978 -32.849  1.00  0.00     0.235 C 
HETATM   14  C   UNL     1      -4.970   4.153 -32.184  1.00  0.00     0.034 C 
BRANCH  11  15
HETATM   15  C   UNL     1      -6.149   0.660 -31.967  1.00  0.00     0.273 C 
BRANCH  15  16
HETATM   16  C   UNL     1      -5.913  -0.460 -32.944  1.00  0.00    -0.033 A 
HETATM   17  C   UNL     1      -6.967  -0.951 -33.732  1.00  0.00     0.009 A 
HETATM   18  C   UNL     1      -6.765  -2.026 -34.598  1.00  0.00     0.001 A 
HETATM   19  C   UNL     1      -5.508  -2.616 -34.695  1.00  0.00     0.000 A 
HETATM   20  C   UNL     1      -4.450  -2.131 -33.929  1.00  0.00     0.001 A 
HETATM   21  C   UNL     1      -4.648  -1.059 -33.056  1.00  0.00     0.009 A 
ENDBRANCH  15  16
ENDBRANCH  11  15
ENDBRANCH   8   9
ENDBRANCH   7   8
ENDBRANCH   3   7
BRANCH   1  22
HETATM   22  C   UNL     1      -2.151   7.010 -28.480  1.00  0.00     0.038 A 
HETATM   23  C   UNL     1      -2.312   7.343 -29.834  1.00  0.00     0.059 A 
HETATM   24  C   UNL     1      -1.211   7.407 -30.695  1.00  0.00     0.036 A 
HETATM   25  C   UNL     1       0.067   7.180 -30.174  1.00  0.00     0.029 A 
HETATM   26  C   UNL     1       0.241   6.858 -28.830  1.00  0.00     0.004 A 
HETATM   27  C   UNL     1      -0.864   6.773 -27.987  1.00  0.00     0.029 A 
BRANCH  24  28
HETATM   28  N   UNL     1      -1.279   7.758 -32.056  1.00  0.00    -0.327 N 
HETATM   29  C   UNL     1      -1.518   7.048 -33.193  1.00  0.00     0.218 C 
HETATM   30  C   UNL     1      -1.542   5.546 -33.186  1.00  0.00     0.117 C 
HETATM   31  O   UNL     1      -1.672   7.664 -34.251  1.00  0.00    -0.274 OA
HETATM   32  H   UNL     1      -1.122   8.737 -32.274  1.00  0.00     0.169 HD
ENDBRANCH  24  28
ENDBRANCH   1  22
TORSDOF 7
ENDMDL
MODEL 9
REMARK VINA RESULT:      -8.0      3.767      7.079
REMARK  7 active torsions:
REMARK  status: ('A' for Active; 'I' for Inactive)
REMARK       I    between atoms: C_2  and  N_3 
REMARK    1  A    between atoms: N_3  and  C_4 
REMARK    2  A    between atoms: C_6  and  N_7 
REMARK       I    between atoms: N_7  and  C_8 
REMARK       I    between atoms: C_8  and  N_9 
REMARK    3  A    between atoms: N_9  and  C_10 
REMARK    4  A    between atoms: C_10  and  C_11 
REMARK    5  A    between atoms: C_11  and  C_12 
REMARK    6  A    between atoms: N_14  and  C_16 
REMARK    7  A    between atoms: C_16  and  C_17 
ROOT
HETATM    1  N   UNL     1      -4.590  -0.273 -31.530  1.00  0.00    -0.309 N 
HETATM    2  C   UNL     1      -3.647   0.705 -31.538  1.00  0.00     0.320 C 
HETATM    3  N   UNL     1      -3.974   1.887 -32.125  1.00  0.00    -0.343 N 
HETATM    4  O   UNL     1      -2.569   0.523 -30.975  1.00  0.00    -0.247 OA
HETATM    5  H   UNL     1      -4.373  -1.005 -30.862  1.00  0.00     0.170 HD
HETATM    6  H   UNL     1      -4.964   2.082 -32.216  1.00  0.00     0.164 HD
ENDROOT
BRANCH   3   7
HETATM    7  C   UNL     1      -3.022   2.940 -32.397  1.00  0.00     0.125 C 
BRANCH   7   8
HETATM    8  C   UNL     1      -3.308   4.281 -31.711  1.00  0.00     0.026 C 
BRANCH   8   9
HETATM    9  C   UNL     1      -4.024   5.358 -32.553  1.00  0.00     0.014 C 
HETATM   10  C   UNL     1      -3.401   6.752 -32.480  1.00  0.00     0.240 C 
HETATM   11  N   UNL     1      -2.443   6.839 -33.656  1.00  0.00    -0.067 N 
HETATM   12  H   UNL     1      -2.760   7.643 -34.211  1.00  0.00     0.280 HD
HETATM   13  C   UNL     1      -2.623   5.600 -34.490  1.00  0.00     0.235 C 
HETATM   14  C   UNL     1      -3.966   5.049 -34.048  1.00  0.00     0.034 C 
BRANCH  11  15
HETATM   15  C   UNL     1      -1.012   7.129 -33.287  1.00  0.00     0.273 C 
BRANCH  15  16
HETATM   16  C   UNL     1      -0.663   6.696 -31.889  1.00  0.00    -0.033 A 
HETATM   17  C   UNL     1      -0.872   7.563 -30.803  1.00  0.00     0.009 A 
HETATM   18  C   UNL     1      -0.499   7.185 -29.513  1.00  0.00     0.001 A 
HETATM   19  C   UNL     1       0.077   5.938 -29.290  1.00  0.00     0.000 A 
HETATM   20  C   UNL     1       0.279   5.063 -30.356  1.00  0.00     0.001 A 
HETATM   21  C   UNL     1      -0.088   5.438 -31.651  1.00  0.00     0.009 A 
ENDBRANCH  15  16
ENDBRANCH  11  15
ENDBRANCH   8   9
ENDBRANCH   7   8
ENDBRANCH   3   7
BRANCH   1  22
HETATM   22  C   UNL     1      -5.627  -0.573 -32.437  1.00  0.00     0.038 A 
HETATM   23  C   UNL     1      -6.960  -0.170 -32.267  1.00  0.00     0.059 A 
HETATM   24  C   UNL     1      -7.922  -0.434 -33.248  1.00  0.00     0.036 A 
HETATM   25  C   UNL     1      -7.524  -1.067 -34.430  1.00  0.00     0.029 A 
HETATM   26  C   UNL     1      -6.201  -1.464 -34.615  1.00  0.00     0.004 A 
HETATM   27  C   UNL     1      -5.258  -1.218 -33.622  1.00  0.00     0.029 A 
BRANCH  24  28
HETATM   28  N   UNL     1      -9.271  -0.042 -33.172  1.00  0.00    -0.327 N 
HETATM   29  C   UNL     1      -9.958   1.038 -33.639  1.00  0.00     0.218 C 
HETATM   30  C   UNL     1      -9.246   2.235 -34.199  1.00  0.00     0.117 C 
HETATM   31  O   UNL     1     -11.189   1.035 -33.551  1.00  0.00    -0.274 OA
HETATM   32  H   UNL     1      -9.893  -0.670 -32.673  1.00  0.00     0.169 HD
ENDBRANCH  24  28
ENDBRANCH   1  22
TORSDOF 7
ENDMDL
MODEL 10
REMARK VINA RESULT:      -7.9      4.027      7.856
REMARK  7 active torsions:
REMARK  status: ('A' for Active; 'I' for Inactive)
REMARK       I    between atoms: C_2  and  N_3 
REMARK    1  A    between atoms: N_3  and  C_4 
REMARK    2  A    between atoms: C_6  and  N_7 
REMARK       I    between atoms: N_7  and  C_8 
REMARK       I    between atoms: C_8  and  N_9 
REMARK    3  A    between atoms: N_9  and  C_10 
REMARK    4  A    between atoms: C_10  and  C_11 
REMARK    5  A    between atoms: C_11  and  C_12 
REMARK    6  A    between atoms: N_14  and  C_16 
REMARK    7  A    between atoms: C_16  and  C_17 
ROOT
HETATM    1  N   UNL     1      -7.908   2.387 -32.568  1.00  0.00    -0.309 N 
HETATM    2  C   UNL     1      -7.512   3.680 -32.443  1.00  0.00     0.320 C 
HETATM    3  N   UNL     1      -6.873   4.246 -33.501  1.00  0.00    -0.343 N 
HETATM    4  O   UNL     1      -7.788   4.311 -31.424  1.00  0.00    -0.247 OA
HETATM    5  H   UNL     1      -8.591   2.128 -31.863  1.00  0.00     0.170 HD
HETATM    6  H   UNL     1      -7.021   3.805 -34.400  1.00  0.00     0.164 HD
ENDROOT
BRANCH   3   7
HETATM    7  C   UNL     1      -6.211   5.530 -33.448  1.00  0.00     0.125 C 
BRANCH   7   8
HETATM    8  C   UNL     1      -4.748   5.500 -32.988  1.00  0.00     0.026 C 
BRANCH   8   9
HETATM    9  C   UNL     1      -3.786   4.589 -33.779  1.00  0.00     0.014 C 
HETATM   10  C   UNL     1      -2.762   5.330 -34.641  1.00  0.00     0.240 C 
HETATM   11  N   UNL     1      -1.517   5.463 -33.780  1.00  0.00    -0.067 N 
HETATM   12  H   UNL     1      -0.766   5.002 -34.309  1.00  0.00     0.280 HD
HETATM   13  C   UNL     1      -1.743   4.677 -32.517  1.00  0.00     0.235 C 
HETATM   14  C   UNL     1      -2.898   3.755 -32.857  1.00  0.00     0.034 C 
BRANCH  11  15
HETATM   15  C   UNL     1      -1.053   6.877 -33.551  1.00  0.00     0.273 C 
BRANCH  15  16
HETATM   16  C   UNL     1      -0.878   7.212 -32.094  1.00  0.00    -0.033 A 
HETATM   17  C   UNL     1       0.276   6.803 -31.404  1.00  0.00     0.009 A 
HETATM   18  C   UNL     1       0.417   7.064 -30.041  1.00  0.00     0.001 A 
HETATM   19  C   UNL     1      -0.587   7.742 -29.353  1.00  0.00     0.000 A 
HETATM   20  C   UNL     1      -1.730   8.164 -30.028  1.00  0.00     0.001 A 
HETATM   21  C   UNL     1      -1.879   7.901 -31.392  1.00  0.00     0.009 A 
ENDBRANCH  15  16
ENDBRANCH  11  15
ENDBRANCH   8   9
ENDBRANCH   7   8
ENDBRANCH   3   7
BRANCH   1  22
HETATM   22  C   UNL     1      -7.361   1.313 -33.299  1.00  0.00     0.038 A 
HETATM   23  C   UNL     1      -6.412   0.416 -32.786  1.00  0.00     0.059 A 
HETATM   24  C   UNL     1      -5.972  -0.676 -33.542  1.00  0.00     0.036 A 
HETATM   25  C   UNL     1      -6.530  -0.890 -34.807  1.00  0.00     0.029 A 
HETATM   26  C   UNL     1      -7.480  -0.012 -35.323  1.00  0.00     0.004 A 
HETATM   27  C   UNL     1      -7.893   1.085 -34.572  1.00  0.00     0.029 A 
BRANCH  24  28
HETATM   28  N   UNL     1      -5.047  -1.637 -33.096  1.00  0.00    -0.327 N 
HETATM   29  C   UNL     1      -3.783  -1.555 -32.592  1.00  0.00     0.218 C 
HETATM   30  C   UNL     1      -3.006  -0.271 -32.639  1.00  0.00     0.117 C 
HETATM   31  O   UNL     1      -3.265  -2.576 -32.132  1.00  0.00    -0.274 OA
HETATM   32  H   UNL     1      -5.348  -2.606 -33.144  1.00  0.00     0.169 HD
ENDBRANCH  24  28
ENDBRANCH   1  22
TORSDOF 7
ENDMDL
