MODEL 1
REMARK VINA RESULT:      -8.7      0.000      0.000
REMARK  5 active torsions:
REMARK  status: ('A' for Active; 'I' for Inactive)
REMARK    1  A    between atoms: C_8  and  C_9 
REMARK    2  A    between atoms: C_9  and  N_10 
REMARK       I    between atoms: N_10  and  C_11 
REMARK       I    between atoms: C_11  and  N_12 
REMARK    3  A    between atoms: C_13  and  C_14 
REMARK    4  A    between atoms: C_14  and  C_15 
REMARK    5  A    between atoms: C_15  and  C_16 
ROOT
HETATM    1  N   UNL     1      -9.934   1.267 -33.560  1.00  0.00    -0.339 N 
HETATM    2  C   UNL     1      -8.993   2.092 -33.012  1.00  0.00     0.318 C 
HETATM    3  N   UNL     1      -8.183   1.431 -32.082  1.00  0.00    -0.330 N 
HETATM    4  C   UNL     1      -7.267   0.319 -32.475  1.00  0.00     0.089 C 
HETATM    5  C   UNL     1      -5.900   0.906 -32.893  1.00  0.00     0.025 C 
HETATM    6  C   UNL     1      -5.317   1.818 -31.812  1.00  0.00     0.004 C 
HETATM    7  C   UNL     1      -6.308   2.905 -31.416  1.00  0.00     0.020 C 
HETATM    8  C   UNL     1      -7.646   2.285 -31.026  1.00  0.00     0.128 C 
HETATM    9  O   UNL     1      -8.946   3.296 -33.231  1.00  0.00    -0.247 OA
HETATM   10  H   UNL     1     -10.171   0.479 -32.976  1.00  0.00     0.164 HD
ENDROOT
BRANCH   4  11
HETATM   11  C   UNL     1      -7.812  -0.652 -33.544  1.00  0.00     0.030 C 
BRANCH  11  12
HETATM   12  C   UNL     1      -6.870  -0.909 -34.725  1.00  0.00     0.040 C 
BRANCH  12  13
HETATM   13  C   UNL     1      -6.213  -2.264 -34.591  1.00  0.00    -0.058 A 
HETATM   14  C   UNL     1      -4.857  -2.358 -34.242  1.00  0.00     0.007 A 
HETATM   15  C   UNL     1      -4.233  -3.603 -34.162  1.00  0.00     0.001 A 
HETATM   16  C   UNL     1      -4.953  -4.764 -34.436  1.00  0.00     0.000 A 
HETATM   17  C   UNL     1      -6.299  -4.681 -34.790  1.00  0.00     0.001 A 
HETATM   18  C   UNL     1      -6.928  -3.436 -34.868  1.00  0.00     0.007 A 
ENDBRANCH  12  13
ENDBRANCH  11  12
ENDBRANCH   4  11
BRANCH   1  19
HETATM   19  C   UNL     1     -10.955   1.738 -34.463  1.00  0.00     0.167 C 
BRANCH  19  20
HETATM   20  C   UNL     1     -12.205   1.914 -33.674  1.00  0.00     0.009 A 
HETATM   21  C   UNL     1     -13.152   0.954 -33.360  1.00  0.00     0.034 A 
HETATM   22  C   UNL     1     -13.223  -0.492 -33.676  1.00  0.00     0.070 C 
HETATM   23  N   UNL     1     -14.121   1.600 -32.648  1.00  0.00    -0.282 N 
HETATM   24  H   UNL     1     -14.970   1.213 -32.251  1.00  0.00     0.189 HD
HETATM   25  N   UNL     1     -13.889   2.911 -32.490  1.00  0.00    -0.179 NA
HETATM   26  C   UNL     1     -12.722   3.115 -33.111  1.00  0.00     0.060 A 
HETATM   27  C   UNL     1     -12.135   4.478 -33.169  1.00  0.00     0.073 C 
ENDBRANCH  19  20
ENDBRANCH   1  19
TORSDOF 5
ENDMDL
MODEL 2
REMARK VINA RESULT:      -8.7      2.183      5.964
REMARK  5 active torsions:
REMARK  status: ('A' for Active; 'I' for Inactive)
REMARK    1  A    between atoms: C_8  and  C_9 
REMARK    2  A    between atoms: C_9  and  N_10 
REMARK       I    between atoms: N_10  and  C_11 
REMARK       I    between atoms: C_11  and  N_12 
REMARK    3  A    between atoms: C_13  and  C_14 
REMARK    4  A    between atoms: C_14  and  C_15 
REMARK    5  A    between atoms: C_15  and  C_16 
ROOT
HETATM    1  N   UNL     1      -6.774   1.842 -31.510  1.00  0.00    -0.339 N 
HETATM    2  C   UNL     1      -8.078   2.215 -31.663  1.00  0.00     0.318 C 
HETATM    3  N   UNL     1      -8.556   1.961 -32.953  1.00  0.00    -0.330 N 
HETATM    4  C   UNL     1      -8.682   0.575 -33.494  1.00  0.00     0.089 C 
HETATM    5  C   UNL     1     -10.071   0.005 -33.123  1.00  0.00     0.025 C 
HETATM    6  C   UNL     1     -11.204   0.934 -33.565  1.00  0.00     0.004 C 
HETATM    7  C   UNL     1     -11.001   2.344 -33.025  1.00  0.00     0.020 C 
HETATM    8  C   UNL     1      -9.616   2.862 -33.399  1.00  0.00     0.128 C 
HETATM    9  O   UNL     1      -8.713   2.810 -30.799  1.00  0.00    -0.247 OA
HETATM   10  H   UNL     1      -6.254   1.822 -32.374  1.00  0.00     0.164 HD
ENDROOT
BRANCH   4  11
HETATM   11  C   UNL     1      -7.552  -0.401 -33.105  1.00  0.00     0.030 C 
BRANCH  11  12
HETATM   12  C   UNL     1      -6.410  -0.508 -34.121  1.00  0.00     0.040 C 
BRANCH  12  13
HETATM   13  C   UNL     1      -6.019  -1.953 -34.327  1.00  0.00    -0.058 A 
HETATM   14  C   UNL     1      -6.993  -2.906 -34.664  1.00  0.00     0.007 A 
HETATM   15  C   UNL     1      -6.647  -4.249 -34.811  1.00  0.00     0.001 A 
HETATM   16  C   UNL     1      -5.329  -4.656 -34.615  1.00  0.00     0.000 A 
HETATM   17  C   UNL     1      -4.355  -3.719 -34.273  1.00  0.00     0.001 A 
HETATM   18  C   UNL     1      -4.697  -2.373 -34.129  1.00  0.00     0.007 A 
ENDBRANCH  12  13
ENDBRANCH  11  12
ENDBRANCH   4  11
BRANCH   1  19
HETATM   19  C   UNL     1      -6.023   2.100 -30.305  1.00  0.00     0.167 C 
BRANCH  19  20
HETATM   20  C   UNL     1      -4.759   2.778 -30.702  1.00  0.00     0.009 A 
HETATM   21  C   UNL     1      -4.497   4.138 -30.724  1.00  0.00     0.034 A 
HETATM   22  C   UNL     1      -5.338   5.303 -30.367  1.00  0.00     0.070 C 
HETATM   23  N   UNL     1      -3.217   4.266 -31.181  1.00  0.00    -0.282 N 
HETATM   24  H   UNL     1      -2.687   5.118 -31.327  1.00  0.00     0.189 HD
HETATM   25  N   UNL     1      -2.631   3.098 -31.477  1.00  0.00    -0.179 NA
HETATM   26  C   UNL     1      -3.561   2.181 -31.187  1.00  0.00     0.060 A 
HETATM   27  C   UNL     1      -3.283   0.739 -31.407  1.00  0.00     0.073 C 
ENDBRANCH  19  20
ENDBRANCH   1  19
TORSDOF 5
ENDMDL
MODEL 3
REMARK VINA RESULT:      -8.6      1.894      5.521
REMARK  5 active torsions:
REMARK  status: ('A' for Active; 'I' for Inactive)
REMARK    1  A    between atoms: C_8  and  C_9 
REMARK    2  A    between atoms: C_9  and  N_10 
REMARK       I    between atoms: N_10  and  C_11 
REMARK       I    between atoms: C_11  and  N_12 
REMARK    3  A    between atoms: C_13  and  C_14 
REMARK    4  A    between atoms: C_14  and  C_15 
REMARK    5  A    between atoms: C_15  and  C_16 
ROOT
HETATM    1  N   UNL     1      -7.067   2.431 -32.544  1.00  0.00    -0.339 N 
HETATM    2  C   UNL     1      -8.402   2.718 -32.536  1.00  0.00     0.318 C 
HETATM    3  N   UNL     1      -9.061   2.209 -33.660  1.00  0.00    -0.330 N 
HETATM    4  C   UNL     1      -9.176   0.743 -33.918  1.00  0.00     0.089 C 
HETATM    5  C   UNL     1     -10.443   0.198 -33.221  1.00  0.00     0.025 C 
HETATM    6  C   UNL     1     -11.694   0.983 -33.621  1.00  0.00     0.004 C 
HETATM    7  C   UNL     1     -11.507   2.476 -33.381  1.00  0.00     0.020 C 
HETATM    8  C   UNL     1     -10.240   2.969 -34.071  1.00  0.00     0.128 C 
HETATM    9  O   UNL     1      -8.929   3.437 -31.696  1.00  0.00    -0.247 OA
HETATM   10  H   UNL     1      -6.692   2.271 -33.467  1.00  0.00     0.164 HD
ENDROOT
BRANCH   4  11
HETATM   11  C   UNL     1      -7.932  -0.099 -33.561  1.00  0.00     0.030 C 
BRANCH  11  12
HETATM   12  C   UNL     1      -6.961  -0.343 -34.721  1.00  0.00     0.040 C 
BRANCH  12  13
HETATM   13  C   UNL     1      -6.221  -1.647 -34.524  1.00  0.00    -0.058 A 
HETATM   14  C   UNL     1      -4.935  -1.650 -33.961  1.00  0.00     0.007 A 
HETATM   15  C   UNL     1      -4.228  -2.844 -33.819  1.00  0.00     0.001 A 
HETATM   16  C   UNL     1      -4.794  -4.044 -34.243  1.00  0.00     0.000 A 
HETATM   17  C   UNL     1      -6.068  -4.052 -34.809  1.00  0.00     0.001 A 
HETATM   18  C   UNL     1      -6.779  -2.859 -34.950  1.00  0.00     0.007 A 
ENDBRANCH  12  13
ENDBRANCH  11  12
ENDBRANCH   4  11
BRANCH   1  19
HETATM   19  C   UNL     1      -6.152   2.938 -31.550  1.00  0.00     0.167 C 
BRANCH  19  20
HETATM   20  C   UNL     1      -5.073   1.927 -31.377  1.00  0.00     0.009 A 
HETATM   21  C   UNL     1      -5.185   0.647 -30.860  1.00  0.00     0.034 A 
HETATM   22  C   UNL     1      -6.355  -0.104 -30.350  1.00  0.00     0.070 C 
HETATM   23  N   UNL     1      -3.925   0.122 -30.881  1.00  0.00    -0.282 N 
HETATM   24  H   UNL     1      -3.625  -0.798 -30.578  1.00  0.00     0.189 HD
HETATM   25  N   UNL     1      -2.998   0.966 -31.353  1.00  0.00    -0.179 NA
HETATM   26  C   UNL     1      -3.685   2.072 -31.660  1.00  0.00     0.060 A 
HETATM   27  C   UNL     1      -2.983   3.262 -32.204  1.00  0.00     0.073 C 
ENDBRANCH  19  20
ENDBRANCH   1  19
TORSDOF 5
ENDMDL
MODEL 4
REMARK VINA RESULT:      -8.5      2.308      5.632
REMARK  5 active torsions:
REMARK  status: ('A' for Active; 'I' for Inactive)
REMARK    1  A    between atoms: C_8  and  C_9 
REMARK    2  A    between atoms: C_9  and  N_10 
REMARK       I    between atoms: N_10  and  C_11 
REMARK       I    between atoms: C_11  and  N_12 
REMARK    3  A    between atoms: C_13  and  C_14 
REMARK    4  A    between atoms: C_14  and  C_15 
REMARK    5  A    between atoms: C_15  and  C_16 
ROOT
HETATM    1  N   UNL     1      -6.702   3.660 -33.688  1.00  0.00    -0.339 N 
HETATM    2  C   UNL     1      -8.018   3.500 -33.363  1.00  0.00     0.318 C 
HETATM    3  N   UNL     1      -8.667   2.593 -34.208  1.00  0.00    -0.330 N 
HETATM    4  C   UNL     1      -8.298   1.147 -34.255  1.00  0.00     0.089 C 
HETATM    5  C   UNL     1      -9.113   0.376 -33.192  1.00  0.00     0.025 C 
HETATM    6  C   UNL     1     -10.616   0.622 -33.337  1.00  0.00     0.004 C 
HETATM    7  C   UNL     1     -10.932   2.113 -33.329  1.00  0.00     0.020 C 
HETATM    8  C   UNL     1     -10.098   2.838 -34.380  1.00  0.00     0.128 C 
HETATM    9  O   UNL     1      -8.584   4.165 -32.503  1.00  0.00    -0.247 OA
HETATM   10  H   UNL     1      -6.494   3.448 -34.652  1.00  0.00     0.164 HD
ENDROOT
BRANCH   4  11
HETATM   11  C   UNL     1      -6.790   0.837 -34.142  1.00  0.00     0.030 C 
BRANCH  11  12
HETATM   12  C   UNL     1      -6.421  -0.194 -33.070  1.00  0.00     0.040 C 
BRANCH  12  13
HETATM   13  C   UNL     1      -6.070  -1.518 -33.710  1.00  0.00    -0.058 A 
HETATM   14  C   UNL     1      -4.727  -1.891 -33.867  1.00  0.00     0.007 A 
HETATM   15  C   UNL     1      -4.394  -3.089 -34.498  1.00  0.00     0.001 A 
HETATM   16  C   UNL     1      -5.399  -3.923 -34.985  1.00  0.00     0.000 A 
HETATM   17  C   UNL     1      -6.737  -3.560 -34.840  1.00  0.00     0.001 A 
HETATM   18  C   UNL     1      -7.072  -2.362 -34.205  1.00  0.00     0.007 A 
ENDBRANCH  12  13
ENDBRANCH  11  12
ENDBRANCH   4  11
BRANCH   1  19
HETATM   19  C   UNL     1      -5.847   4.621 -33.034  1.00  0.00     0.167 C 
BRANCH  19  20
HETATM   20  C   UNL     1      -4.781   3.861 -32.323  1.00  0.00     0.009 A 
HETATM   21  C   UNL     1      -4.917   3.050 -31.209  1.00  0.00     0.034 A 
HETATM   22  C   UNL     1      -6.106   2.677 -30.409  1.00  0.00     0.070 C 
HETATM   23  N   UNL     1      -3.662   2.601 -30.916  1.00  0.00    -0.282 N 
HETATM   24  H   UNL     1      -3.378   1.983 -30.165  1.00  0.00     0.189 HD
HETATM   25  N   UNL     1      -2.716   3.071 -31.740  1.00  0.00    -0.179 NA
HETATM   26  C   UNL     1      -3.386   3.842 -32.605  1.00  0.00     0.060 A 
HETATM   27  C   UNL     1      -2.660   4.566 -33.678  1.00  0.00     0.073 C 
ENDBRANCH  19  20
ENDBRANCH   1  19
TORSDOF 5
ENDMDL
MODEL 5
REMARK VINA RESULT:      -8.3      1.951      2.857
REMARK  5 active torsions:
REMARK  status: ('A' for Active; 'I' for Inactive)
REMARK    1  A    between atoms: C_8  and  C_9 
REMARK    2  A    between atoms: C_9  and  N_10 
REMARK       I    between atoms: N_10  and  C_11 
REMARK       I    between atoms: C_11  and  N_12 
REMARK    3  A    between atoms: C_13  and  C_14 
REMARK    4  A    between atoms: C_14  and  C_15 
REMARK    5  A    between atoms: C_15  and  C_16 
ROOT
HETATM    1  N   UNL     1      -7.377   2.119 -33.271  1.00  0.00    -0.339 N 
HETATM    2  C   UNL     1      -6.364   3.033 -33.316  1.00  0.00     0.318 C 
HETATM    3  N   UNL     1      -5.755   3.213 -32.069  1.00  0.00    -0.330 N 
HETATM    4  C   UNL     1      -5.003   2.118 -31.387  1.00  0.00     0.089 C 
HETATM    5  C   UNL     1      -3.528   2.146 -31.848  1.00  0.00     0.025 C 
HETATM    6  C   UNL     1      -2.897   3.526 -31.653  1.00  0.00     0.004 C 
HETATM    7  C   UNL     1      -3.727   4.610 -32.328  1.00  0.00     0.020 C 
HETATM    8  C   UNL     1      -5.176   4.538 -31.859  1.00  0.00     0.128 C 
HETATM    9  O   UNL     1      -6.103   3.698 -34.311  1.00  0.00    -0.247 OA
HETATM   10  H   UNL     1      -7.788   2.015 -32.355  1.00  0.00     0.164 HD
ENDROOT
BRANCH   4  11
HETATM   11  C   UNL     1      -5.608   0.704 -31.525  1.00  0.00     0.030 C 
BRANCH  11  12
HETATM   12  C   UNL     1      -4.592  -0.409 -31.807  1.00  0.00     0.040 C 
BRANCH  12  13
HETATM   13  C   UNL     1      -5.080  -1.296 -32.930  1.00  0.00    -0.058 A 
HETATM   14  C   UNL     1      -6.419  -1.237 -33.344  1.00  0.00     0.007 A 
HETATM   15  C   UNL     1      -6.888  -2.085 -34.347  1.00  0.00     0.001 A 
HETATM   16  C   UNL     1      -6.026  -3.004 -34.941  1.00  0.00     0.000 A 
HETATM   17  C   UNL     1      -4.695  -3.076 -34.533  1.00  0.00     0.001 A 
HETATM   18  C   UNL     1      -4.223  -2.226 -33.531  1.00  0.00     0.007 A 
ENDBRANCH  12  13
ENDBRANCH  11  12
ENDBRANCH   4  11
BRANCH   1  19
HETATM   19  C   UNL     1      -8.228   1.839 -34.402  1.00  0.00     0.167 C 
BRANCH  19  20
HETATM   20  C   UNL     1      -9.639   1.973 -33.945  1.00  0.00     0.009 A 
HETATM   21  C   UNL     1     -10.392   1.052 -33.236  1.00  0.00     0.034 A 
HETATM   22  C   UNL     1     -10.056  -0.292 -32.712  1.00  0.00     0.070 C 
HETATM   23  N   UNL     1     -11.625   1.617 -33.079  1.00  0.00    -0.282 N 
HETATM   24  H   UNL     1     -12.435   1.230 -32.607  1.00  0.00     0.189 HD
HETATM   25  N   UNL     1     -11.740   2.825 -33.647  1.00  0.00    -0.179 NA
HETATM   26  C   UNL     1     -10.534   3.055 -34.178  1.00  0.00     0.060 A 
HETATM   27  C   UNL     1     -10.274   4.312 -34.925  1.00  0.00     0.073 C 
ENDBRANCH  19  20
ENDBRANCH   1  19
TORSDOF 5
ENDMDL
MODEL 6
REMARK VINA RESULT:      -8.1      2.695      5.277
REMARK  5 active torsions:
REMARK  status: ('A' for Active; 'I' for Inactive)
REMARK    1  A    between atoms: C_8  and  C_9 
REMARK    2  A    between atoms: C_9  and  N_10 
REMARK       I    between atoms: N_10  and  C_11 
REMARK       I    between atoms: C_11  and  N_12 
REMARK    3  A    between atoms: C_13  and  C_14 
REMARK    4  A    between atoms: C_14  and  C_15 
REMARK    5  A    between atoms: C_15  and  C_16 
ROOT
HETATM    1  N   UNL     1      -9.005   1.953 -33.519  1.00  0.00    -0.339 N 
HETATM    2  C   UNL     1      -8.539   0.671 -33.581  1.00  0.00     0.318 C 
HETATM    3  N   UNL     1      -7.297   0.586 -34.219  1.00  0.00    -0.330 N 
HETATM    4  C   UNL     1      -6.068   1.216 -33.652  1.00  0.00     0.089 C 
HETATM    5  C   UNL     1      -5.377   0.219 -32.693  1.00  0.00     0.025 C 
HETATM    6  C   UNL     1      -5.111  -1.128 -33.369  1.00  0.00     0.004 C 
HETATM    7  C   UNL     1      -6.388  -1.703 -33.970  1.00  0.00     0.020 C 
HETATM    8  C   UNL     1      -7.044  -0.684 -34.896  1.00  0.00     0.128 C 
HETATM    9  O   UNL     1      -9.194  -0.300 -33.219  1.00  0.00    -0.247 OA
HETATM   10  H   UNL     1      -8.631   2.554 -34.238  1.00  0.00     0.164 HD
ENDROOT
BRANCH   4  11
HETATM   11  C   UNL     1      -6.269   2.592 -32.981  1.00  0.00     0.030 C 
BRANCH  11  12
HETATM   12  C   UNL     1      -5.057   3.114 -32.200  1.00  0.00     0.040 C 
BRANCH  12  13
HETATM   13  C   UNL     1      -4.150   3.914 -33.107  1.00  0.00    -0.058 A 
HETATM   14  C   UNL     1      -4.675   4.568 -34.231  1.00  0.00     0.007 A 
HETATM   15  C   UNL     1      -3.837   5.269 -35.098  1.00  0.00     0.001 A 
HETATM   16  C   UNL     1      -2.466   5.318 -34.855  1.00  0.00     0.000 A 
HETATM   17  C   UNL     1      -1.932   4.666 -33.744  1.00  0.00     0.001 A 
HETATM   18  C   UNL     1      -2.770   3.966 -32.873  1.00  0.00     0.007 A 
ENDBRANCH  12  13
ENDBRANCH  11  12
ENDBRANCH   4  11
BRANCH   1  19
HETATM   19  C   UNL     1     -10.311   2.286 -33.006  1.00  0.00     0.167 C 
BRANCH  19  20
HETATM   20  C   UNL     1     -11.247   2.337 -34.162  1.00  0.00     0.009 A 
HETATM   21  C   UNL     1     -11.315   3.299 -35.156  1.00  0.00     0.034 A 
HETATM   22  C   UNL     1     -10.512   4.520 -35.394  1.00  0.00     0.070 C 
HETATM   23  N   UNL     1     -12.345   2.925 -35.970  1.00  0.00    -0.282 N 
HETATM   24  H   UNL     1     -12.685   3.391 -36.804  1.00  0.00     0.189 HD
HETATM   25  N   UNL     1     -12.967   1.806 -35.574  1.00  0.00    -0.179 NA
HETATM   26  C   UNL     1     -12.306   1.436 -34.471  1.00  0.00     0.060 A 
HETATM   27  C   UNL     1     -12.724   0.226 -33.719  1.00  0.00     0.073 C 
ENDBRANCH  19  20
ENDBRANCH   1  19
TORSDOF 5
ENDMDL
MODEL 7
REMARK VINA RESULT:      -7.9      1.934      5.580
REMARK  5 active torsions:
REMARK  status: ('A' for Active; 'I' for Inactive)
REMARK    1  A    between atoms: C_8  and  C_9 
REMARK    2  A    between atoms: C_9  and  N_10 
REMARK       I    between atoms: N_10  and  C_11 
REMARK       I    between atoms: C_11  and  N_12 
REMARK    3  A    between atoms: C_13  and  C_14 
REMARK    4  A    between atoms: C_14  and  C_15 
REMARK    5  A    between atoms: C_15  and  C_16 
ROOT
HETATM    1  N   UNL     1      -7.552   3.469 -33.509  1.00  0.00    -0.339 N 
HETATM    2  C   UNL     1      -8.904   3.466 -33.316  1.00  0.00     0.318 C 
HETATM    3  N   UNL     1      -9.570   2.655 -34.241  1.00  0.00    -0.330 N 
HETATM    4  C   UNL     1      -9.373   1.176 -34.288  1.00  0.00     0.089 C 
HETATM    5  C   UNL     1     -10.375   0.496 -33.326  1.00  0.00     0.025 C 
HETATM    6  C   UNL     1     -11.816   0.924 -33.610  1.00  0.00     0.004 C 
HETATM    7  C   UNL     1     -11.952   2.442 -33.597  1.00  0.00     0.020 C 
HETATM    8  C   UNL     1     -10.937   3.073 -34.545  1.00  0.00     0.128 C 
HETATM    9  O   UNL     1      -9.468   4.184 -32.499  1.00  0.00    -0.247 OA
HETATM   10  H   UNL     1      -7.277   3.245 -34.453  1.00  0.00     0.164 HD
ENDROOT
BRANCH   4  11
HETATM   11  C   UNL     1      -7.932   0.684 -34.037  1.00  0.00     0.030 C 
BRANCH  11  12
HETATM   12  C   UNL     1      -7.374  -0.258 -35.109  1.00  0.00     0.040 C 
BRANCH  12  13
HETATM   13  C   UNL     1      -6.204  -1.045 -34.564  1.00  0.00    -0.058 A 
HETATM   14  C   UNL     1      -6.030  -2.390 -34.924  1.00  0.00     0.007 A 
HETATM   15  C   UNL     1      -4.979  -3.135 -34.389  1.00  0.00     0.001 A 
HETATM   16  C   UNL     1      -4.098  -2.548 -33.484  1.00  0.00     0.000 A 
HETATM   17  C   UNL     1      -4.266  -1.214 -33.113  1.00  0.00     0.001 A 
HETATM   18  C   UNL     1      -5.314  -0.465 -33.650  1.00  0.00     0.007 A 
ENDBRANCH  12  13
ENDBRANCH  11  12
ENDBRANCH   4  11
BRANCH   1  19
HETATM   19  C   UNL     1      -6.657   4.311 -32.752  1.00  0.00     0.167 C 
BRANCH  19  20
HETATM   20  C   UNL     1      -5.586   3.439 -32.194  1.00  0.00     0.009 A 
HETATM   21  C   UNL     1      -4.240   3.438 -32.518  1.00  0.00     0.034 A 
HETATM   22  C   UNL     1      -3.459   4.268 -33.464  1.00  0.00     0.070 C 
HETATM   23  N   UNL     1      -3.674   2.449 -31.766  1.00  0.00    -0.282 N 
HETATM   24  H   UNL     1      -2.702   2.161 -31.739  1.00  0.00     0.189 HD
HETATM   25  N   UNL     1      -4.550   1.793 -30.992  1.00  0.00    -0.179 NA
HETATM   26  C   UNL     1      -5.721   2.388 -31.243  1.00  0.00     0.060 A 
HETATM   27  C   UNL     1      -6.959   1.915 -30.574  1.00  0.00     0.073 C 
ENDBRANCH  19  20
ENDBRANCH   1  19
TORSDOF 5
ENDMDL
MODEL 8
REMARK VINA RESULT:      -7.9      2.451      5.945
REMARK  5 active torsions:
REMARK  status: ('A' for Active; 'I' for Inactive)
REMARK    1  A    between atoms: C_8  and  C_9 
REMARK    2  A    between atoms: C_9  and  N_10 
REMARK       I    between atoms: N_10  and  C_11 
REMARK       I    between atoms: C_11  and  N_12 
REMARK    3  A    between atoms: C_13  and  C_14 
REMARK    4  A    between atoms: C_14  and  C_15 
REMARK    5  A    between atoms: C_15  and  C_16 
ROOT
HETATM    1  N   UNL     1      -7.276   2.171 -31.510  1.00  0.00    -0.339 N 
HETATM    2  C   UNL     1      -6.346   1.455 -32.210  1.00  0.00     0.318 C 
HETATM    3  N   UNL     1      -6.668   0.096 -32.284  1.00  0.00    -0.330 N 
HETATM    4  C   UNL     1      -7.879  -0.396 -33.005  1.00  0.00     0.089 C 
HETATM    5  C   UNL     1      -7.527  -0.641 -34.490  1.00  0.00     0.025 C 
HETATM    6  C   UNL     1      -6.315  -1.563 -34.642  1.00  0.00     0.004 C 
HETATM    7  C   UNL     1      -5.123  -1.041 -33.850  1.00  0.00     0.020 C 
HETATM    8  C   UNL     1      -5.517  -0.798 -32.397  1.00  0.00     0.128 C 
HETATM    9  O   UNL     1      -5.297   1.937 -32.620  1.00  0.00    -0.247 OA
HETATM   10  H   UNL     1      -7.799   1.617 -30.849  1.00  0.00     0.164 HD
ENDROOT
BRANCH   4  11
HETATM   11  C   UNL     1      -9.143   0.480 -32.865  1.00  0.00     0.030 C 
BRANCH  11  12
HETATM   12  C   UNL     1      -9.550   1.235 -34.136  1.00  0.00     0.040 C 
BRANCH  12  13
HETATM   13  C   UNL     1     -11.054   1.375 -34.208  1.00  0.00    -0.058 A 
HETATM   14  C   UNL     1     -11.880   0.412 -33.610  1.00  0.00     0.007 A 
HETATM   15  C   UNL     1     -13.268   0.509 -33.712  1.00  0.00     0.001 A 
HETATM   16  C   UNL     1     -13.843   1.564 -34.417  1.00  0.00     0.000 A 
HETATM   17  C   UNL     1     -13.031   2.523 -35.021  1.00  0.00     0.001 A 
HETATM   18  C   UNL     1     -11.642   2.430 -34.917  1.00  0.00     0.007 A 
ENDBRANCH  12  13
ENDBRANCH  11  12
ENDBRANCH   4  11
BRANCH   1  19
HETATM   19  C   UNL     1      -7.115   3.571 -31.204  1.00  0.00     0.167 C 
BRANCH  19  20
HETATM   20  C   UNL     1      -7.823   4.346 -32.260  1.00  0.00     0.009 A 
HETATM   21  C   UNL     1      -7.263   5.085 -33.288  1.00  0.00     0.034 A 
HETATM   22  C   UNL     1      -5.851   5.325 -33.666  1.00  0.00     0.070 C 
HETATM   23  N   UNL     1      -8.311   5.628 -33.974  1.00  0.00    -0.282 N 
HETATM   24  H   UNL     1      -8.281   6.229 -34.790  1.00  0.00     0.189 HD
HETATM   25  N   UNL     1      -9.509   5.317 -33.461  1.00  0.00    -0.179 NA
HETATM   26  C   UNL     1      -9.226   4.533 -32.415  1.00  0.00     0.060 A 
HETATM   27  C   UNL     1     -10.319   3.995 -31.566  1.00  0.00     0.073 C 
ENDBRANCH  19  20
ENDBRANCH   1  19
TORSDOF 5
ENDMDL
MODEL 9
REMARK VINA RESULT:      -7.8      1.736      2.833
REMARK  5 active torsions:
REMARK  status: ('A' for Active; 'I' for Inactive)
REMARK    1  A    between atoms: C_8  and  C_9 
REMARK    2  A    between atoms: C_9  and  N_10 
REMARK       I    between atoms: N_10  and  C_11 
REMARK       I    between atoms: C_11  and  N_12 
REMARK    3  A    between atoms: C_13  and  C_14 
REMARK    4  A    between atoms: C_14  and  C_15 
REMARK    5  A    between atoms: C_15  and  C_16 
ROOT
HETATM    1  N   UNL     1     -10.481   2.560 -32.207  1.00  0.00    -0.339 N 
HETATM    2  C   UNL     1      -9.541   3.363 -31.627  1.00  0.00     0.318 C 
HETATM    3  N   UNL     1      -8.414   2.646 -31.211  1.00  0.00    -0.330 N 
HETATM    4  C   UNL     1      -7.512   1.953 -32.179  1.00  0.00     0.089 C 
HETATM    5  C   UNL     1      -6.419   2.937 -32.655  1.00  0.00     0.025 C 
HETATM    6  C   UNL     1      -5.673   3.571 -31.479  1.00  0.00     0.004 C 
HETATM    7  C   UNL     1      -6.642   4.223 -30.500  1.00  0.00     0.020 C 
HETATM    8  C   UNL     1      -7.711   3.225 -30.068  1.00  0.00     0.128 C 
HETATM    9  O   UNL     1      -9.723   4.553 -31.397  1.00  0.00    -0.247 OA
HETATM   10  H   UNL     1     -10.429   1.597 -31.912  1.00  0.00     0.164 HD
ENDROOT
BRANCH   4  11
HETATM   11  C   UNL     1      -8.211   1.269 -33.373  1.00  0.00     0.030 C 
BRANCH  11  12
HETATM   12  C   UNL     1      -8.363  -0.251 -33.250  1.00  0.00     0.040 C 
BRANCH  12  13
HETATM   13  C   UNL     1      -7.050  -0.939 -33.546  1.00  0.00    -0.058 A 
HETATM   14  C   UNL     1      -6.938  -1.803 -34.645  1.00  0.00     0.007 A 
HETATM   15  C   UNL     1      -5.743  -2.476 -34.897  1.00  0.00     0.001 A 
HETATM   16  C   UNL     1      -4.651  -2.299 -34.050  1.00  0.00     0.000 A 
HETATM   17  C   UNL     1      -4.753  -1.448 -32.951  1.00  0.00     0.001 A 
HETATM   18  C   UNL     1      -5.947  -0.770 -32.698  1.00  0.00     0.007 A 
ENDBRANCH  12  13
ENDBRANCH  11  12
ENDBRANCH   4  11
BRANCH   1  19
HETATM   19  C   UNL     1     -11.776   3.045 -32.619  1.00  0.00     0.167 C 
BRANCH  19  20
HETATM   20  C   UNL     1     -11.914   2.771 -34.076  1.00  0.00     0.009 A 
HETATM   21  C   UNL     1     -11.427   3.525 -35.131  1.00  0.00     0.034 A 
HETATM   22  C   UNL     1     -10.639   4.778 -35.156  1.00  0.00     0.070 C 
HETATM   23  N   UNL     1     -11.829   2.885 -36.267  1.00  0.00    -0.282 N 
HETATM   24  H   UNL     1     -11.654   3.149 -37.230  1.00  0.00     0.189 HD
HETATM   25  N   UNL     1     -12.556   1.783 -36.036  1.00  0.00    -0.179 NA
HETATM   26  C   UNL     1     -12.615   1.701 -34.702  1.00  0.00     0.060 A 
HETATM   27  C   UNL     1     -13.368   0.599 -34.053  1.00  0.00     0.073 C 
ENDBRANCH  19  20
ENDBRANCH   1  19
TORSDOF 5
ENDMDL
MODEL 10
REMARK VINA RESULT:      -7.8      3.653      6.851
REMARK  5 active torsions:
REMARK  status: ('A' for Active; 'I' for Inactive)
REMARK    1  A    between atoms: C_8  and  C_9 
REMARK    2  A    between atoms: C_9  and  N_10 
REMARK       I    between atoms: N_10  and  C_11 
REMARK       I    between atoms: C_11  and  N_12 
REMARK    3  A    between atoms: C_13  and  C_14 
REMARK    4  A    between atoms: C_14  and  C_15 
REMARK    5  A    between atoms: C_15  and  C_16 
ROOT
HETATM    1  N   UNL     1      -4.935   1.064 -32.646  1.00  0.00    -0.339 N 
HETATM    2  C   UNL     1      -4.326   2.065 -31.946  1.00  0.00     0.318 C 
HETATM    3  N   UNL     1      -3.955   3.137 -32.764  1.00  0.00    -0.330 N 
HETATM    4  C   UNL     1      -4.962   3.979 -33.476  1.00  0.00     0.089 C 
HETATM    5  C   UNL     1      -5.401   5.140 -32.556  1.00  0.00     0.025 C 
HETATM    6  C   UNL     1      -4.204   5.939 -32.036  1.00  0.00     0.004 C 
HETATM    7  C   UNL     1      -3.186   5.028 -31.361  1.00  0.00     0.020 C 
HETATM    8  C   UNL     1      -2.792   3.888 -32.296  1.00  0.00     0.128 C 
HETATM    9  O   UNL     1      -4.038   1.975 -30.758  1.00  0.00    -0.247 OA
HETATM   10  H   UNL     1      -4.686   1.045 -33.624  1.00  0.00     0.164 HD
ENDROOT
BRANCH   4  11
HETATM   11  C   UNL     1      -6.182   3.224 -34.047  1.00  0.00     0.030 C 
BRANCH  11  12
HETATM   12  C   UNL     1      -7.535   3.645 -33.464  1.00  0.00     0.040 C 
BRANCH  12  13
HETATM   13  C   UNL     1      -8.439   2.444 -33.305  1.00  0.00    -0.058 A 
HETATM   14  C   UNL     1      -9.415   2.164 -34.272  1.00  0.00     0.007 A 
HETATM   15  C   UNL     1     -10.283   1.083 -34.110  1.00  0.00     0.001 A 
HETATM   16  C   UNL     1     -10.188   0.278 -32.977  1.00  0.00     0.000 A 
HETATM   17  C   UNL     1      -9.226   0.551 -32.006  1.00  0.00     0.001 A 
HETATM   18  C   UNL     1      -8.354   1.629 -32.168  1.00  0.00     0.007 A 
ENDBRANCH  12  13
ENDBRANCH  11  12
ENDBRANCH   4  11
BRANCH   1  19
HETATM   19  C   UNL     1      -5.312  -0.193 -32.046  1.00  0.00     0.167 C 
BRANCH  19  20
HETATM   20  C   UNL     1      -5.103  -1.257 -33.066  1.00  0.00     0.009 A 
HETATM   21  C   UNL     1      -5.831  -1.476 -34.224  1.00  0.00     0.034 A 
HETATM   22  C   UNL     1      -6.985  -0.753 -34.807  1.00  0.00     0.070 C 
HETATM   23  N   UNL     1      -5.279  -2.577 -34.812  1.00  0.00    -0.282 N 
HETATM   24  H   UNL     1      -5.553  -3.029 -35.677  1.00  0.00     0.189 HD
HETATM   25  N   UNL     1      -4.261  -3.105 -34.118  1.00  0.00    -0.179 NA
HETATM   26  C   UNL     1      -4.143  -2.308 -33.050  1.00  0.00     0.060 A 
HETATM   27  C   UNL     1      -3.114  -2.589 -32.017  1.00  0.00     0.073 C 
ENDBRANCH  19  20
ENDBRANCH   1  19
TORSDOF 5
ENDMDL
