MODEL 1
REMARK VINA RESULT:      -8.5      0.000      0.000
REMARK  6 active torsions:
REMARK  status: ('A' for Active; 'I' for Inactive)
REMARK    1  A    between atoms: C_8  and  C_9 
REMARK    2  A    between atoms: C_9  and  C_10 
REMARK       I    between atoms: C_10  and  N_11 
REMARK    3  A    between atoms: N_11  and  C_12 
REMARK    4  A    between atoms: C_12  and  C_13 
REMARK    5  A    between atoms: C_13  and  N_14 
REMARK    6  A    between atoms: C_13  and  C_20 
ROOT
HETATM    1  C   UNL     1      -7.491   0.112 -35.113  1.00  0.00     0.160 C 
ENDROOT
BRANCH   1   2
HETATM    2  N   UNL     1      -8.620   0.410 -34.235  1.00  0.00    -0.358 N 
HETATM    3  C   UNL     1      -8.845   1.699 -33.778  1.00  0.00     0.226 C 
HETATM    4  O   UNL     1      -7.981   2.567 -33.872  1.00  0.00    -0.273 OA
HETATM    5  H   UNL     1      -9.468  -0.120 -34.418  1.00  0.00     0.162 HD
BRANCH   3   6
HETATM    6  C   UNL     1     -10.207   1.904 -33.102  1.00  0.00     0.111 C 
HETATM    7  C   UNL     1     -10.127   3.021 -32.065  1.00  0.00     0.025 C 
BRANCH   6   8
HETATM    8  C   UNL     1     -11.279   2.128 -34.129  1.00  0.00     0.004 A 
HETATM    9  C   UNL     1     -11.427   3.162 -35.042  1.00  0.00     0.033 A 
HETATM   10  C   UNL     1     -10.620   4.372 -35.339  1.00  0.00     0.070 C 
HETATM   11  N   UNL     1     -12.573   2.893 -35.737  1.00  0.00    -0.282 N 
HETATM   12  H   UNL     1     -13.004   3.440 -36.476  1.00  0.00     0.189 HD
HETATM   13  N   UNL     1     -13.167   1.754 -35.367  1.00  0.00    -0.179 NA
HETATM   14  C   UNL     1     -12.412   1.292 -34.370  1.00  0.00     0.060 A 
HETATM   15  C   UNL     1     -12.805   0.038 -33.677  1.00  0.00     0.073 C 
ENDBRANCH   6   8
ENDBRANCH   3   6
ENDBRANCH   1   2
BRANCH   1  16
HETATM   16  C   UNL     1      -6.138  -0.343 -34.466  1.00  0.00     0.238 C 
BRANCH  16  17
HETATM   17  N   UNL     1      -5.876   0.203 -33.055  1.00  0.00    -0.061 N 
HETATM   18  H   UNL     1      -6.758   0.676 -32.817  1.00  0.00     0.280 HD
HETATM   19  C   UNL     1      -4.794   1.232 -32.870  1.00  0.00     0.236 C 
HETATM   20  C   UNL     1      -3.699   0.498 -32.129  1.00  0.00     0.029 C 
HETATM   21  C   UNL     1      -4.462  -0.420 -31.197  1.00  0.00     0.029 C 
HETATM   22  C   UNL     1      -5.689  -0.849 -31.980  1.00  0.00     0.236 C 
ENDBRANCH  16  17
BRANCH  16  23
HETATM   23  C   UNL     1      -5.975  -1.864 -34.468  1.00  0.00    -0.024 A 
HETATM   24  C   UNL     1      -4.740  -2.494 -34.237  1.00  0.00     0.033 A 
HETATM   25  C   UNL     1      -4.633  -3.887 -34.285  1.00  0.00     0.034 A 
HETATM   26 CL   UNL     1      -3.104  -4.625 -34.010  1.00  0.00    -0.084 Cl
HETATM   27  C   UNL     1      -5.744  -4.676 -34.558  1.00  0.00     0.024 A 
HETATM   28  C   UNL     1      -6.975  -4.067 -34.790  1.00  0.00     0.002 A 
HETATM   29  C   UNL     1      -7.090  -2.675 -34.750  1.00  0.00     0.009 A 
ENDBRANCH  16  23
ENDBRANCH   1  16
TORSDOF 6
ENDMDL
MODEL 2
REMARK VINA RESULT:      -8.3      2.258      3.488
REMARK  6 active torsions:
REMARK  status: ('A' for Active; 'I' for Inactive)
REMARK    1  A    between atoms: C_8  and  C_9 
REMARK    2  A    between atoms: C_9  and  C_10 
REMARK       I    between atoms: C_10  and  N_11 
REMARK    3  A    between atoms: N_11  and  C_12 
REMARK    4  A    between atoms: C_12  and  C_13 
REMARK    5  A    between atoms: C_13  and  N_14 
REMARK    6  A    between atoms: C_13  and  C_20 
ROOT
HETATM    1  C   UNL     1      -8.775   0.291 -34.330  1.00  0.00     0.160 C 
ENDROOT
BRANCH   1   2
HETATM    2  N   UNL     1      -9.712   1.379 -34.593  1.00  0.00    -0.358 N 
HETATM    3  C   UNL     1     -10.958   1.410 -33.986  1.00  0.00     0.226 C 
HETATM    4  O   UNL     1     -11.416   0.417 -33.425  1.00  0.00    -0.273 OA
HETATM    5  H   UNL     1      -9.292   2.296 -34.725  1.00  0.00     0.162 HD
BRANCH   3   6
HETATM    6  C   UNL     1     -11.708   2.738 -34.142  1.00  0.00     0.111 C 
HETATM    7  C   UNL     1     -12.351   2.831 -35.523  1.00  0.00     0.025 C 
BRANCH   6   8
HETATM    8  C   UNL     1     -12.689   2.927 -33.022  1.00  0.00     0.004 A 
HETATM    9  C   UNL     1     -13.925   2.331 -32.818  1.00  0.00     0.033 A 
HETATM   10  C   UNL     1     -14.702   1.326 -33.586  1.00  0.00     0.070 C 
HETATM   11  N   UNL     1     -14.413   2.856 -31.653  1.00  0.00    -0.282 N 
HETATM   12  H   UNL     1     -15.300   2.663 -31.199  1.00  0.00     0.189 HD
HETATM   13  N   UNL     1     -13.581   3.726 -31.071  1.00  0.00    -0.179 NA
HETATM   14  C   UNL     1     -12.543   3.805 -31.904  1.00  0.00     0.060 A 
HETATM   15  C   UNL     1     -11.423   4.730 -31.590  1.00  0.00     0.073 C 
ENDBRANCH   6   8
ENDBRANCH   3   6
ENDBRANCH   1   2
BRANCH   1  16
HETATM   16  C   UNL     1      -7.277   0.647 -34.035  1.00  0.00     0.238 C 
BRANCH  16  17
HETATM   17  N   UNL     1      -7.032   1.377 -32.706  1.00  0.00    -0.061 N 
HETATM   18  H   UNL     1      -6.049   1.162 -32.496  1.00  0.00     0.280 HD
HETATM   19  C   UNL     1      -7.815   0.951 -31.494  1.00  0.00     0.236 C 
HETATM   20  C   UNL     1      -8.774   2.093 -31.244  1.00  0.00     0.029 C 
HETATM   21  C   UNL     1      -7.961   3.318 -31.606  1.00  0.00     0.029 C 
HETATM   22  C   UNL     1      -7.099   2.890 -32.780  1.00  0.00     0.236 C 
ENDBRANCH  16  17
BRANCH  16  23
HETATM   23  C   UNL     1      -6.359  -0.572 -34.130  1.00  0.00    -0.024 A 
HETATM   24  C   UNL     1      -6.782  -1.799 -34.672  1.00  0.00     0.033 A 
HETATM   25  C   UNL     1      -5.918  -2.897 -34.705  1.00  0.00     0.034 A 
HETATM   26 CL   UNL     1      -6.472  -4.386 -35.364  1.00  0.00    -0.084 Cl
HETATM   27  C   UNL     1      -4.624  -2.798 -34.206  1.00  0.00     0.024 A 
HETATM   28  C   UNL     1      -4.190  -1.590 -33.665  1.00  0.00     0.002 A 
HETATM   29  C   UNL     1      -5.049  -0.489 -33.623  1.00  0.00     0.009 A 
ENDBRANCH  16  23
ENDBRANCH   1  16
TORSDOF 6
ENDMDL
MODEL 3
REMARK VINA RESULT:      -8.3      2.195      3.176
REMARK  6 active torsions:
REMARK  status: ('A' for Active; 'I' for Inactive)
REMARK    1  A    between atoms: C_8  and  C_9 
REMARK    2  A    between atoms: C_9  and  C_10 
REMARK       I    between atoms: C_10  and  N_11 
REMARK    3  A    between atoms: N_11  and  C_12 
REMARK    4  A    between atoms: C_12  and  C_13 
REMARK    5  A    between atoms: C_13  and  N_14 
REMARK    6  A    between atoms: C_13  and  C_20 
ROOT
HETATM    1  C   UNL     1      -8.695   0.241 -34.333  1.00  0.00     0.160 C 
ENDROOT
BRANCH   1   2
HETATM    2  N   UNL     1      -9.643   1.319 -34.602  1.00  0.00    -0.358 N 
HETATM    3  C   UNL     1     -10.883   1.347 -33.982  1.00  0.00     0.226 C 
HETATM    4  O   UNL     1     -11.328   0.359 -33.404  1.00  0.00    -0.273 OA
HETATM    5  H   UNL     1      -9.231   2.237 -34.749  1.00  0.00     0.162 HD
BRANCH   3   6
HETATM    6  C   UNL     1     -11.645   2.668 -34.148  1.00  0.00     0.111 C 
HETATM    7  C   UNL     1     -12.234   2.774 -35.552  1.00  0.00     0.025 C 
BRANCH   6   8
HETATM    8  C   UNL     1     -12.672   2.827 -33.064  1.00  0.00     0.004 A 
HETATM    9  C   UNL     1     -12.623   3.585 -31.904  1.00  0.00     0.033 A 
HETATM   10  C   UNL     1     -11.593   4.484 -31.326  1.00  0.00     0.070 C 
HETATM   11  N   UNL     1     -13.810   3.372 -31.261  1.00  0.00    -0.282 N 
HETATM   12  H   UNL     1     -14.122   3.752 -30.372  1.00  0.00     0.189 HD
HETATM   13  N   UNL     1     -14.638   2.558 -31.924  1.00  0.00    -0.179 NA
HETATM   14  C   UNL     1     -13.950   2.192 -33.007  1.00  0.00     0.060 A 
HETATM   15  C   UNL     1     -14.558   1.238 -33.969  1.00  0.00     0.073 C 
ENDBRANCH   6   8
ENDBRANCH   3   6
ENDBRANCH   1   2
BRANCH   1  16
HETATM   16  C   UNL     1      -7.204   0.614 -34.025  1.00  0.00     0.238 C 
BRANCH  16  17
HETATM   17  N   UNL     1      -6.979   1.343 -32.692  1.00  0.00    -0.061 N 
HETATM   18  H   UNL     1      -5.995   1.142 -32.475  1.00  0.00     0.280 HD
HETATM   19  C   UNL     1      -7.765   0.902 -31.487  1.00  0.00     0.236 C 
HETATM   20  C   UNL     1      -8.742   2.030 -31.241  1.00  0.00     0.029 C 
HETATM   21  C   UNL     1      -7.944   3.268 -31.593  1.00  0.00     0.029 C 
HETATM   22  C   UNL     1      -7.068   2.855 -32.762  1.00  0.00     0.236 C 
ENDBRANCH  16  17
BRANCH  16  23
HETATM   23  C   UNL     1      -6.271  -0.595 -34.115  1.00  0.00    -0.024 A 
HETATM   24  C   UNL     1      -6.669  -1.819 -34.680  1.00  0.00     0.033 A 
HETATM   25  C   UNL     1      -5.793  -2.907 -34.708  1.00  0.00     0.034 A 
HETATM   26 CL   UNL     1      -6.316  -4.394 -35.396  1.00  0.00    -0.084 Cl
HETATM   27  C   UNL     1      -4.511  -2.800 -34.181  1.00  0.00     0.024 A 
HETATM   28  C   UNL     1      -4.101  -1.594 -33.616  1.00  0.00     0.002 A 
HETATM   29  C   UNL     1      -4.973  -0.503 -33.579  1.00  0.00     0.009 A 
ENDBRANCH  16  23
ENDBRANCH   1  16
TORSDOF 6
ENDMDL
MODEL 4
REMARK VINA RESULT:      -8.2      2.781      4.499
REMARK  6 active torsions:
REMARK  status: ('A' for Active; 'I' for Inactive)
REMARK    1  A    between atoms: C_8  and  C_9 
REMARK    2  A    between atoms: C_9  and  C_10 
REMARK       I    between atoms: C_10  and  N_11 
REMARK    3  A    between atoms: N_11  and  C_12 
REMARK    4  A    between atoms: C_12  and  C_13 
REMARK    5  A    between atoms: C_13  and  N_14 
REMARK    6  A    between atoms: C_13  and  C_20 
ROOT
HETATM    1  C   UNL     1      -6.926   0.463 -34.030  1.00  0.00     0.160 C 
ENDROOT
BRANCH   1   2
HETATM    2  N   UNL     1      -6.945   1.881 -34.377  1.00  0.00    -0.358 N 
HETATM    3  C   UNL     1      -7.680   2.787 -33.628  1.00  0.00     0.226 C 
HETATM    4  O   UNL     1      -8.530   2.408 -32.827  1.00  0.00    -0.273 OA
HETATM    5  H   UNL     1      -6.072   2.254 -34.741  1.00  0.00     0.162 HD
BRANCH   3   6
HETATM    6  C   UNL     1      -7.383   4.259 -33.942  1.00  0.00     0.111 C 
HETATM    7  C   UNL     1      -8.660   5.091 -33.865  1.00  0.00     0.025 C 
BRANCH   6   8
HETATM    8  C   UNL     1      -6.287   4.778 -33.057  1.00  0.00     0.004 A 
HETATM    9  C   UNL     1      -6.303   5.053 -31.698  1.00  0.00     0.033 A 
HETATM   10  C   UNL     1      -7.353   4.936 -30.655  1.00  0.00     0.070 C 
HETATM   11  N   UNL     1      -5.052   5.511 -31.388  1.00  0.00    -0.282 N 
HETATM   12  H   UNL     1      -4.701   5.822 -30.487  1.00  0.00     0.189 HD
HETATM   13  N   UNL     1      -4.218   5.530 -32.432  1.00  0.00    -0.179 NA
HETATM   14  C   UNL     1      -4.959   5.119 -33.461  1.00  0.00     0.060 A 
HETATM   15  C   UNL     1      -4.356   5.056 -34.817  1.00  0.00     0.073 C 
ENDBRANCH   6   8
ENDBRANCH   3   6
ENDBRANCH   1   2
BRANCH   1  16
HETATM   16  C   UNL     1      -5.541  -0.226 -33.770  1.00  0.00     0.238 C 
BRANCH  16  17
HETATM   17  N   UNL     1      -4.951   0.010 -32.372  1.00  0.00    -0.061 N 
HETATM   18  H   UNL     1      -4.211  -0.700 -32.305  1.00  0.00     0.280 HD
HETATM   19  C   UNL     1      -5.834  -0.199 -31.172  1.00  0.00     0.236 C 
HETATM   20  C   UNL     1      -6.079   1.194 -30.637  1.00  0.00     0.029 C 
HETATM   21  C   UNL     1      -4.760   1.898 -30.875  1.00  0.00     0.029 C 
HETATM   22  C   UNL     1      -4.242   1.337 -32.188  1.00  0.00     0.236 C 
ENDBRANCH  16  17
BRANCH  16  23
HETATM   23  C   UNL     1      -5.572  -1.725 -34.070  1.00  0.00    -0.024 A 
HETATM   24  C   UNL     1      -4.481  -2.573 -33.808  1.00  0.00     0.033 A 
HETATM   25  C   UNL     1      -4.543  -3.931 -34.133  1.00  0.00     0.034 A 
HETATM   26 CL   UNL     1      -3.186  -4.938 -33.809  1.00  0.00    -0.084 Cl
HETATM   27  C   UNL     1      -5.682  -4.470 -34.719  1.00  0.00     0.024 A 
HETATM   28  C   UNL     1      -6.771  -3.643 -34.987  1.00  0.00     0.002 A 
HETATM   29  C   UNL     1      -6.716  -2.283 -34.671  1.00  0.00     0.009 A 
ENDBRANCH  16  23
ENDBRANCH   1  16
TORSDOF 6
ENDMDL
MODEL 5
REMARK VINA RESULT:      -8.1      4.859      8.104
REMARK  6 active torsions:
REMARK  status: ('A' for Active; 'I' for Inactive)
REMARK    1  A    between atoms: C_8  and  C_9 
REMARK    2  A    between atoms: C_9  and  C_10 
REMARK       I    between atoms: C_10  and  N_11 
REMARK    3  A    between atoms: N_11  and  C_12 
REMARK    4  A    between atoms: C_12  and  C_13 
REMARK    5  A    between atoms: C_13  and  N_14 
REMARK    6  A    between atoms: C_13  and  C_20 
ROOT
HETATM    1  C   UNL     1      -3.292   2.637 -32.155  1.00  0.00     0.160 C 
ENDROOT
BRANCH   1   2
HETATM    2  N   UNL     1      -4.099   1.423 -32.245  1.00  0.00    -0.358 N 
HETATM    3  C   UNL     1      -3.713   0.262 -31.594  1.00  0.00     0.226 C 
HETATM    4  O   UNL     1      -2.576   0.132 -31.148  1.00  0.00    -0.273 OA
HETATM    5  H   UNL     1      -5.105   1.568 -32.275  1.00  0.00     0.162 HD
BRANCH   3   6
HETATM    6  C   UNL     1      -4.788  -0.831 -31.553  1.00  0.00     0.111 C 
HETATM    7  C   UNL     1      -6.173  -0.212 -31.382  1.00  0.00     0.025 C 
BRANCH   6   8
HETATM    8  C   UNL     1      -4.685  -1.720 -32.758  1.00  0.00     0.004 A 
HETATM    9  C   UNL     1      -5.332  -1.631 -33.981  1.00  0.00     0.033 A 
HETATM   10  C   UNL     1      -6.315  -0.668 -34.537  1.00  0.00     0.070 C 
HETATM   11  N   UNL     1      -4.892  -2.692 -34.723  1.00  0.00    -0.282 N 
HETATM   12  H   UNL     1      -5.161  -2.956 -35.666  1.00  0.00     0.189 HD
HETATM   13  N   UNL     1      -3.990  -3.448 -34.089  1.00  0.00    -0.179 NA
HETATM   14  C   UNL     1      -3.876  -2.891 -32.882  1.00  0.00     0.060 A 
HETATM   15  C   UNL     1      -2.972  -3.507 -31.876  1.00  0.00     0.073 C 
ENDBRANCH   6   8
ENDBRANCH   3   6
ENDBRANCH   1   2
BRANCH   1  16
HETATM   16  C   UNL     1      -3.876   3.970 -32.739  1.00  0.00     0.238 C 
BRANCH  16  17
HETATM   17  N   UNL     1      -5.111   4.514 -32.007  1.00  0.00    -0.061 N 
HETATM   18  H   UNL     1      -5.165   5.489 -32.326  1.00  0.00     0.280 HD
HETATM   19  C   UNL     1      -5.090   4.572 -30.503  1.00  0.00     0.236 C 
HETATM   20  C   UNL     1      -6.061   3.497 -30.071  1.00  0.00     0.029 C 
HETATM   21  C   UNL     1      -7.150   3.565 -31.121  1.00  0.00     0.029 C 
HETATM   22  C   UNL     1      -6.430   3.890 -32.418  1.00  0.00     0.236 C 
ENDBRANCH  16  17
BRANCH  16  23
HETATM   23  C   UNL     1      -2.818   5.069 -32.853  1.00  0.00    -0.024 A 
HETATM   24  C   UNL     1      -1.692   5.125 -32.013  1.00  0.00     0.033 A 
HETATM   25  C   UNL     1      -0.770   6.170 -32.131  1.00  0.00     0.034 A 
HETATM   26 CL   UNL     1       0.591   6.215 -31.080  1.00  0.00    -0.084 Cl
HETATM   27  C   UNL     1      -0.947   7.170 -33.080  1.00  0.00     0.024 A 
HETATM   28  C   UNL     1      -2.059   7.129 -33.919  1.00  0.00     0.002 A 
HETATM   29  C   UNL     1      -2.988   6.091 -33.804  1.00  0.00     0.009 A 
ENDBRANCH  16  23
ENDBRANCH   1  16
TORSDOF 6
ENDMDL
MODEL 6
REMARK VINA RESULT:      -8.1      4.735      7.932
REMARK  6 active torsions:
REMARK  status: ('A' for Active; 'I' for Inactive)
REMARK    1  A    between atoms: C_8  and  C_9 
REMARK    2  A    between atoms: C_9  and  C_10 
REMARK       I    between atoms: C_10  and  N_11 
REMARK    3  A    between atoms: N_11  and  C_12 
REMARK    4  A    between atoms: C_12  and  C_13 
REMARK    5  A    between atoms: C_13  and  N_14 
REMARK    6  A    between atoms: C_13  and  C_20 
ROOT
HETATM    1  C   UNL     1      -3.061   3.064 -31.777  1.00  0.00     0.160 C 
ENDROOT
BRANCH   1   2
HETATM    2  N   UNL     1      -3.721   1.937 -32.429  1.00  0.00    -0.358 N 
HETATM    3  C   UNL     1      -3.576   0.647 -31.942  1.00  0.00     0.226 C 
HETATM    4  O   UNL     1      -2.700   0.371 -31.127  1.00  0.00    -0.273 OA
HETATM    5  H   UNL     1      -4.640   2.133 -32.817  1.00  0.00     0.162 HD
BRANCH   3   6
HETATM    6  C   UNL     1      -4.539  -0.376 -32.557  1.00  0.00     0.111 C 
HETATM    7  C   UNL     1      -4.109  -1.797 -32.202  1.00  0.00     0.025 C 
BRANCH   6   8
HETATM    8  C   UNL     1      -5.955  -0.073 -32.163  1.00  0.00     0.004 A 
HETATM    9  C   UNL     1      -6.468   0.315 -30.934  1.00  0.00     0.033 A 
HETATM   10  C   UNL     1      -5.842   0.571 -29.613  1.00  0.00     0.070 C 
HETATM   11  N   UNL     1      -7.817   0.453 -31.112  1.00  0.00    -0.282 N 
HETATM   12  H   UNL     1      -8.518   0.712 -30.425  1.00  0.00     0.189 HD
HETATM   13  N   UNL     1      -8.217   0.212 -32.363  1.00  0.00    -0.179 NA
HETATM   14  C   UNL     1      -7.104  -0.140 -33.009  1.00  0.00     0.060 A 
HETATM   15  C   UNL     1      -7.182  -0.525 -34.442  1.00  0.00     0.073 C 
ENDBRANCH   6   8
ENDBRANCH   3   6
ENDBRANCH   1   2
BRANCH   1  16
HETATM   16  C   UNL     1      -2.814   4.371 -32.607  1.00  0.00     0.238 C 
BRANCH  16  17
HETATM   17  N   UNL     1      -4.054   5.253 -32.813  1.00  0.00    -0.061 N 
HETATM   18  H   UNL     1      -3.665   6.205 -32.839  1.00  0.00     0.280 HD
HETATM   19  C   UNL     1      -5.113   5.270 -31.744  1.00  0.00     0.236 C 
HETATM   20  C   UNL     1      -6.283   4.538 -32.362  1.00  0.00     0.029 C 
HETATM   21  C   UNL     1      -6.234   4.961 -33.815  1.00  0.00     0.029 C 
HETATM   22  C   UNL     1      -4.757   5.076 -34.144  1.00  0.00     0.236 C 
ENDBRANCH  16  17
BRANCH  16  23
HETATM   23  C   UNL     1      -1.670   5.213 -32.040  1.00  0.00    -0.024 A 
HETATM   24  C   UNL     1      -0.990   4.871 -30.859  1.00  0.00     0.033 A 
HETATM   25  C   UNL     1       0.026   5.691 -30.360  1.00  0.00     0.034 A 
HETATM   26 CL   UNL     1       0.829   5.249 -28.905  1.00  0.00    -0.084 Cl
HETATM   27  C   UNL     1       0.385   6.859 -31.023  1.00  0.00     0.024 A 
HETATM   28  C   UNL     1      -0.280   7.213 -32.195  1.00  0.00     0.002 A 
HETATM   29  C   UNL     1      -1.300   6.401 -32.698  1.00  0.00     0.009 A 
ENDBRANCH  16  23
ENDBRANCH   1  16
TORSDOF 6
ENDMDL
MODEL 7
REMARK VINA RESULT:      -7.9      3.464      6.176
REMARK  6 active torsions:
REMARK  status: ('A' for Active; 'I' for Inactive)
REMARK    1  A    between atoms: C_8  and  C_9 
REMARK    2  A    between atoms: C_9  and  C_10 
REMARK       I    between atoms: C_10  and  N_11 
REMARK    3  A    between atoms: N_11  and  C_12 
REMARK    4  A    between atoms: C_12  and  C_13 
REMARK    5  A    between atoms: C_13  and  N_14 
REMARK    6  A    between atoms: C_13  and  C_20 
ROOT
HETATM    1  C   UNL     1      -5.266   1.378 -30.608  1.00  0.00     0.160 C 
ENDROOT
BRANCH   1   2
HETATM    2  N   UNL     1      -5.085   2.818 -30.767  1.00  0.00    -0.358 N 
HETATM    3  C   UNL     1      -3.916   3.334 -31.303  1.00  0.00     0.226 C 
HETATM    4  O   UNL     1      -2.909   2.641 -31.417  1.00  0.00    -0.273 OA
HETATM    5  H   UNL     1      -5.922   3.339 -31.016  1.00  0.00     0.162 HD
BRANCH   3   6
HETATM    6  C   UNL     1      -3.985   4.824 -31.659  1.00  0.00     0.111 C 
HETATM    7  C   UNL     1      -3.021   5.628 -30.791  1.00  0.00     0.025 C 
BRANCH   6   8
HETATM    8  C   UNL     1      -3.762   5.028 -33.130  1.00  0.00     0.004 A 
HETATM    9  C   UNL     1      -2.578   5.205 -33.829  1.00  0.00     0.033 A 
HETATM   10  C   UNL     1      -1.154   5.251 -33.411  1.00  0.00     0.070 C 
HETATM   11  N   UNL     1      -2.930   5.355 -35.142  1.00  0.00    -0.282 N 
HETATM   12  H   UNL     1      -2.325   5.519 -35.941  1.00  0.00     0.189 HD
HETATM   13  N   UNL     1      -4.246   5.262 -35.355  1.00  0.00    -0.179 NA
HETATM   14  C   UNL     1      -4.771   5.095 -34.140  1.00  0.00     0.060 A 
HETATM   15  C   UNL     1      -6.245   4.995 -33.989  1.00  0.00     0.073 C 
ENDBRANCH   6   8
ENDBRANCH   3   6
ENDBRANCH   1   2
BRANCH   1  16
HETATM   16  C   UNL     1      -6.357   0.660 -31.477  1.00  0.00     0.238 C 
BRANCH  16  17
HETATM   17  N   UNL     1      -7.337   1.599 -32.195  1.00  0.00    -0.061 N 
HETATM   18  H   UNL     1      -7.070   2.529 -31.849  1.00  0.00     0.280 HD
HETATM   19  C   UNL     1      -8.808   1.459 -31.909  1.00  0.00     0.236 C 
HETATM   20  C   UNL     1      -9.385   0.877 -33.180  1.00  0.00     0.029 C 
HETATM   21  C   UNL     1      -8.573   1.544 -34.271  1.00  0.00     0.029 C 
HETATM   22  C   UNL     1      -7.173   1.673 -33.699  1.00  0.00     0.236 C 
ENDBRANCH  16  17
BRANCH  16  23
HETATM   23  C   UNL     1      -5.749  -0.318 -32.483  1.00  0.00    -0.024 A 
HETATM   24  C   UNL     1      -6.509  -1.303 -33.137  1.00  0.00     0.033 A 
HETATM   25  C   UNL     1      -5.901  -2.198 -34.022  1.00  0.00     0.034 A 
HETATM   26 CL   UNL     1      -6.859  -3.398 -34.797  1.00  0.00    -0.084 Cl
HETATM   27  C   UNL     1      -4.536  -2.131 -34.275  1.00  0.00     0.024 A 
HETATM   28  C   UNL     1      -3.768  -1.161 -33.634  1.00  0.00     0.002 A 
HETATM   29  C   UNL     1      -4.366  -0.266 -32.743  1.00  0.00     0.009 A 
ENDBRANCH  16  23
ENDBRANCH   1  16
TORSDOF 6
ENDMDL
MODEL 8
REMARK VINA RESULT:      -7.9      1.768      2.369
REMARK  6 active torsions:
REMARK  status: ('A' for Active; 'I' for Inactive)
REMARK    1  A    between atoms: C_8  and  C_9 
REMARK    2  A    between atoms: C_9  and  C_10 
REMARK       I    between atoms: C_10  and  N_11 
REMARK    3  A    between atoms: N_11  and  C_12 
REMARK    4  A    between atoms: C_12  and  C_13 
REMARK    5  A    between atoms: C_13  and  N_14 
REMARK    6  A    between atoms: C_13  and  C_20 
ROOT
HETATM    1  C   UNL     1      -7.598   0.765 -31.556  1.00  0.00     0.160 C 
ENDROOT
BRANCH   1   2
HETATM    2  N   UNL     1      -8.694   1.699 -31.798  1.00  0.00    -0.358 N 
HETATM    3  C   UNL     1      -9.590   1.492 -32.836  1.00  0.00     0.226 C 
HETATM    4  O   UNL     1      -9.350   0.685 -33.730  1.00  0.00    -0.273 OA
HETATM    5  H   UNL     1      -9.110   2.111 -30.966  1.00  0.00     0.162 HD
BRANCH   3   6
HETATM    6  C   UNL     1     -10.831   2.392 -32.792  1.00  0.00     0.111 C 
HETATM    7  C   UNL     1     -10.492   3.740 -32.163  1.00  0.00     0.025 C 
BRANCH   6   8
HETATM    8  C   UNL     1     -11.444   2.515 -34.157  1.00  0.00     0.004 A 
HETATM    9  C   UNL     1     -11.191   3.439 -35.160  1.00  0.00     0.033 A 
HETATM   10  C   UNL     1     -10.262   4.592 -35.261  1.00  0.00     0.070 C 
HETATM   11  N   UNL     1     -12.023   3.113 -36.195  1.00  0.00    -0.282 N 
HETATM   12  H   UNL     1     -12.124   3.579 -37.092  1.00  0.00     0.189 HD
HETATM   13  N   UNL     1     -12.775   2.035 -35.956  1.00  0.00    -0.179 NA
HETATM   14  C   UNL     1     -12.460   1.677 -34.710  1.00  0.00     0.060 A 
HETATM   15  C   UNL     1     -13.150   0.518 -34.087  1.00  0.00     0.073 C 
ENDBRANCH   6   8
ENDBRANCH   3   6
ENDBRANCH   1   2
BRANCH   1  16
HETATM   16  C   UNL     1      -6.248   0.979 -32.322  1.00  0.00     0.238 C 
BRANCH  16  17
HETATM   17  N   UNL     1      -5.173   1.750 -31.542  1.00  0.00    -0.061 N 
HETATM   18  H   UNL     1      -4.394   1.081 -31.488  1.00  0.00     0.280 HD
HETATM   19  C   UNL     1      -5.465   2.157 -30.123  1.00  0.00     0.236 C 
HETATM   20  C   UNL     1      -5.628   3.659 -30.188  1.00  0.00     0.029 C 
HETATM   21  C   UNL     1      -4.606   4.078 -31.224  1.00  0.00     0.029 C 
HETATM   22  C   UNL     1      -4.605   2.961 -32.253  1.00  0.00     0.236 C 
ENDBRANCH  16  17
BRANCH  16  23
HETATM   23  C   UNL     1      -5.662  -0.333 -32.848  1.00  0.00    -0.024 A 
HETATM   24  C   UNL     1      -4.646  -1.033 -32.175  1.00  0.00     0.033 A 
HETATM   25  C   UNL     1      -4.117  -2.210 -32.713  1.00  0.00     0.034 A 
HETATM   26 CL   UNL     1      -2.866  -3.035 -31.869  1.00  0.00    -0.084 Cl
HETATM   27  C   UNL     1      -4.587  -2.712 -33.921  1.00  0.00     0.024 A 
HETATM   28  C   UNL     1      -5.593  -2.029 -34.601  1.00  0.00     0.002 A 
HETATM   29  C   UNL     1      -6.124  -0.849 -34.073  1.00  0.00     0.009 A 
ENDBRANCH  16  23
ENDBRANCH   1  16
TORSDOF 6
ENDMDL
MODEL 9
REMARK VINA RESULT:      -7.8      4.169      7.227
REMARK  6 active torsions:
REMARK  status: ('A' for Active; 'I' for Inactive)
REMARK    1  A    between atoms: C_8  and  C_9 
REMARK    2  A    between atoms: C_9  and  C_10 
REMARK       I    between atoms: C_10  and  N_11 
REMARK    3  A    between atoms: N_11  and  C_12 
REMARK    4  A    between atoms: C_12  and  C_13 
REMARK    5  A    between atoms: C_13  and  N_14 
REMARK    6  A    between atoms: C_13  and  C_20 
ROOT
HETATM    1  C   UNL     1      -2.959   3.114 -31.684  1.00  0.00     0.160 C 
ENDROOT
BRANCH   1   2
HETATM    2  N   UNL     1      -3.594   1.984 -32.356  1.00  0.00    -0.358 N 
HETATM    3  C   UNL     1      -3.454   0.694 -31.868  1.00  0.00     0.226 C 
HETATM    4  O   UNL     1      -2.598   0.422 -31.031  1.00  0.00    -0.273 OA
HETATM    5  H   UNL     1      -4.504   2.176 -32.768  1.00  0.00     0.162 HD
BRANCH   3   6
HETATM    6  C   UNL     1      -4.394  -0.333 -32.510  1.00  0.00     0.111 C 
HETATM    7  C   UNL     1      -3.971  -1.752 -32.138  1.00  0.00     0.025 C 
BRANCH   6   8
HETATM    8  C   UNL     1      -5.823  -0.033 -32.162  1.00  0.00     0.004 A 
HETATM    9  C   UNL     1      -6.383   0.305 -30.939  1.00  0.00     0.033 A 
HETATM   10  C   UNL     1      -5.810   0.497 -29.583  1.00  0.00     0.070 C 
HETATM   11  N   UNL     1      -7.722   0.465 -31.165  1.00  0.00    -0.282 N 
HETATM   12  H   UNL     1      -8.450   0.700 -30.497  1.00  0.00     0.189 HD
HETATM   13  N   UNL     1      -8.072   0.283 -32.442  1.00  0.00    -0.179 NA
HETATM   14  C   UNL     1      -6.936  -0.051 -33.057  1.00  0.00     0.060 A 
HETATM   15  C   UNL     1      -6.958  -0.372 -34.507  1.00  0.00     0.073 C 
ENDBRANCH   6   8
ENDBRANCH   3   6
ENDBRANCH   1   2
BRANCH   1  16
HETATM   16  C   UNL     1      -3.745   4.467 -31.587  1.00  0.00     0.238 C 
BRANCH  16  17
HETATM   17  N   UNL     1      -3.585   5.399 -32.797  1.00  0.00    -0.061 N 
HETATM   18  H   UNL     1      -4.539   5.463 -33.174  1.00  0.00     0.280 HD
HETATM   19  C   UNL     1      -2.718   4.951 -33.943  1.00  0.00     0.236 C 
HETATM   20  C   UNL     1      -1.500   5.843 -33.865  1.00  0.00     0.029 C 
HETATM   21  C   UNL     1      -2.068   7.175 -33.421  1.00  0.00     0.029 C 
HETATM   22  C   UNL     1      -3.195   6.826 -32.465  1.00  0.00     0.236 C 
ENDBRANCH  16  17
BRANCH  16  23
HETATM   23  C   UNL     1      -5.231   4.257 -31.291  1.00  0.00    -0.024 A 
HETATM   24  C   UNL     1      -6.192   4.107 -32.305  1.00  0.00     0.033 A 
HETATM   25  C   UNL     1      -7.544   3.954 -31.986  1.00  0.00     0.034 A 
HETATM   26 CL   UNL     1      -8.696   3.785 -33.252  1.00  0.00    -0.084 Cl
HETATM   27  C   UNL     1      -7.964   3.943 -30.661  1.00  0.00     0.024 A 
HETATM   28  C   UNL     1      -7.024   4.091 -29.644  1.00  0.00     0.002 A 
HETATM   29  C   UNL     1      -5.671   4.251 -29.954  1.00  0.00     0.009 A 
ENDBRANCH  16  23
ENDBRANCH   1  16
TORSDOF 6
ENDMDL
MODEL 10
REMARK VINA RESULT:      -7.7      4.601      7.592
REMARK  6 active torsions:
REMARK  status: ('A' for Active; 'I' for Inactive)
REMARK    1  A    between atoms: C_8  and  C_9 
REMARK    2  A    between atoms: C_9  and  C_10 
REMARK       I    between atoms: C_10  and  N_11 
REMARK    3  A    between atoms: N_11  and  C_12 
REMARK    4  A    between atoms: C_12  and  C_13 
REMARK    5  A    between atoms: C_13  and  N_14 
REMARK    6  A    between atoms: C_13  and  C_20 
ROOT
HETATM    1  C   UNL     1      -3.320   2.887 -32.397  1.00  0.00     0.160 C 
ENDROOT
BRANCH   1   2
HETATM    2  N   UNL     1      -4.100   1.653 -32.404  1.00  0.00    -0.358 N 
HETATM    3  C   UNL     1      -3.746   0.582 -31.599  1.00  0.00     0.226 C 
HETATM    4  O   UNL     1      -2.643   0.529 -31.061  1.00  0.00    -0.273 OA
HETATM    5  H   UNL     1      -5.104   1.770 -32.521  1.00  0.00     0.162 HD
BRANCH   3   6
HETATM    6  C   UNL     1      -4.805  -0.523 -31.509  1.00  0.00     0.111 C 
HETATM    7  C   UNL     1      -6.189   0.079 -31.284  1.00  0.00     0.025 C 
BRANCH   6   8
HETATM    8  C   UNL     1      -4.741  -1.417 -32.713  1.00  0.00     0.004 A 
HETATM    9  C   UNL     1      -5.423  -1.330 -33.918  1.00  0.00     0.033 A 
HETATM   10  C   UNL     1      -6.419  -0.365 -34.447  1.00  0.00     0.070 C 
HETATM   11  N   UNL     1      -5.008  -2.395 -34.668  1.00  0.00    -0.282 N 
HETATM   12  H   UNL     1      -5.306  -2.661 -35.602  1.00  0.00     0.189 HD
HETATM   13  N   UNL     1      -4.091  -3.152 -34.058  1.00  0.00    -0.179 NA
HETATM   14  C   UNL     1      -3.939  -2.591 -32.857  1.00  0.00     0.060 A 
HETATM   15  C   UNL     1      -3.008  -3.207 -31.877  1.00  0.00     0.073 C 
ENDBRANCH   6   8
ENDBRANCH   3   6
ENDBRANCH   1   2
BRANCH   1  16
HETATM   16  C   UNL     1      -4.023   4.215 -31.949  1.00  0.00     0.238 C 
BRANCH  16  17
HETATM   17  N   UNL     1      -4.009   5.342 -32.992  1.00  0.00    -0.061 N 
HETATM   18  H   UNL     1      -4.951   5.747 -32.915  1.00  0.00     0.280 HD
HETATM   19  C   UNL     1      -3.833   4.980 -34.442  1.00  0.00     0.236 C 
HETATM   20  C   UNL     1      -2.444   5.470 -34.786  1.00  0.00     0.029 C 
HETATM   21  C   UNL     1      -2.317   6.751 -33.988  1.00  0.00     0.029 C 
HETATM   22  C   UNL     1      -3.061   6.486 -32.692  1.00  0.00     0.236 C 
ENDBRANCH  16  17
BRANCH  16  23
HETATM   23  C   UNL     1      -5.454   3.980 -31.462  1.00  0.00    -0.024 A 
HETATM   24  C   UNL     1      -6.560   3.990 -32.329  1.00  0.00     0.033 A 
HETATM   25  C   UNL     1      -7.854   3.806 -31.833  1.00  0.00     0.034 A 
HETATM   26 CL   UNL     1      -9.187   3.836 -32.920  1.00  0.00    -0.084 Cl
HETATM   27  C   UNL     1      -8.072   3.608 -30.474  1.00  0.00     0.024 A 
HETATM   28  C   UNL     1      -6.986   3.597 -29.601  1.00  0.00     0.002 A 
HETATM   29  C   UNL     1      -5.690   3.785 -30.088  1.00  0.00     0.009 A 
ENDBRANCH  16  23
ENDBRANCH   1  16
TORSDOF 6
ENDMDL
