MODEL 1
REMARK VINA RESULT:      -8.5      0.000      0.000
REMARK  8 active torsions:
REMARK  status: ('A' for Active; 'I' for Inactive)
REMARK    1  A    between atoms: S_2  and  C_3 
REMARK    2  A    between atoms: C_4  and  N_5 
REMARK       I    between atoms: N_5  and  C_6 
REMARK    3  A    between atoms: C_6  and  C_7 
REMARK       I    between atoms: C_7  and  N_8 
REMARK    4  A    between atoms: N_8  and  C_9 
REMARK    5  A    between atoms: C_9  and  C_10 
REMARK    6  A    between atoms: C_10  and  C_11 
REMARK    7  A    between atoms: C_13  and  O_14 
REMARK    8  A    between atoms: N_20  and  C_21 
ROOT
HETATM    1  N   UNL     1      -4.898   4.500 -31.434  1.00  0.00    -0.302 N 
HETATM    2  C   UNL     1      -4.777   3.213 -30.812  1.00  0.00     0.315 C 
HETATM    3  O   UNL     1      -5.319   3.073 -29.729  1.00  0.00    -0.262 OA
HETATM    4  H   UNL     1      -5.632   5.082 -31.048  1.00  0.00     0.171 HD
ENDROOT
BRANCH   2   5
HETATM    5  C   UNL     1      -4.115   2.012 -31.532  1.00  0.00     0.309 C 
HETATM    6  N   UNL     1      -5.022   1.108 -32.058  1.00  0.00    -0.353 N 
HETATM    7  H   UNL     1      -6.012   1.338 -31.994  1.00  0.00     0.162 HD
HETATM    8  O   UNL     1      -2.902   1.926 -31.643  1.00  0.00    -0.262 OA
BRANCH   6   9
HETATM    9  C   UNL     1      -4.598   0.039 -32.943  1.00  0.00     0.128 C 
BRANCH   9  10
HETATM   10  C   UNL     1      -5.718  -0.402 -33.885  1.00  0.00     0.058 C 
BRANCH  10  11
HETATM   11  C   UNL     1      -5.667  -1.881 -34.168  1.00  0.00    -0.054 A 
HETATM   12  C   UNL     1      -4.478  -2.600 -33.977  1.00  0.00     0.043 A 
HETATM   13  C   UNL     1      -4.442  -3.965 -34.258  1.00  0.00     0.066 A 
HETATM   14  C   UNL     1      -5.567  -4.627 -34.731  1.00  0.00     0.036 A 
HETATM   15  C   UNL     1      -6.750  -3.919 -34.929  1.00  0.00     0.003 A 
HETATM   16  C   UNL     1      -6.801  -2.551 -34.650  1.00  0.00     0.007 A 
BRANCH  13  17
HETATM   17  O   UNL     1      -3.307  -4.697 -34.078  1.00  0.00    -0.361 OA
HETATM   18  H   UNL     1      -3.320  -5.089 -33.189  1.00  0.00     0.217 HD
ENDBRANCH  13  17
ENDBRANCH  10  11
ENDBRANCH   9  10
ENDBRANCH   6   9
ENDBRANCH   2   5
BRANCH   1  19
HETATM   19  C   UNL     1      -4.484   4.750 -32.735  1.00  0.00     0.150 A 
HETATM   20  C   UNL     1      -5.285   4.529 -33.832  1.00  0.00     0.065 A 
HETATM   21  C   UNL     1      -4.500   4.884 -34.936  1.00  0.00     0.161 A 
HETATM   22  N   UNL     1      -3.285   5.301 -34.584  1.00  0.00    -0.176 NA
HETATM   23  N   UNL     1      -3.274   5.256 -33.219  1.00  0.00    -0.216 N 
BRANCH  20  24
HETATM   24  S   UNL     1      -6.911   3.900 -33.827  1.00  0.00    -0.129 SA
HETATM   25  C   UNL     1      -7.850   5.352 -33.288  1.00  0.00     0.096 C 
ENDBRANCH  20  24
BRANCH  23  26
HETATM   26  C   UNL     1      -2.153   5.769 -32.500  1.00  0.00     0.060 A 
HETATM   27  C   UNL     1      -1.138   4.938 -32.007  1.00  0.00     0.031 A 
HETATM   28  C   UNL     1      -0.067   5.485 -31.292  1.00  0.00     0.002 A 
HETATM   29  C   UNL     1      -0.003   6.857 -31.056  1.00  0.00     0.000 A 
HETATM   30  C   UNL     1      -1.012   7.689 -31.532  1.00  0.00     0.002 A 
HETATM   31  C   UNL     1      -2.082   7.151 -32.249  1.00  0.00     0.031 A 
ENDBRANCH  23  26
ENDBRANCH   1  19
TORSDOF 8
ENDMDL
MODEL 2
REMARK VINA RESULT:      -8.4      2.064      4.744
REMARK  8 active torsions:
REMARK  status: ('A' for Active; 'I' for Inactive)
REMARK    1  A    between atoms: S_2  and  C_3 
REMARK    2  A    between atoms: C_4  and  N_5 
REMARK       I    between atoms: N_5  and  C_6 
REMARK    3  A    between atoms: C_6  and  C_7 
REMARK       I    between atoms: C_7  and  N_8 
REMARK    4  A    between atoms: N_8  and  C_9 
REMARK    5  A    between atoms: C_9  and  C_10 
REMARK    6  A    between atoms: C_10  and  C_11 
REMARK    7  A    between atoms: C_13  and  O_14 
REMARK    8  A    between atoms: N_20  and  C_21 
ROOT
HETATM    1  N   UNL     1      -5.804   3.448 -31.053  1.00  0.00    -0.302 N 
HETATM    2  C   UNL     1      -5.212   2.270 -30.487  1.00  0.00     0.315 C 
HETATM    3  O   UNL     1      -5.673   1.879 -29.427  1.00  0.00    -0.262 OA
HETATM    4  H   UNL     1      -6.708   3.689 -30.663  1.00  0.00     0.171 HD
ENDROOT
BRANCH   2   5
HETATM    5  C   UNL     1      -4.138   1.448 -31.240  1.00  0.00     0.309 C 
HETATM    6  N   UNL     1      -4.563   0.185 -31.615  1.00  0.00    -0.353 N 
HETATM    7  H   UNL     1      -5.535  -0.061 -31.436  1.00  0.00     0.162 HD
HETATM    8  O   UNL     1      -3.042   1.919 -31.499  1.00  0.00    -0.262 OA
BRANCH   6   9
HETATM    9  C   UNL     1      -3.774  -0.646 -32.507  1.00  0.00     0.128 C 
BRANCH   9  10
HETATM   10  C   UNL     1      -4.540  -1.005 -33.780  1.00  0.00     0.058 C 
BRANCH  10  11
HETATM   11  C   UNL     1      -4.640  -2.496 -33.976  1.00  0.00    -0.054 A 
HETATM   12  C   UNL     1      -5.727  -3.050 -34.668  1.00  0.00     0.043 A 
HETATM   13  C   UNL     1      -5.814  -4.431 -34.828  1.00  0.00     0.066 A 
HETATM   14  C   UNL     1      -4.840  -5.273 -34.306  1.00  0.00     0.036 A 
HETATM   15  C   UNL     1      -3.761  -4.731 -33.613  1.00  0.00     0.003 A 
HETATM   16  C   UNL     1      -3.660  -3.348 -33.446  1.00  0.00     0.007 A 
BRANCH  13  17
HETATM   17  O   UNL     1      -6.852  -5.005 -35.499  1.00  0.00    -0.361 OA
HETATM   18  H   UNL     1      -7.337  -5.588 -34.892  1.00  0.00     0.217 HD
ENDBRANCH  13  17
ENDBRANCH  10  11
ENDBRANCH   9  10
ENDBRANCH   6   9
ENDBRANCH   2   5
BRANCH   1  19
HETATM   19  C   UNL     1      -5.502   3.905 -32.328  1.00  0.00     0.150 A 
HETATM   20  C   UNL     1      -4.514   4.831 -32.578  1.00  0.00     0.065 A 
HETATM   21  C   UNL     1      -4.541   5.031 -33.964  1.00  0.00     0.161 A 
HETATM   22  N   UNL     1      -5.474   4.294 -34.566  1.00  0.00    -0.176 NA
HETATM   23  N   UNL     1      -6.053   3.564 -33.567  1.00  0.00    -0.216 N 
BRANCH  20  24
HETATM   24  S   UNL     1      -3.490   5.607 -31.400  1.00  0.00    -0.129 SA
HETATM   25  C   UNL     1      -1.845   5.191 -32.032  1.00  0.00     0.096 C 
ENDBRANCH  20  24
BRANCH  23  26
HETATM   26  C   UNL     1      -7.015   2.560 -33.887  1.00  0.00     0.060 A 
HETATM   27  C   UNL     1      -8.304   2.559 -33.336  1.00  0.00     0.031 A 
HETATM   28  C   UNL     1      -9.207   1.542 -33.665  1.00  0.00     0.002 A 
HETATM   29  C   UNL     1      -8.833   0.520 -34.535  1.00  0.00     0.000 A 
HETATM   30  C   UNL     1      -7.552   0.507 -35.077  1.00  0.00     0.002 A 
HETATM   31  C   UNL     1      -6.646   1.519 -34.756  1.00  0.00     0.031 A 
ENDBRANCH  23  26
ENDBRANCH   1  19
TORSDOF 8
ENDMDL
MODEL 3
REMARK VINA RESULT:      -8.2      2.615      7.786
REMARK  8 active torsions:
REMARK  status: ('A' for Active; 'I' for Inactive)
REMARK    1  A    between atoms: S_2  and  C_3 
REMARK    2  A    between atoms: C_4  and  N_5 
REMARK       I    between atoms: N_5  and  C_6 
REMARK    3  A    between atoms: C_6  and  C_7 
REMARK       I    between atoms: C_7  and  N_8 
REMARK    4  A    between atoms: N_8  and  C_9 
REMARK    5  A    between atoms: C_9  and  C_10 
REMARK    6  A    between atoms: C_10  and  C_11 
REMARK    7  A    between atoms: C_13  and  O_14 
REMARK    8  A    between atoms: N_20  and  C_21 
ROOT
HETATM    1  N   UNL     1      -7.435   0.352 -31.050  1.00  0.00    -0.302 N 
HETATM    2  C   UNL     1      -6.320   1.024 -30.447  1.00  0.00     0.315 C 
HETATM    3  O   UNL     1      -5.933   0.590 -29.374  1.00  0.00    -0.262 OA
HETATM    4  H   UNL     1      -7.627  -0.566 -30.665  1.00  0.00     0.171 HD
ENDROOT
BRANCH   2   5
HETATM    5  C   UNL     1      -5.549   2.151 -31.175  1.00  0.00     0.309 C 
HETATM    6  N   UNL     1      -4.224   1.844 -31.434  1.00  0.00    -0.353 N 
HETATM    7  H   UNL     1      -3.899   0.908 -31.198  1.00  0.00     0.162 HD
HETATM    8  O   UNL     1      -6.102   3.185 -31.513  1.00  0.00    -0.262 OA
BRANCH   6   9
HETATM    9  C   UNL     1      -3.405   2.684 -32.289  1.00  0.00     0.128 C 
BRANCH   9  10
HETATM   10  C   UNL     1      -2.746   3.823 -31.510  1.00  0.00     0.058 C 
BRANCH  10  11
HETATM   11  C   UNL     1      -2.287   4.935 -32.417  1.00  0.00    -0.054 A 
HETATM   12  C   UNL     1      -2.306   6.265 -31.974  1.00  0.00     0.043 A 
HETATM   13  C   UNL     1      -1.894   7.286 -32.829  1.00  0.00     0.066 A 
HETATM   14  C   UNL     1      -1.468   7.006 -34.121  1.00  0.00     0.036 A 
HETATM   15  C   UNL     1      -1.451   5.687 -34.570  1.00  0.00     0.003 A 
HETATM   16  C   UNL     1      -1.861   4.655 -33.724  1.00  0.00     0.007 A 
BRANCH  13  17
HETATM   17  O   UNL     1      -1.893   8.589 -32.432  1.00  0.00    -0.361 OA
HETATM   18  H   UNL     1      -0.978   8.916 -32.422  1.00  0.00     0.217 HD
ENDBRANCH  13  17
ENDBRANCH  10  11
ENDBRANCH   9  10
ENDBRANCH   6   9
ENDBRANCH   2   5
BRANCH   1  19
HETATM   19  C   UNL     1      -7.870   0.623 -32.340  1.00  0.00     0.150 A 
HETATM   20  C   UNL     1      -8.765   1.627 -32.634  1.00  0.00     0.065 A 
HETATM   21  C   UNL     1      -8.951   1.557 -34.020  1.00  0.00     0.161 A 
HETATM   22  N   UNL     1      -8.234   0.584 -34.581  1.00  0.00    -0.176 NA
HETATM   23  N   UNL     1      -7.532   0.020 -33.555  1.00  0.00    -0.216 N 
BRANCH  20  24
HETATM   24  S   UNL     1      -9.525   2.712 -31.501  1.00  0.00    -0.129 SA
HETATM   25  C   UNL     1      -9.608   4.237 -32.474  1.00  0.00     0.096 C 
ENDBRANCH  20  24
BRANCH  23  26
HETATM   26  C   UNL     1      -6.553  -0.981 -33.829  1.00  0.00     0.060 A 
HETATM   27  C   UNL     1      -5.201  -0.813 -33.499  1.00  0.00     0.031 A 
HETATM   28  C   UNL     1      -4.274  -1.815 -33.806  1.00  0.00     0.002 A 
HETATM   29  C   UNL     1      -4.681  -2.982 -34.447  1.00  0.00     0.000 A 
HETATM   30  C   UNL     1      -6.019  -3.153 -34.789  1.00  0.00     0.002 A 
HETATM   31  C   UNL     1      -6.952  -2.159 -34.484  1.00  0.00     0.031 A 
ENDBRANCH  23  26
ENDBRANCH   1  19
TORSDOF 8
ENDMDL
MODEL 4
REMARK VINA RESULT:      -8.1      1.974      8.181
REMARK  8 active torsions:
REMARK  status: ('A' for Active; 'I' for Inactive)
REMARK    1  A    between atoms: S_2  and  C_3 
REMARK    2  A    between atoms: C_4  and  N_5 
REMARK       I    between atoms: N_5  and  C_6 
REMARK    3  A    between atoms: C_6  and  C_7 
REMARK       I    between atoms: C_7  and  N_8 
REMARK    4  A    between atoms: N_8  and  C_9 
REMARK    5  A    between atoms: C_9  and  C_10 
REMARK    6  A    between atoms: C_10  and  C_11 
REMARK    7  A    between atoms: C_13  and  O_14 
REMARK    8  A    between atoms: N_20  and  C_21 
ROOT
HETATM    1  N   UNL     1      -6.375  -0.098 -31.849  1.00  0.00    -0.302 N 
HETATM    2  C   UNL     1      -5.127   0.321 -31.278  1.00  0.00     0.315 C 
HETATM    3  O   UNL     1      -4.908  -0.020 -30.128  1.00  0.00    -0.262 OA
HETATM    4  H   UNL     1      -6.834  -0.847 -31.343  1.00  0.00     0.171 HD
ENDROOT
BRANCH   2   5
HETATM    5  C   UNL     1      -4.045   1.047 -32.114  1.00  0.00     0.309 C 
HETATM    6  N   UNL     1      -4.077   2.425 -31.992  1.00  0.00    -0.353 N 
HETATM    7  H   UNL     1      -4.738   2.827 -31.330  1.00  0.00     0.162 HD
HETATM    8  O   UNL     1      -3.228   0.425 -32.775  1.00  0.00    -0.262 OA
BRANCH   6   9
HETATM    9  C   UNL     1      -3.016   3.258 -32.530  1.00  0.00     0.128 C 
BRANCH   9  10
HETATM   10  C   UNL     1      -3.211   4.732 -32.177  1.00  0.00     0.058 C 
BRANCH  10  11
HETATM   11  C   UNL     1      -1.936   5.368 -31.689  1.00  0.00    -0.054 A 
HETATM   12  C   UNL     1      -0.888   4.574 -31.201  1.00  0.00     0.043 A 
HETATM   13  C   UNL     1       0.280   5.177 -30.738  1.00  0.00     0.066 A 
HETATM   14  C   UNL     1       0.421   6.559 -30.746  1.00  0.00     0.036 A 
HETATM   15  C   UNL     1      -0.617   7.355 -31.223  1.00  0.00     0.003 A 
HETATM   16  C   UNL     1      -1.792   6.763 -31.692  1.00  0.00     0.007 A 
BRANCH  13  17
HETATM   17  O   UNL     1       1.322   4.438 -30.263  1.00  0.00    -0.361 OA
HETATM   18  H   UNL     1       2.040   4.448 -30.917  1.00  0.00     0.217 HD
ENDBRANCH  13  17
ENDBRANCH  10  11
ENDBRANCH   9  10
ENDBRANCH   6   9
ENDBRANCH   2   5
BRANCH   1  19
HETATM   19  C   UNL     1      -6.682   0.067 -33.192  1.00  0.00     0.150 A 
HETATM   20  C   UNL     1      -7.167   1.246 -33.712  1.00  0.00     0.065 A 
HETATM   21  C   UNL     1      -7.360   0.993 -35.075  1.00  0.00     0.161 A 
HETATM   22  N   UNL     1      -7.029  -0.252 -35.414  1.00  0.00    -0.176 NA
HETATM   23  N   UNL     1      -6.573  -0.827 -34.262  1.00  0.00    -0.216 N 
BRANCH  20  24
HETATM   24  S   UNL     1      -7.501   2.714 -32.832  1.00  0.00    -0.129 SA
HETATM   25  C   UNL     1      -6.690   3.947 -33.881  1.00  0.00     0.096 C 
ENDBRANCH  20  24
BRANCH  23  26
HETATM   26  C   UNL     1      -6.007  -2.135 -34.297  1.00  0.00     0.060 A 
HETATM   27  C   UNL     1      -4.668  -2.379 -33.960  1.00  0.00     0.031 A 
HETATM   28  C   UNL     1      -4.152  -3.678 -34.028  1.00  0.00     0.002 A 
HETATM   29  C   UNL     1      -4.958  -4.738 -34.437  1.00  0.00     0.000 A 
HETATM   30  C   UNL     1      -6.285  -4.504 -34.784  1.00  0.00     0.002 A 
HETATM   31  C   UNL     1      -6.809  -3.211 -34.717  1.00  0.00     0.031 A 
ENDBRANCH  23  26
ENDBRANCH   1  19
TORSDOF 8
ENDMDL
MODEL 5
REMARK VINA RESULT:      -8.1      4.363      7.314
REMARK  8 active torsions:
REMARK  status: ('A' for Active; 'I' for Inactive)
REMARK    1  A    between atoms: S_2  and  C_3 
REMARK    2  A    between atoms: C_4  and  N_5 
REMARK       I    between atoms: N_5  and  C_6 
REMARK    3  A    between atoms: C_6  and  C_7 
REMARK       I    between atoms: C_7  and  N_8 
REMARK    4  A    between atoms: N_8  and  C_9 
REMARK    5  A    between atoms: C_9  and  C_10 
REMARK    6  A    between atoms: C_10  and  C_11 
REMARK    7  A    between atoms: C_13  and  O_14 
REMARK    8  A    between atoms: N_20  and  C_21 
ROOT
HETATM    1  N   UNL     1      -9.867   2.234 -31.635  1.00  0.00    -0.302 N 
HETATM    2  C   UNL     1      -9.075   1.057 -31.848  1.00  0.00     0.315 C 
HETATM    3  O   UNL     1      -9.023   0.256 -30.929  1.00  0.00    -0.262 OA
HETATM    4  H   UNL     1     -10.511   2.168 -30.855  1.00  0.00     0.171 HD
ENDROOT
BRANCH   2   5
HETATM    5  C   UNL     1      -8.431   0.738 -33.220  1.00  0.00     0.309 C 
HETATM    6  N   UNL     1      -7.047   0.723 -33.197  1.00  0.00    -0.353 N 
HETATM    7  H   UNL     1      -6.587   0.845 -32.297  1.00  0.00     0.162 HD
HETATM    8  O   UNL     1      -9.114   0.486 -34.200  1.00  0.00    -0.262 OA
BRANCH   6   9
HETATM    9  C   UNL     1      -6.277   0.241 -34.329  1.00  0.00     0.128 C 
BRANCH   9  10
HETATM   10  C   UNL     1      -5.100  -0.631 -33.889  1.00  0.00     0.058 C 
BRANCH  10  11
HETATM   11  C   UNL     1      -5.339  -2.089 -34.180  1.00  0.00    -0.054 A 
HETATM   12  C   UNL     1      -4.308  -3.025 -34.013  1.00  0.00     0.043 A 
HETATM   13  C   UNL     1      -4.539  -4.369 -34.302  1.00  0.00     0.066 A 
HETATM   14  C   UNL     1      -5.778  -4.798 -34.758  1.00  0.00     0.036 A 
HETATM   15  C   UNL     1      -6.806  -3.874 -34.932  1.00  0.00     0.003 A 
HETATM   16  C   UNL     1      -6.589  -2.525 -34.646  1.00  0.00     0.007 A 
BRANCH  13  17
HETATM   17  O   UNL     1      -3.563  -5.307 -34.146  1.00  0.00    -0.361 OA
HETATM   18  H   UNL     1      -3.809  -5.900 -33.417  1.00  0.00     0.217 HD
ENDBRANCH  13  17
ENDBRANCH  10  11
ENDBRANCH   9  10
ENDBRANCH   6   9
ENDBRANCH   2   5
BRANCH   1  19
HETATM   19  C   UNL     1     -10.157   3.141 -32.645  1.00  0.00     0.150 A 
HETATM   20  C   UNL     1      -9.280   4.124 -33.045  1.00  0.00     0.065 A 
HETATM   21  C   UNL     1      -9.949   4.822 -34.057  1.00  0.00     0.161 A 
HETATM   22  N   UNL     1     -11.165   4.333 -34.294  1.00  0.00    -0.176 NA
HETATM   23  N   UNL     1     -11.293   3.267 -33.450  1.00  0.00    -0.216 N 
BRANCH  20  24
HETATM   24  S   UNL     1      -7.696   4.439 -32.387  1.00  0.00    -0.129 SA
HETATM   25  C   UNL     1      -6.669   4.340 -33.875  1.00  0.00     0.096 C 
ENDBRANCH  20  24
BRANCH  23  26
HETATM   26  C   UNL     1     -12.440   2.424 -33.538  1.00  0.00     0.060 A 
HETATM   27  C   UNL     1     -12.448   1.251 -34.304  1.00  0.00     0.031 A 
HETATM   28  C   UNL     1     -13.604   0.465 -34.375  1.00  0.00     0.002 A 
HETATM   29  C   UNL     1     -14.758   0.845 -33.693  1.00  0.00     0.000 A 
HETATM   30  C   UNL     1     -14.764   2.014 -32.939  1.00  0.00     0.002 A 
HETATM   31  C   UNL     1     -13.613   2.801 -32.860  1.00  0.00     0.031 A 
ENDBRANCH  23  26
ENDBRANCH   1  19
TORSDOF 8
ENDMDL
MODEL 6
REMARK VINA RESULT:      -8.1      2.851      7.853
REMARK  8 active torsions:
REMARK  status: ('A' for Active; 'I' for Inactive)
REMARK    1  A    between atoms: S_2  and  C_3 
REMARK    2  A    between atoms: C_4  and  N_5 
REMARK       I    between atoms: N_5  and  C_6 
REMARK    3  A    between atoms: C_6  and  C_7 
REMARK       I    between atoms: C_7  and  N_8 
REMARK    4  A    between atoms: N_8  and  C_9 
REMARK    5  A    between atoms: C_9  and  C_10 
REMARK    6  A    between atoms: C_10  and  C_11 
REMARK    7  A    between atoms: C_13  and  O_14 
REMARK    8  A    between atoms: N_20  and  C_21 
ROOT
HETATM    1  N   UNL     1      -5.131   4.567 -33.837  1.00  0.00    -0.302 N 
HETATM    2  C   UNL     1      -3.963   5.020 -34.538  1.00  0.00     0.315 C 
HETATM    3  O   UNL     1      -4.124   5.395 -35.687  1.00  0.00    -0.262 OA
HETATM    4  H   UNL     1      -6.007   4.845 -34.264  1.00  0.00     0.171 HD
ENDROOT
BRANCH   2   5
HETATM    5  C   UNL     1      -2.590   5.163 -33.837  1.00  0.00     0.309 C 
HETATM    6  N   UNL     1      -2.046   6.434 -33.929  1.00  0.00    -0.353 N 
HETATM    7  H   UNL     1      -2.609   7.159 -34.369  1.00  0.00     0.162 HD
HETATM    8  O   UNL     1      -2.083   4.232 -33.233  1.00  0.00    -0.262 OA
BRANCH   6   9
HETATM    9  C   UNL     1      -0.874   6.813 -33.161  1.00  0.00     0.128 C 
BRANCH   9  10
HETATM   10  C   UNL     1      -1.245   7.582 -31.894  1.00  0.00     0.058 C 
BRANCH  10  11
HETATM   11  C   UNL     1      -0.581   7.007 -30.670  1.00  0.00    -0.054 A 
HETATM   12  C   UNL     1      -0.072   5.700 -30.686  1.00  0.00     0.043 A 
HETATM   13  C   UNL     1       0.526   5.176 -29.542  1.00  0.00     0.066 A 
HETATM   14  C   UNL     1       0.622   5.928 -28.378  1.00  0.00     0.036 A 
HETATM   15  C   UNL     1       0.114   7.225 -28.352  1.00  0.00     0.003 A 
HETATM   16  C   UNL     1      -0.487   7.763 -29.492  1.00  0.00     0.007 A 
BRANCH  13  17
HETATM   17  O   UNL     1       1.037   3.913 -29.522  1.00  0.00    -0.361 OA
HETATM   18  H   UNL     1       0.413   3.313 -29.963  1.00  0.00     0.217 HD
ENDBRANCH  13  17
ENDBRANCH  10  11
ENDBRANCH   9  10
ENDBRANCH   6   9
ENDBRANCH   2   5
BRANCH   1  19
HETATM   19  C   UNL     1      -5.129   4.278 -32.480  1.00  0.00     0.150 A 
HETATM   20  C   UNL     1      -5.393   5.220 -31.512  1.00  0.00     0.065 A 
HETATM   21  C   UNL     1      -5.276   4.538 -30.294  1.00  0.00     0.161 A 
HETATM   22  N   UNL     1      -4.959   3.254 -30.459  1.00  0.00    -0.176 NA
HETATM   23  N   UNL     1      -4.900   3.071 -31.811  1.00  0.00    -0.216 N 
BRANCH  20  24
HETATM   24  S   UNL     1      -5.753   6.907 -31.769  1.00  0.00    -0.129 SA
HETATM   25  C   UNL     1      -4.713   7.686 -30.508  1.00  0.00     0.096 C 
ENDBRANCH  20  24
BRANCH  23  26
HETATM   26  C   UNL     1      -4.710   1.761 -32.343  1.00  0.00     0.060 A 
HETATM   27  C   UNL     1      -3.502   1.066 -32.204  1.00  0.00     0.031 A 
HETATM   28  C   UNL     1      -3.357  -0.210 -32.759  1.00  0.00     0.002 A 
HETATM   29  C   UNL     1      -4.407  -0.798 -33.461  1.00  0.00     0.000 A 
HETATM   30  C   UNL     1      -5.607  -0.111 -33.615  1.00  0.00     0.002 A 
HETATM   31  C   UNL     1      -5.761   1.162 -33.061  1.00  0.00     0.031 A 
ENDBRANCH  23  26
ENDBRANCH   1  19
TORSDOF 8
ENDMDL
MODEL 7
REMARK VINA RESULT:      -7.8      2.291      7.692
REMARK  8 active torsions:
REMARK  status: ('A' for Active; 'I' for Inactive)
REMARK    1  A    between atoms: S_2  and  C_3 
REMARK    2  A    between atoms: C_4  and  N_5 
REMARK       I    between atoms: N_5  and  C_6 
REMARK    3  A    between atoms: C_6  and  C_7 
REMARK       I    between atoms: C_7  and  N_8 
REMARK    4  A    between atoms: N_8  and  C_9 
REMARK    5  A    between atoms: C_9  and  C_10 
REMARK    6  A    between atoms: C_10  and  C_11 
REMARK    7  A    between atoms: C_13  and  O_14 
REMARK    8  A    between atoms: N_20  and  C_21 
ROOT
HETATM    1  N   UNL     1      -6.445   1.457 -30.958  1.00  0.00    -0.302 N 
HETATM    2  C   UNL     1      -5.474   2.414 -31.404  1.00  0.00     0.315 C 
HETATM    3  O   UNL     1      -4.488   2.565 -30.701  1.00  0.00    -0.262 OA
HETATM    4  H   UNL     1      -6.104   0.815 -30.251  1.00  0.00     0.171 HD
ENDROOT
BRANCH   2   5
HETATM    5  C   UNL     1      -5.590   3.122 -32.776  1.00  0.00     0.309 C 
HETATM    6  N   UNL     1      -5.252   4.465 -32.741  1.00  0.00    -0.353 N 
HETATM    7  H   UNL     1      -4.898   4.842 -31.865  1.00  0.00     0.162 HD
HETATM    8  O   UNL     1      -5.911   2.511 -33.783  1.00  0.00    -0.262 OA
BRANCH   6   9
HETATM    9  C   UNL     1      -5.098   5.238 -33.961  1.00  0.00     0.128 C 
BRANCH   9  10
HETATM   10  C   UNL     1      -3.723   5.034 -34.596  1.00  0.00     0.058 C 
BRANCH  10  11
HETATM   11  C   UNL     1      -2.618   5.605 -33.745  1.00  0.00    -0.054 A 
HETATM   12  C   UNL     1      -1.886   4.776 -32.883  1.00  0.00     0.043 A 
HETATM   13  C   UNL     1      -0.878   5.321 -32.090  1.00  0.00     0.066 A 
HETATM   14  C   UNL     1      -0.588   6.679 -32.136  1.00  0.00     0.036 A 
HETATM   15  C   UNL     1      -1.315   7.510 -32.986  1.00  0.00     0.003 A 
HETATM   16  C   UNL     1      -2.327   6.977 -33.787  1.00  0.00     0.007 A 
BRANCH  13  17
HETATM   17  O   UNL     1      -0.141   4.546 -31.245  1.00  0.00    -0.361 OA
HETATM   18  H   UNL     1       0.153   5.089 -30.494  1.00  0.00     0.217 HD
ENDBRANCH  13  17
ENDBRANCH  10  11
ENDBRANCH   9  10
ENDBRANCH   6   9
ENDBRANCH   2   5
BRANCH   1  19
HETATM   19  C   UNL     1      -7.522   1.058 -31.736  1.00  0.00     0.150 A 
HETATM   20  C   UNL     1      -8.745   1.689 -31.704  1.00  0.00     0.065 A 
HETATM   21  C   UNL     1      -9.548   0.980 -32.606  1.00  0.00     0.161 A 
HETATM   22  N   UNL     1      -8.897  -0.032 -33.179  1.00  0.00    -0.176 NA
HETATM   23  N   UNL     1      -7.629   0.027 -32.674  1.00  0.00    -0.216 N 
BRANCH  20  24
HETATM   24  S   UNL     1      -9.190   3.052 -30.711  1.00  0.00    -0.129 SA
HETATM   25  C   UNL     1      -8.933   4.426 -31.861  1.00  0.00     0.096 C 
ENDBRANCH  20  24
BRANCH  23  26
HETATM   26  C   UNL     1      -6.621  -0.845 -33.182  1.00  0.00     0.060 A 
HETATM   27  C   UNL     1      -5.341  -0.917 -32.617  1.00  0.00     0.031 A 
HETATM   28  C   UNL     1      -4.379  -1.774 -33.162  1.00  0.00     0.002 A 
HETATM   29  C   UNL     1      -4.680  -2.556 -34.275  1.00  0.00     0.000 A 
HETATM   30  C   UNL     1      -5.944  -2.483 -34.851  1.00  0.00     0.002 A 
HETATM   31  C   UNL     1      -6.911  -1.633 -34.310  1.00  0.00     0.031 A 
ENDBRANCH  23  26
ENDBRANCH   1  19
TORSDOF 8
ENDMDL
MODEL 8
REMARK VINA RESULT:      -7.8      3.124      4.403
REMARK  8 active torsions:
REMARK  status: ('A' for Active; 'I' for Inactive)
REMARK    1  A    between atoms: S_2  and  C_3 
REMARK    2  A    between atoms: C_4  and  N_5 
REMARK       I    between atoms: N_5  and  C_6 
REMARK    3  A    between atoms: C_6  and  C_7 
REMARK       I    between atoms: C_7  and  N_8 
REMARK    4  A    between atoms: N_8  and  C_9 
REMARK    5  A    between atoms: C_9  and  C_10 
REMARK    6  A    between atoms: C_10  and  C_11 
REMARK    7  A    between atoms: C_13  and  O_14 
REMARK    8  A    between atoms: N_20  and  C_21 
ROOT
HETATM    1  N   UNL     1      -5.863   5.188 -32.589  1.00  0.00    -0.302 N 
HETATM    2  C   UNL     1      -6.097   4.445 -33.794  1.00  0.00     0.315 C 
HETATM    3  O   UNL     1      -5.388   4.712 -34.750  1.00  0.00    -0.262 OA
HETATM    4  H   UNL     1      -4.971   5.671 -32.563  1.00  0.00     0.171 HD
ENDROOT
BRANCH   2   5
HETATM    5  C   UNL     1      -7.099   3.266 -33.849  1.00  0.00     0.309 C 
HETATM    6  N   UNL     1      -6.494   2.023 -33.928  1.00  0.00    -0.353 N 
HETATM    7  H   UNL     1      -5.479   1.986 -33.869  1.00  0.00     0.162 HD
HETATM    8  O   UNL     1      -8.304   3.451 -33.785  1.00  0.00    -0.262 OA
BRANCH   6   9
HETATM    9  C   UNL     1      -7.259   0.798 -33.777  1.00  0.00     0.128 C 
BRANCH   9  10
HETATM   10  C   UNL     1      -7.152  -0.098 -35.010  1.00  0.00     0.058 C 
BRANCH  10  11
HETATM   11  C   UNL     1      -6.352  -1.344 -34.733  1.00  0.00    -0.054 A 
HETATM   12  C   UNL     1      -6.858  -2.605 -35.080  1.00  0.00     0.043 A 
HETATM   13  C   UNL     1      -6.114  -3.750 -34.803  1.00  0.00     0.066 A 
HETATM   14  C   UNL     1      -4.875  -3.664 -34.181  1.00  0.00     0.036 A 
HETATM   15  C   UNL     1      -4.368  -2.416 -33.828  1.00  0.00     0.003 A 
HETATM   16  C   UNL     1      -5.102  -1.260 -34.100  1.00  0.00     0.007 A 
BRANCH  13  17
HETATM   17  O   UNL     1      -6.571  -4.992 -35.132  1.00  0.00    -0.361 OA
HETATM   18  H   UNL     1      -7.426  -5.139 -34.694  1.00  0.00     0.217 HD
ENDBRANCH  13  17
ENDBRANCH  10  11
ENDBRANCH   9  10
ENDBRANCH   6   9
ENDBRANCH   2   5
BRANCH   1  19
HETATM   19  C   UNL     1      -6.470   4.876 -31.381  1.00  0.00     0.150 A 
HETATM   20  C   UNL     1      -7.466   5.644 -30.822  1.00  0.00     0.065 A 
HETATM   21  C   UNL     1      -7.789   5.006 -29.618  1.00  0.00     0.161 A 
HETATM   22  N   UNL     1      -7.059   3.910 -29.411  1.00  0.00    -0.176 NA
HETATM   23  N   UNL     1      -6.262   3.799 -30.514  1.00  0.00    -0.216 N 
BRANCH  20  24
HETATM   24  S   UNL     1      -8.136   7.117 -31.471  1.00  0.00    -0.129 SA
HETATM   25  C   UNL     1      -9.358   6.465 -32.638  1.00  0.00     0.096 C 
ENDBRANCH  20  24
BRANCH  23  26
HETATM   26  C   UNL     1      -5.437   2.646 -30.681  1.00  0.00     0.060 A 
HETATM   27  C   UNL     1      -4.127   2.730 -31.172  1.00  0.00     0.031 A 
HETATM   28  C   UNL     1      -3.363   1.569 -31.336  1.00  0.00     0.002 A 
HETATM   29  C   UNL     1      -3.898   0.322 -31.022  1.00  0.00     0.000 A 
HETATM   30  C   UNL     1      -5.202   0.227 -30.546  1.00  0.00     0.002 A 
HETATM   31  C   UNL     1      -5.970   1.382 -30.376  1.00  0.00     0.031 A 
ENDBRANCH  23  26
ENDBRANCH   1  19
TORSDOF 8
ENDMDL
MODEL 9
REMARK VINA RESULT:      -7.6      2.851      5.656
REMARK  8 active torsions:
REMARK  status: ('A' for Active; 'I' for Inactive)
REMARK    1  A    between atoms: S_2  and  C_3 
REMARK    2  A    between atoms: C_4  and  N_5 
REMARK       I    between atoms: N_5  and  C_6 
REMARK    3  A    between atoms: C_6  and  C_7 
REMARK       I    between atoms: C_7  and  N_8 
REMARK    4  A    between atoms: N_8  and  C_9 
REMARK    5  A    between atoms: C_9  and  C_10 
REMARK    6  A    between atoms: C_10  and  C_11 
REMARK    7  A    between atoms: C_13  and  O_14 
REMARK    8  A    between atoms: N_20  and  C_21 
ROOT
HETATM    1  N   UNL     1      -7.052   4.824 -33.029  1.00  0.00    -0.302 N 
HETATM    2  C   UNL     1      -5.827   4.309 -33.571  1.00  0.00     0.315 C 
HETATM    3  O   UNL     1      -5.486   4.737 -34.661  1.00  0.00    -0.262 OA
HETATM    4  H   UNL     1      -7.378   5.675 -33.472  1.00  0.00     0.171 HD
ENDROOT
BRANCH   2   5
HETATM    5  C   UNL     1      -4.904   3.366 -32.761  1.00  0.00     0.309 C 
HETATM    6  N   UNL     1      -5.132   2.021 -33.001  1.00  0.00    -0.353 N 
HETATM    7  H   UNL     1      -5.812   1.776 -33.718  1.00  0.00     0.162 HD
HETATM    8  O   UNL     1      -4.037   3.804 -32.022  1.00  0.00    -0.262 OA
BRANCH   6   9
HETATM    9  C   UNL     1      -4.231   0.999 -32.498  1.00  0.00     0.128 C 
BRANCH   9  10
HETATM   10  C   UNL     1      -4.989  -0.201 -31.931  1.00  0.00     0.058 C 
BRANCH  10  11
HETATM   11  C   UNL     1      -5.191  -1.279 -32.965  1.00  0.00    -0.054 A 
HETATM   12  C   UNL     1      -4.240  -2.297 -33.124  1.00  0.00     0.043 A 
HETATM   13  C   UNL     1      -4.432  -3.278 -34.095  1.00  0.00     0.066 A 
HETATM   14  C   UNL     1      -5.553  -3.261 -34.915  1.00  0.00     0.036 A 
HETATM   15  C   UNL     1      -6.499  -2.250 -34.767  1.00  0.00     0.003 A 
HETATM   16  C   UNL     1      -6.320  -1.261 -33.798  1.00  0.00     0.007 A 
BRANCH  13  17
HETATM   17  O   UNL     1      -3.533  -4.287 -34.274  1.00  0.00    -0.361 OA
HETATM   18  H   UNL     1      -2.674  -3.905 -34.519  1.00  0.00     0.217 HD
ENDBRANCH  13  17
ENDBRANCH  10  11
ENDBRANCH   9  10
ENDBRANCH   6   9
ENDBRANCH   2   5
BRANCH   1  19
HETATM   19  C   UNL     1      -7.471   4.561 -31.732  1.00  0.00     0.150 A 
HETATM   20  C   UNL     1      -7.130   5.353 -30.659  1.00  0.00     0.065 A 
HETATM   21  C   UNL     1      -7.729   4.743 -29.549  1.00  0.00     0.161 A 
HETATM   22  N   UNL     1      -8.403   3.642 -29.876  1.00  0.00    -0.176 NA
HETATM   23  N   UNL     1      -8.281   3.537 -31.232  1.00  0.00    -0.216 N 
BRANCH  20  24
HETATM   24  S   UNL     1      -6.131   6.781 -30.693  1.00  0.00    -0.129 SA
HETATM   25  C   UNL     1      -4.776   6.291 -29.596  1.00  0.00     0.096 C 
ENDBRANCH  20  24
BRANCH  23  26
HETATM   26  C   UNL     1      -9.003   2.527 -31.934  1.00  0.00     0.060 A 
HETATM   27  C   UNL     1     -10.139   2.818 -32.702  1.00  0.00     0.031 A 
HETATM   28  C   UNL     1     -10.826   1.790 -33.358  1.00  0.00     0.002 A 
HETATM   29  C   UNL     1     -10.394   0.470 -33.249  1.00  0.00     0.000 A 
HETATM   30  C   UNL     1      -9.274   0.170 -32.480  1.00  0.00     0.002 A 
HETATM   31  C   UNL     1      -8.581   1.190 -31.825  1.00  0.00     0.031 A 
ENDBRANCH  23  26
ENDBRANCH   1  19
TORSDOF 8
ENDMDL
MODEL 10
REMARK VINA RESULT:      -7.5      3.944      8.454
REMARK  8 active torsions:
REMARK  status: ('A' for Active; 'I' for Inactive)
REMARK    1  A    between atoms: S_2  and  C_3 
REMARK    2  A    between atoms: C_4  and  N_5 
REMARK       I    between atoms: N_5  and  C_6 
REMARK    3  A    between atoms: C_6  and  C_7 
REMARK       I    between atoms: C_7  and  N_8 
REMARK    4  A    between atoms: N_8  and  C_9 
REMARK    5  A    between atoms: C_9  and  C_10 
REMARK    6  A    between atoms: C_10  and  C_11 
REMARK    7  A    between atoms: C_13  and  O_14 
REMARK    8  A    between atoms: N_20  and  C_21 
ROOT
HETATM    1  N   UNL     1      -9.369   2.099 -31.401  1.00  0.00    -0.302 N 
HETATM    2  C   UNL     1      -9.296   3.520 -31.216  1.00  0.00     0.315 C 
HETATM    3  O   UNL     1      -9.553   3.942 -30.101  1.00  0.00    -0.262 OA
HETATM    4  H   UNL     1      -9.368   1.566 -30.539  1.00  0.00     0.171 HD
ENDROOT
BRANCH   2   5
HETATM    5  C   UNL     1      -8.783   4.467 -32.328  1.00  0.00     0.309 C 
HETATM    6  N   UNL     1      -7.444   4.799 -32.204  1.00  0.00    -0.353 N 
HETATM    7  H   UNL     1      -6.911   4.349 -31.462  1.00  0.00     0.162 HD
HETATM    8  O   UNL     1      -9.509   4.834 -33.238  1.00  0.00    -0.262 OA
BRANCH   6   9
HETATM    9  C   UNL     1      -6.737   5.501 -33.261  1.00  0.00     0.128 C 
BRANCH   9  10
HETATM   10  C   UNL     1      -5.926   4.547 -34.137  1.00  0.00     0.058 C 
BRANCH  10  11
HETATM   11  C   UNL     1      -4.446   4.671 -33.885  1.00  0.00    -0.054 A 
HETATM   12  C   UNL     1      -3.892   4.231 -32.674  1.00  0.00     0.043 A 
HETATM   13  C   UNL     1      -2.524   4.367 -32.449  1.00  0.00     0.066 A 
HETATM   14  C   UNL     1      -1.696   4.939 -33.406  1.00  0.00     0.036 A 
HETATM   15  C   UNL     1      -2.239   5.384 -34.609  1.00  0.00     0.003 A 
HETATM   16  C   UNL     1      -3.609   5.253 -34.848  1.00  0.00     0.007 A 
BRANCH  13  17
HETATM   17  O   UNL     1      -1.949   3.945 -31.287  1.00  0.00    -0.361 OA
HETATM   18  H   UNL     1      -2.610   3.982 -30.576  1.00  0.00     0.217 HD
ENDBRANCH  13  17
ENDBRANCH  10  11
ENDBRANCH   9  10
ENDBRANCH   6   9
ENDBRANCH   2   5
BRANCH   1  19
HETATM   19  C   UNL     1      -8.938   1.467 -32.560  1.00  0.00     0.150 A 
HETATM   20  C   UNL     1      -7.631   1.088 -32.765  1.00  0.00     0.065 A 
HETATM   21  C   UNL     1      -7.613   0.512 -34.041  1.00  0.00     0.161 A 
HETATM   22  N   UNL     1      -8.813   0.518 -34.619  1.00  0.00    -0.176 NA
HETATM   23  N   UNL     1      -9.651   1.076 -33.696  1.00  0.00    -0.216 N 
BRANCH  20  24
HETATM   24  S   UNL     1      -6.292   1.324 -31.673  1.00  0.00    -0.129 SA
HETATM   25  C   UNL     1      -6.506  -0.075 -30.544  1.00  0.00     0.096 C 
ENDBRANCH  20  24
BRANCH  23  26
HETATM   26  C   UNL     1     -11.056   1.114 -33.944  1.00  0.00     0.060 A 
HETATM   27  C   UNL     1     -11.926   0.127 -33.463  1.00  0.00     0.031 A 
HETATM   28  C   UNL     1     -13.294   0.197 -33.748  1.00  0.00     0.002 A 
HETATM   29  C   UNL     1     -13.803   1.242 -34.516  1.00  0.00     0.000 A 
HETATM   30  C   UNL     1     -12.945   2.221 -35.008  1.00  0.00     0.002 A 
HETATM   31  C   UNL     1     -11.578   2.159 -34.726  1.00  0.00     0.031 A 
ENDBRANCH  23  26
ENDBRANCH   1  19
TORSDOF 8
ENDMDL
