MODEL 1
REMARK VINA RESULT:      -7.4      0.000      0.000
REMARK  4 active torsions:
REMARK  status: ('A' for Active; 'I' for Inactive)
REMARK    1  A    between atoms: C_5  and  C_6 
REMARK       I    between atoms: C_6  and  N_7 
REMARK    2  A    between atoms: N_7  and  N_8 
REMARK       I    between atoms: N_8  and  C_9 
REMARK    3  A    between atoms: C_9  and  C_10 
REMARK    4  A    between atoms: C_13  and  C_14 
ROOT
HETATM    1  N   UNL     1      -4.843   0.774 -32.899  1.00  0.00    -0.263 N 
HETATM    2  C   UNL     1      -3.771   1.203 -32.144  1.00  0.00     0.270 C 
HETATM    3  O   UNL     1      -2.965   0.426 -31.633  1.00  0.00    -0.266 OA
HETATM    4  H   UNL     1      -5.387   1.385 -33.504  1.00  0.00     0.190 HD
ENDROOT
BRANCH   2   5
HETATM    5  C   UNL     1      -3.610   2.673 -31.994  1.00  0.00     0.033 A 
HETATM    6  C   UNL     1      -2.707   3.408 -32.764  1.00  0.00     0.017 A 
HETATM    7  C   UNL     1      -2.603   4.793 -32.588  1.00  0.00     0.010 A 
HETATM    8  C   UNL     1      -3.405   5.489 -31.656  1.00  0.00    -0.035 A 
HETATM    9  C   UNL     1      -4.295   4.725 -30.883  1.00  0.00     0.010 A 
HETATM   10  C   UNL     1      -4.408   3.339 -31.060  1.00  0.00     0.017 A 
BRANCH   8  11
HETATM   11  C   UNL     1      -3.210   6.998 -31.501  1.00  0.00     0.141 C 
HETATM   12  S   UNL     1      -3.263   7.570 -29.765  1.00  0.00    -0.149 SA
HETATM   13  C   UNL     1      -1.661   6.955 -29.187  1.00  0.00     0.076 C 
HETATM   14  C   UNL     1      -0.505   7.625 -29.913  1.00  0.00     0.020 C 
HETATM   15  C   UNL     1      -0.409   7.239 -31.380  1.00  0.00     0.076 C 
HETATM   16  S   UNL     1      -1.823   7.780 -32.386  1.00  0.00    -0.149 SA
ENDBRANCH   8  11
ENDBRANCH   2   5
BRANCH   1  17
HETATM   17  N   UNL     1      -4.961  -0.599 -33.148  1.00  0.00    -0.262 N 
HETATM   18  C   UNL     1      -5.763  -1.024 -34.185  1.00  0.00     0.286 C 
HETATM   19  O   UNL     1      -6.407  -0.230 -34.871  1.00  0.00    -0.264 OA
HETATM   20  H   UNL     1      -4.343  -1.212 -32.624  1.00  0.00     0.190 HD
BRANCH  18  21
HETATM   21  C   UNL     1      -5.793  -2.452 -34.409  1.00  0.00     0.102 A 
HETATM   22  N   UNL     1      -4.660  -3.226 -34.263  1.00  0.00    -0.361 N 
HETATM   23  C   UNL     1      -4.940  -4.536 -34.540  1.00  0.00     0.088 A 
HETATM   24  H   UNL     1      -3.757  -2.853 -33.993  1.00  0.00     0.165 HD
HETATM   25  C   UNL     1      -6.272  -4.623 -34.867  1.00  0.00     0.019 A 
HETATM   26  C   UNL     1      -6.811  -3.314 -34.786  1.00  0.00     0.036 A 
ENDBRANCH  18  21
ENDBRANCH   1  17
TORSDOF 4
ENDMDL
MODEL 2
REMARK VINA RESULT:      -7.2      7.194     11.934
REMARK  4 active torsions:
REMARK  status: ('A' for Active; 'I' for Inactive)
REMARK    1  A    between atoms: C_5  and  C_6 
REMARK       I    between atoms: C_6  and  N_7 
REMARK    2  A    between atoms: N_7  and  N_8 
REMARK       I    between atoms: N_8  and  C_9 
REMARK    3  A    between atoms: C_9  and  C_10 
REMARK    4  A    between atoms: C_13  and  C_14 
ROOT
HETATM    1  N   UNL     1       1.728   8.999 -27.550  1.00  0.00    -0.263 N 
HETATM    2  C   UNL     1       1.132   7.779 -27.795  1.00  0.00     0.270 C 
HETATM    3  O   UNL     1       1.326   6.791 -27.088  1.00  0.00    -0.266 OA
HETATM    4  H   UNL     1       1.422   9.872 -27.976  1.00  0.00     0.190 HD
ENDROOT
BRANCH   2   5
HETATM    5  C   UNL     1       0.204   7.714 -28.955  1.00  0.00     0.033 A 
HETATM    6  C   UNL     1      -1.056   8.316 -28.937  1.00  0.00     0.017 A 
HETATM    7  C   UNL     1      -1.886   8.232 -30.061  1.00  0.00     0.010 A 
HETATM    8  C   UNL     1      -1.482   7.565 -31.240  1.00  0.00    -0.035 A 
HETATM    9  C   UNL     1      -0.217   6.955 -31.226  1.00  0.00     0.010 A 
HETATM   10  C   UNL     1       0.621   7.042 -30.106  1.00  0.00     0.017 A 
BRANCH   8  11
HETATM   11  C   UNL     1      -2.459   7.491 -32.414  1.00  0.00     0.141 C 
HETATM   12  S   UNL     1      -1.712   6.838 -33.950  1.00  0.00    -0.149 SA
HETATM   13  C   UNL     1      -1.573   5.087 -33.507  1.00  0.00     0.076 C 
HETATM   14  C   UNL     1      -2.937   4.452 -33.290  1.00  0.00     0.020 C 
HETATM   15  C   UNL     1      -3.654   4.969 -32.052  1.00  0.00     0.076 C 
HETATM   16  S   UNL     1      -4.091   6.731 -32.128  1.00  0.00    -0.149 SA
ENDBRANCH   8  11
ENDBRANCH   2   5
BRANCH   1  17
HETATM   17  N   UNL     1       2.523   9.121 -26.404  1.00  0.00    -0.262 N 
HETATM   18  C   UNL     1       1.969   9.654 -25.260  1.00  0.00     0.286 C 
HETATM   19  O   UNL     1       0.806  10.060 -25.233  1.00  0.00    -0.264 OA
HETATM   20  H   UNL     1       3.442   8.690 -26.439  1.00  0.00     0.190 HD
BRANCH  18  21
HETATM   21  C   UNL     1       2.839   9.701 -24.107  1.00  0.00     0.102 A 
HETATM   22  N   UNL     1       3.894  10.588 -24.040  1.00  0.00    -0.361 N 
HETATM   23  C   UNL     1       4.573  10.432 -22.861  1.00  0.00     0.088 A 
HETATM   24  H   UNL     1       4.120  11.248 -24.774  1.00  0.00     0.165 HD
HETATM   25  C   UNL     1       3.953   9.435 -22.146  1.00  0.00     0.019 A 
HETATM   26  C   UNL     1       2.863   8.973 -22.927  1.00  0.00     0.036 A 
ENDBRANCH  18  21
ENDBRANCH   1  17
TORSDOF 4
ENDMDL
MODEL 3
REMARK VINA RESULT:      -7.0      4.937      9.451
REMARK  4 active torsions:
REMARK  status: ('A' for Active; 'I' for Inactive)
REMARK    1  A    between atoms: C_5  and  C_6 
REMARK       I    between atoms: C_6  and  N_7 
REMARK    2  A    between atoms: N_7  and  N_8 
REMARK       I    between atoms: N_8  and  C_9 
REMARK    3  A    between atoms: C_9  and  C_10 
REMARK    4  A    between atoms: C_13  and  C_14 
ROOT
HETATM    1  N   UNL     1      -2.402   5.561 -30.449  1.00  0.00    -0.263 N 
HETATM    2  C   UNL     1      -2.099   4.710 -31.492  1.00  0.00     0.270 C 
HETATM    3  O   UNL     1      -0.959   4.581 -31.934  1.00  0.00    -0.266 OA
HETATM    4  H   UNL     1      -3.276   5.526 -29.927  1.00  0.00     0.190 HD
ENDROOT
BRANCH   2   5
HETATM    5  C   UNL     1      -3.227   3.918 -32.051  1.00  0.00     0.033 A 
HETATM    6  C   UNL     1      -4.248   4.502 -32.803  1.00  0.00     0.017 A 
HETATM    7  C   UNL     1      -5.281   3.707 -33.314  1.00  0.00     0.010 A 
HETATM    8  C   UNL     1      -5.320   2.310 -33.108  1.00  0.00    -0.035 A 
HETATM    9  C   UNL     1      -4.290   1.750 -32.334  1.00  0.00     0.010 A 
HETATM   10  C   UNL     1      -3.250   2.539 -31.826  1.00  0.00     0.017 A 
BRANCH   8  11
HETATM   11  C   UNL     1      -6.499   1.517 -33.672  1.00  0.00     0.141 C 
HETATM   12  S   UNL     1      -6.764  -0.093 -32.844  1.00  0.00    -0.149 SA
HETATM   13  C   UNL     1      -7.455   0.478 -31.271  1.00  0.00     0.076 C 
HETATM   14  C   UNL     1      -8.789   1.181 -31.464  1.00  0.00     0.020 C 
HETATM   15  C   UNL     1      -8.671   2.514 -32.185  1.00  0.00     0.076 C 
HETATM   16  S   UNL     1      -8.087   2.382 -33.901  1.00  0.00    -0.149 SA
ENDBRANCH   8  11
ENDBRANCH   2   5
BRANCH   1  17
HETATM   17  N   UNL     1      -1.346   6.240 -29.831  1.00  0.00    -0.262 N 
HETATM   18  C   UNL     1      -1.627   7.155 -28.839  1.00  0.00     0.286 C 
HETATM   19  O   UNL     1      -2.786   7.416 -28.511  1.00  0.00    -0.264 OA
HETATM   20  H   UNL     1      -0.406   5.929 -30.062  1.00  0.00     0.190 HD
BRANCH  18  21
HETATM   21  C   UNL     1      -0.481   7.777 -28.216  1.00  0.00     0.102 A 
HETATM   22  N   UNL     1      -0.594   8.455 -27.020  1.00  0.00    -0.361 N 
HETATM   23  C   UNL     1       0.620   8.963 -26.644  1.00  0.00     0.088 A 
HETATM   24  H   UNL     1      -1.465   8.555 -26.511  1.00  0.00     0.165 HD
HETATM   25  C   UNL     1       1.540   8.610 -27.603  1.00  0.00     0.019 A 
HETATM   26  C   UNL     1       0.850   7.866 -28.593  1.00  0.00     0.036 A 
ENDBRANCH  18  21
ENDBRANCH   1  17
TORSDOF 4
ENDMDL
MODEL 4
REMARK VINA RESULT:      -6.8     12.317     15.250
REMARK  4 active torsions:
REMARK  status: ('A' for Active; 'I' for Inactive)
REMARK    1  A    between atoms: C_5  and  C_6 
REMARK       I    between atoms: C_6  and  N_7 
REMARK    2  A    between atoms: N_7  and  N_8 
REMARK       I    between atoms: N_8  and  C_9 
REMARK    3  A    between atoms: C_9  and  C_10 
REMARK    4  A    between atoms: C_13  and  C_14 
ROOT
HETATM    1  N   UNL     1       5.423   6.451 -22.534  1.00  0.00    -0.263 N 
HETATM    2  C   UNL     1       4.819   7.446 -21.793  1.00  0.00     0.270 C 
HETATM    3  O   UNL     1       5.036   7.605 -20.593  1.00  0.00    -0.266 OA
HETATM    4  H   UNL     1       5.433   6.434 -23.553  1.00  0.00     0.190 HD
ENDROOT
BRANCH   2   5
HETATM    5  C   UNL     1       3.899   8.355 -22.527  1.00  0.00     0.033 A 
HETATM    6  C   UNL     1       4.205   8.864 -23.791  1.00  0.00     0.017 A 
HETATM    7  C   UNL     1       3.297   9.709 -24.441  1.00  0.00     0.010 A 
HETATM    8  C   UNL     1       2.055  10.058 -23.864  1.00  0.00    -0.035 A 
HETATM    9  C   UNL     1       1.780   9.545 -22.586  1.00  0.00     0.010 A 
HETATM   10  C   UNL     1       2.681   8.693 -21.933  1.00  0.00     0.017 A 
BRANCH   8  11
HETATM   11  C   UNL     1       1.133  11.010 -24.625  1.00  0.00     0.141 C 
HETATM   12  S   UNL     1       0.882  10.547 -26.377  1.00  0.00    -0.149 SA
HETATM   13  C   UNL     1      -0.203   9.112 -26.166  1.00  0.00     0.076 C 
HETATM   14  C   UNL     1      -1.534   9.500 -25.543  1.00  0.00     0.020 C 
HETATM   15  C   UNL     1      -1.416   9.942 -24.093  1.00  0.00     0.076 C 
HETATM   16  S   UNL     1      -0.455  11.467 -23.856  1.00  0.00    -0.149 SA
ENDBRANCH   8  11
ENDBRANCH   2   5
BRANCH   1  17
HETATM   17  N   UNL     1       6.375   5.647 -21.897  1.00  0.00    -0.262 N 
HETATM   18  C   UNL     1       7.710   5.838 -22.181  1.00  0.00     0.286 C 
HETATM   19  O   UNL     1       8.082   6.671 -23.008  1.00  0.00    -0.264 OA
HETATM   20  H   UNL     1       6.036   5.040 -21.156  1.00  0.00     0.190 HD
BRANCH  18  21
HETATM   21  C   UNL     1       8.633   5.001 -21.447  1.00  0.00     0.102 A 
HETATM   22  N   UNL     1       8.258   4.375 -20.276  1.00  0.00    -0.361 N 
HETATM   23  C   UNL     1       9.303   3.655 -19.765  1.00  0.00     0.088 A 
HETATM   24  H   UNL     1       7.334   4.456 -19.867  1.00  0.00     0.165 HD
HETATM   25  C   UNL     1      10.374   3.808 -20.613  1.00  0.00     0.019 A 
HETATM   26  C   UNL     1       9.956   4.654 -21.671  1.00  0.00     0.036 A 
ENDBRANCH  18  21
ENDBRANCH   1  17
TORSDOF 4
ENDMDL
MODEL 5
REMARK VINA RESULT:      -6.8      4.869      5.789
REMARK  4 active torsions:
REMARK  status: ('A' for Active; 'I' for Inactive)
REMARK    1  A    between atoms: C_5  and  C_6 
REMARK       I    between atoms: C_6  and  N_7 
REMARK    2  A    between atoms: N_7  and  N_8 
REMARK       I    between atoms: N_8  and  C_9 
REMARK    3  A    between atoms: C_9  and  C_10 
REMARK    4  A    between atoms: C_13  and  C_14 
ROOT
HETATM    1  N   UNL     1      -8.717   2.741 -33.172  1.00  0.00    -0.263 N 
HETATM    2  C   UNL     1      -8.130   3.874 -33.697  1.00  0.00     0.270 C 
HETATM    3  O   UNL     1      -8.776   4.756 -34.261  1.00  0.00    -0.266 OA
HETATM    4  H   UNL     1      -8.250   2.115 -32.519  1.00  0.00     0.190 HD
ENDROOT
BRANCH   2   5
HETATM    5  C   UNL     1      -6.659   4.000 -33.525  1.00  0.00     0.033 A 
HETATM    6  C   UNL     1      -5.878   2.968 -33.001  1.00  0.00     0.017 A 
HETATM    7  C   UNL     1      -4.494   3.137 -32.869  1.00  0.00     0.010 A 
HETATM    8  C   UNL     1      -3.846   4.327 -33.269  1.00  0.00    -0.035 A 
HETATM    9  C   UNL     1      -4.656   5.355 -33.778  1.00  0.00     0.010 A 
HETATM   10  C   UNL     1      -6.040   5.189 -33.919  1.00  0.00     0.017 A 
BRANCH   8  11
HETATM   11  C   UNL     1      -2.335   4.445 -33.063  1.00  0.00     0.141 C 
HETATM   12  S   UNL     1      -1.483   5.362 -34.397  1.00  0.00    -0.149 SA
HETATM   13  C   UNL     1      -2.017   7.047 -34.006  1.00  0.00     0.076 C 
HETATM   14  C   UNL     1      -1.492   7.504 -32.654  1.00  0.00     0.020 C 
HETATM   15  C   UNL     1      -2.117   6.763 -31.482  1.00  0.00     0.076 C 
HETATM   16  S   UNL     1      -1.730   4.988 -31.432  1.00  0.00    -0.149 SA
ENDBRANCH   8  11
ENDBRANCH   2   5
BRANCH   1  17
HETATM   17  N   UNL     1     -10.113   2.643 -33.223  1.00  0.00    -0.262 N 
HETATM   18  C   UNL     1     -10.689   1.416 -33.471  1.00  0.00     0.286 C 
HETATM   19  O   UNL     1     -10.006   0.414 -33.686  1.00  0.00    -0.264 OA
HETATM   20  H   UNL     1     -10.638   3.469 -32.947  1.00  0.00     0.190 HD
BRANCH  18  21
HETATM   21  C   UNL     1     -12.134   1.389 -33.459  1.00  0.00     0.102 A 
HETATM   22  N   UNL     1     -12.864   2.325 -32.756  1.00  0.00    -0.361 N 
HETATM   23  C   UNL     1     -14.204   2.081 -32.889  1.00  0.00     0.088 A 
HETATM   24  H   UNL     1     -12.445   3.075 -32.218  1.00  0.00     0.165 HD
HETATM   25  C   UNL     1     -14.354   0.975 -33.691  1.00  0.00     0.019 A 
HETATM   26  C   UNL     1     -13.055   0.537 -34.051  1.00  0.00     0.036 A 
ENDBRANCH  18  21
ENDBRANCH   1  17
TORSDOF 4
ENDMDL
MODEL 6
REMARK VINA RESULT:      -6.6     10.300     14.065
REMARK  4 active torsions:
REMARK  status: ('A' for Active; 'I' for Inactive)
REMARK    1  A    between atoms: C_5  and  C_6 
REMARK       I    between atoms: C_6  and  N_7 
REMARK    2  A    between atoms: N_7  and  N_8 
REMARK       I    between atoms: N_8  and  C_9 
REMARK    3  A    between atoms: C_9  and  C_10 
REMARK    4  A    between atoms: C_13  and  C_14 
ROOT
HETATM    1  N   UNL     1       3.475   8.156 -23.905  1.00  0.00    -0.263 N 
HETATM    2  C   UNL     1       3.002   9.317 -24.480  1.00  0.00     0.270 C 
HETATM    3  O   UNL     1       3.395  10.433 -24.144  1.00  0.00    -0.266 OA
HETATM    4  H   UNL     1       3.336   7.230 -24.305  1.00  0.00     0.190 HD
ENDROOT
BRANCH   2   5
HETATM    5  C   UNL     1       1.997   9.159 -25.565  1.00  0.00     0.033 A 
HETATM    6  C   UNL     1       1.849   7.967 -26.276  1.00  0.00     0.017 A 
HETATM    7  C   UNL     1       0.880   7.869 -27.282  1.00  0.00     0.010 A 
HETATM    8  C   UNL     1       0.020   8.945 -27.597  1.00  0.00    -0.035 A 
HETATM    9  C   UNL     1       0.201  10.138 -26.878  1.00  0.00     0.010 A 
HETATM   10  C   UNL     1       1.164  10.239 -25.865  1.00  0.00     0.017 A 
BRANCH   8  11
HETATM   11  C   UNL     1      -0.991   8.770 -28.730  1.00  0.00     0.141 C 
HETATM   12  S   UNL     1      -1.796   7.128 -28.748  1.00  0.00    -0.149 SA
HETATM   13  C   UNL     1      -2.901   7.308 -27.325  1.00  0.00     0.076 C 
HETATM   14  C   UNL     1      -3.942   8.391 -27.554  1.00  0.00     0.020 C 
HETATM   15  C   UNL     1      -3.356   9.794 -27.597  1.00  0.00     0.076 C 
HETATM   16  S   UNL     1      -2.226  10.085 -28.991  1.00  0.00    -0.149 SA
ENDBRANCH   8  11
ENDBRANCH   2   5
BRANCH   1  17
HETATM   17  N   UNL     1       4.499   8.265 -22.956  1.00  0.00    -0.262 N 
HETATM   18  C   UNL     1       4.205   8.054 -21.626  1.00  0.00     0.286 C 
HETATM   19  O   UNL     1       3.058   7.810 -21.249  1.00  0.00    -0.264 OA
HETATM   20  H   UNL     1       5.444   8.373 -23.315  1.00  0.00     0.190 HD
BRANCH  18  21
HETATM   21  C   UNL     1       5.325   8.137 -20.716  1.00  0.00     0.102 A 
HETATM   22  N   UNL     1       6.138   7.048 -20.477  1.00  0.00    -0.361 N 
HETATM   23  C   UNL     1       7.114   7.372 -19.574  1.00  0.00     0.088 A 
HETATM   24  H   UNL     1       6.007   6.144 -20.916  1.00  0.00     0.165 HD
HETATM   25  C   UNL     1       6.941   8.689 -19.220  1.00  0.00     0.019 A 
HETATM   26  C   UNL     1       5.817   9.172 -19.936  1.00  0.00     0.036 A 
ENDBRANCH  18  21
ENDBRANCH   1  17
TORSDOF 4
ENDMDL
MODEL 7
REMARK VINA RESULT:      -6.4      1.746      2.433
REMARK  4 active torsions:
REMARK  status: ('A' for Active; 'I' for Inactive)
REMARK    1  A    between atoms: C_5  and  C_6 
REMARK       I    between atoms: C_6  and  N_7 
REMARK    2  A    between atoms: N_7  and  N_8 
REMARK       I    between atoms: N_8  and  C_9 
REMARK    3  A    between atoms: C_9  and  C_10 
REMARK    4  A    between atoms: C_13  and  C_14 
ROOT
HETATM    1  N   UNL     1      -5.358   1.900 -32.572  1.00  0.00    -0.263 N 
HETATM    2  C   UNL     1      -4.154   2.373 -32.093  1.00  0.00     0.270 C 
HETATM    3  O   UNL     1      -3.096   1.761 -32.236  1.00  0.00    -0.266 OA
HETATM    4  H   UNL     1      -6.194   2.475 -32.662  1.00  0.00     0.190 HD
ENDROOT
BRANCH   2   5
HETATM    5  C   UNL     1      -4.183   3.691 -31.407  1.00  0.00     0.033 A 
HETATM    6  C   UNL     1      -5.262   4.099 -30.620  1.00  0.00     0.017 A 
HETATM    7  C   UNL     1      -5.233   5.348 -29.989  1.00  0.00     0.010 A 
HETATM    8  C   UNL     1      -4.128   6.220 -30.107  1.00  0.00    -0.035 A 
HETATM    9  C   UNL     1      -3.063   5.793 -30.918  1.00  0.00     0.010 A 
HETATM   10  C   UNL     1      -3.082   4.541 -31.546  1.00  0.00     0.017 A 
BRANCH   8  11
HETATM   11  C   UNL     1      -4.187   7.580 -29.412  1.00  0.00     0.141 C 
HETATM   12  S   UNL     1      -5.272   7.607 -27.941  1.00  0.00    -0.149 SA
HETATM   13  C   UNL     1      -4.244   6.671 -26.780  1.00  0.00     0.076 C 
HETATM   14  C   UNL     1      -2.944   7.396 -26.470  1.00  0.00     0.020 C 
HETATM   15  C   UNL     1      -1.992   7.460 -27.655  1.00  0.00     0.076 C 
HETATM   16  S   UNL     1      -2.615   8.433 -29.058  1.00  0.00    -0.149 SA
ENDBRANCH   8  11
ENDBRANCH   2   5
BRANCH   1  17
HETATM   17  N   UNL     1      -5.347   0.714 -33.316  1.00  0.00    -0.262 N 
HETATM   18  C   UNL     1      -5.846  -0.437 -32.746  1.00  0.00     0.286 C 
HETATM   19  O   UNL     1      -6.265  -0.456 -31.587  1.00  0.00    -0.264 OA
HETATM   20  H   UNL     1      -5.083   0.792 -34.294  1.00  0.00     0.190 HD
BRANCH  18  21
HETATM   21  C   UNL     1      -5.844  -1.608 -33.594  1.00  0.00     0.102 A 
HETATM   22  N   UNL     1      -4.681  -2.301 -33.859  1.00  0.00    -0.361 N 
HETATM   23  C   UNL     1      -4.935  -3.357 -34.692  1.00  0.00     0.088 A 
HETATM   24  H   UNL     1      -3.777  -2.043 -33.482  1.00  0.00     0.165 HD
HETATM   25  C   UNL     1      -6.281  -3.357 -34.974  1.00  0.00     0.019 A 
HETATM   26  C   UNL     1      -6.855  -2.259 -34.285  1.00  0.00     0.036 A 
ENDBRANCH  18  21
ENDBRANCH   1  17
TORSDOF 4
ENDMDL
MODEL 8
REMARK VINA RESULT:      -6.4      2.076      2.654
REMARK  4 active torsions:
REMARK  status: ('A' for Active; 'I' for Inactive)
REMARK    1  A    between atoms: C_5  and  C_6 
REMARK       I    between atoms: C_6  and  N_7 
REMARK    2  A    between atoms: N_7  and  N_8 
REMARK       I    between atoms: N_8  and  C_9 
REMARK    3  A    between atoms: C_9  and  C_10 
REMARK    4  A    between atoms: C_13  and  C_14 
ROOT
HETATM    1  N   UNL     1      -5.920   1.027 -33.762  1.00  0.00    -0.263 N 
HETATM    2  C   UNL     1      -6.092   1.415 -32.449  1.00  0.00     0.270 C 
HETATM    3  O   UNL     1      -6.539   0.660 -31.587  1.00  0.00    -0.266 OA
HETATM    4  H   UNL     1      -5.359   1.546 -34.435  1.00  0.00     0.190 HD
ENDROOT
BRANCH   2   5
HETATM    5  C   UNL     1      -5.680   2.802 -32.107  1.00  0.00     0.033 A 
HETATM    6  C   UNL     1      -4.526   3.077 -31.371  1.00  0.00     0.017 A 
HETATM    7  C   UNL     1      -4.180   4.404 -31.085  1.00  0.00     0.010 A 
HETATM    8  C   UNL     1      -4.959   5.492 -31.537  1.00  0.00    -0.035 A 
HETATM    9  C   UNL     1      -6.124   5.187 -32.261  1.00  0.00     0.010 A 
HETATM   10  C   UNL     1      -6.471   3.862 -32.557  1.00  0.00     0.017 A 
BRANCH   8  11
HETATM   11  C   UNL     1      -4.531   6.910 -31.156  1.00  0.00     0.141 C 
HETATM   12  S   UNL     1      -5.925   8.086 -31.018  1.00  0.00    -0.149 SA
HETATM   13  C   UNL     1      -6.657   7.518 -29.462  1.00  0.00     0.076 C 
HETATM   14  C   UNL     1      -5.707   7.710 -28.291  1.00  0.00     0.020 C 
HETATM   15  C   UNL     1      -4.491   6.799 -28.344  1.00  0.00     0.076 C 
HETATM   16  S   UNL     1      -3.386   7.115 -29.753  1.00  0.00    -0.149 SA
ENDBRANCH   8  11
ENDBRANCH   2   5
BRANCH   1  17
HETATM   17  N   UNL     1      -6.197  -0.305 -34.093  1.00  0.00    -0.262 N 
HETATM   18  C   UNL     1      -5.175  -1.228 -34.065  1.00  0.00     0.286 C 
HETATM   19  O   UNL     1      -4.018  -0.904 -33.794  1.00  0.00    -0.264 OA
HETATM   20  H   UNL     1      -7.176  -0.549 -34.218  1.00  0.00     0.190 HD
BRANCH  18  21
HETATM   21  C   UNL     1      -5.551  -2.590 -34.372  1.00  0.00     0.102 A 
HETATM   22  N   UNL     1      -4.656  -3.630 -34.235  1.00  0.00    -0.361 N 
HETATM   23  C   UNL     1      -5.242  -4.813 -34.596  1.00  0.00     0.088 A 
HETATM   24  H   UNL     1      -3.702  -3.511 -33.916  1.00  0.00     0.165 HD
HETATM   25  C   UNL     1      -6.537  -4.545 -34.971  1.00  0.00     0.019 A 
HETATM   26  C   UNL     1      -6.735  -3.149 -34.831  1.00  0.00     0.036 A 
ENDBRANCH  18  21
ENDBRANCH   1  17
TORSDOF 4
ENDMDL
MODEL 9
REMARK VINA RESULT:      -6.4     16.848     18.572
REMARK  4 active torsions:
REMARK  status: ('A' for Active; 'I' for Inactive)
REMARK    1  A    between atoms: C_5  and  C_6 
REMARK       I    between atoms: C_6  and  N_7 
REMARK    2  A    between atoms: N_7  and  N_8 
REMARK       I    between atoms: N_8  and  C_9 
REMARK    3  A    between atoms: C_9  and  C_10 
REMARK    4  A    between atoms: C_13  and  C_14 
ROOT
HETATM    1  N   UNL     1      -5.843 -16.067 -32.783  1.00  0.00    -0.263 N 
HETATM    2  C   UNL     1      -6.705 -15.246 -33.481  1.00  0.00     0.270 C 
HETATM    3  O   UNL     1      -7.883 -15.096 -33.163  1.00  0.00    -0.266 OA
HETATM    4  H   UNL     1      -4.831 -16.041 -32.886  1.00  0.00     0.190 HD
ENDROOT
BRANCH   2   5
HETATM    5  C   UNL     1      -6.129 -14.514 -34.640  1.00  0.00     0.033 A 
HETATM    6  C   UNL     1      -4.829 -14.007 -34.631  1.00  0.00     0.017 A 
HETATM    7  C   UNL     1      -4.334 -13.332 -35.754  1.00  0.00     0.010 A 
HETATM    8  C   UNL     1      -5.109 -13.158 -36.922  1.00  0.00    -0.035 A 
HETATM    9  C   UNL     1      -6.420 -13.664 -36.899  1.00  0.00     0.010 A 
HETATM   10  C   UNL     1      -6.918 -14.346 -35.781  1.00  0.00     0.017 A 
BRANCH   8  11
HETATM   11  C   UNL     1      -4.508 -12.384 -38.095  1.00  0.00     0.141 C 
HETATM   12  S   UNL     1      -2.697 -12.585 -38.256  1.00  0.00    -0.149 SA
HETATM   13  C   UNL     1      -2.628 -14.279 -38.891  1.00  0.00     0.076 C 
HETATM   14  C   UNL     1      -3.279 -14.394 -40.259  1.00  0.00     0.020 C 
HETATM   15  C   UNL     1      -4.787 -14.198 -40.229  1.00  0.00     0.076 C 
HETATM   16  S   UNL     1      -5.310 -12.532 -39.725  1.00  0.00    -0.149 SA
ENDBRANCH   8  11
ENDBRANCH   2   5
BRANCH   1  17
HETATM   17  N   UNL     1      -6.326 -16.687 -31.624  1.00  0.00    -0.262 N 
HETATM   18  C   UNL     1      -5.733 -16.398 -30.414  1.00  0.00     0.286 C 
HETATM   19  O   UNL     1      -4.767 -15.638 -30.333  1.00  0.00    -0.264 OA
HETATM   20  H   UNL     1      -7.179 -17.231 -31.719  1.00  0.00     0.190 HD
BRANCH  18  21
HETATM   21  C   UNL     1      -6.319 -17.040 -29.259  1.00  0.00     0.102 A 
HETATM   22  N   UNL     1      -7.683 -17.038 -29.052  1.00  0.00    -0.361 N 
HETATM   23  C   UNL     1      -7.989 -17.695 -27.891  1.00  0.00     0.088 A 
HETATM   24  H   UNL     1      -8.345 -16.599 -29.681  1.00  0.00     0.165 HD
HETATM   25  C   UNL     1      -6.813 -18.137 -27.334  1.00  0.00     0.019 A 
HETATM   26  C   UNL     1      -5.761 -17.727 -28.191  1.00  0.00     0.036 A 
ENDBRANCH  18  21
ENDBRANCH   1  17
TORSDOF 4
ENDMDL
MODEL 10
REMARK VINA RESULT:      -6.3     11.454     15.026
REMARK  4 active torsions:
REMARK  status: ('A' for Active; 'I' for Inactive)
REMARK    1  A    between atoms: C_5  and  C_6 
REMARK       I    between atoms: C_6  and  N_7 
REMARK    2  A    between atoms: N_7  and  N_8 
REMARK       I    between atoms: N_8  and  C_9 
REMARK    3  A    between atoms: C_9  and  C_10 
REMARK    4  A    between atoms: C_13  and  C_14 
ROOT
HETATM    1  N   UNL     1       4.751   7.726 -23.029  1.00  0.00    -0.263 N 
HETATM    2  C   UNL     1       4.195   8.958 -22.753  1.00  0.00     0.270 C 
HETATM    3  O   UNL     1       4.728   9.775 -22.005  1.00  0.00    -0.266 OA
HETATM    4  H   UNL     1       4.451   7.131 -23.799  1.00  0.00     0.190 HD
ENDROOT
BRANCH   2   5
HETATM    5  C   UNL     1       2.912   9.274 -23.434  1.00  0.00     0.033 A 
HETATM    6  C   UNL     1       1.858   9.916 -22.781  1.00  0.00     0.017 A 
HETATM    7  C   UNL     1       0.674  10.198 -23.473  1.00  0.00     0.010 A 
HETATM    8  C   UNL     1       0.510   9.867 -24.837  1.00  0.00    -0.035 A 
HETATM    9  C   UNL     1       1.579   9.208 -25.467  1.00  0.00     0.010 A 
HETATM   10  C   UNL     1       2.769   8.930 -24.781  1.00  0.00     0.017 A 
BRANCH   8  11
HETATM   11  C   UNL     1      -0.825  10.181 -25.514  1.00  0.00     0.141 C 
HETATM   12  S   UNL     1      -1.238   9.042 -26.884  1.00  0.00    -0.149 SA
HETATM   13  C   UNL     1      -1.672   7.561 -25.937  1.00  0.00     0.076 C 
HETATM   14  C   UNL     1      -2.900   7.787 -25.070  1.00  0.00     0.020 C 
HETATM   15  C   UNL     1      -2.661   8.758 -23.925  1.00  0.00     0.076 C 
HETATM   16  S   UNL     1      -2.282  10.455 -24.454  1.00  0.00    -0.149 SA
ENDBRANCH   8  11
ENDBRANCH   2   5
BRANCH   1  17
HETATM   17  N   UNL     1       6.010   7.440 -22.488  1.00  0.00    -0.262 N 
HETATM   18  C   UNL     1       6.090   6.690 -21.335  1.00  0.00     0.286 C 
HETATM   19  O   UNL     1       5.079   6.299 -20.748  1.00  0.00    -0.264 OA
HETATM   20  H   UNL     1       6.817   7.699 -23.050  1.00  0.00     0.190 HD
BRANCH  18  21
HETATM   21  C   UNL     1       7.426   6.398 -20.868  1.00  0.00     0.102 A 
HETATM   22  N   UNL     1       7.652   5.464 -19.878  1.00  0.00    -0.361 N 
HETATM   23  C   UNL     1       8.989   5.376 -19.603  1.00  0.00     0.088 A 
HETATM   24  H   UNL     1       6.915   4.933 -19.428  1.00  0.00     0.165 HD
HETATM   25  C   UNL     1       9.648   6.260 -20.424  1.00  0.00     0.019 A 
HETATM   26  C   UNL     1       8.668   6.904 -21.220  1.00  0.00     0.036 A 
ENDBRANCH  18  21
ENDBRANCH   1  17
TORSDOF 4
ENDMDL
