MODEL 1
REMARK VINA RESULT:      -8.8      0.000      0.000
REMARK  3 active torsions:
REMARK  status: ('A' for Active; 'I' for Inactive)
REMARK    1  A    between atoms: C_13  and  C_14 
REMARK    2  A    between atoms: C_14  and  N_15 
REMARK       I    between atoms: N_15  and  C_16 
REMARK    3  A    between atoms: C_16  and  C_17 
ROOT
HETATM    1  C   UNL     1      -2.976  -2.945 -31.968  1.00  0.00     0.002 A 
HETATM    2  C   UNL     1      -3.500  -3.897 -32.861  1.00  0.00     0.018 A 
HETATM    3  C   UNL     1      -4.537  -3.473 -33.686  1.00  0.00     0.045 A 
HETATM    4  C   UNL     1      -4.998  -2.169 -33.593  1.00  0.00     0.017 A 
HETATM    5  C   UNL     1      -4.534  -1.206 -32.744  1.00  0.00    -0.015 A 
HETATM    6  C   UNL     1      -3.476  -1.625 -31.903  1.00  0.00     0.013 A 
HETATM    7  C   UNL     1      -6.011  -1.999 -34.508  1.00  0.00     0.047 A 
HETATM    8  N   UNL     1      -6.180  -3.205 -35.164  1.00  0.00    -0.322 N 
HETATM    9  C   UNL     1      -5.289  -4.184 -34.702  1.00  0.00     0.257 A 
HETATM   10  O   UNL     1      -5.236  -5.332 -35.120  1.00  0.00    -0.267 OA
HETATM   11  C   UNL     1      -6.662  -0.791 -34.653  1.00  0.00     0.031 A 
HETATM   12  C   UNL     1      -6.225   0.240 -33.798  1.00  0.00     0.012 A 
HETATM   13  C   UNL     1      -5.187   0.057 -32.838  1.00  0.00    -0.029 A 
HETATM   14  H   UNL     1      -6.852  -3.391 -35.892  1.00  0.00     0.169 HD
ENDROOT
BRANCH  13  15
HETATM   15  C   UNL     1      -4.797   1.224 -31.967  1.00  0.00     0.162 C 
BRANCH  15  16
HETATM   16  N   UNL     1      -4.250   2.304 -32.748  1.00  0.00    -0.351 N 
HETATM   17  C   UNL     1      -3.198   3.079 -32.313  1.00  0.00     0.275 C 
HETATM   18  O   UNL     1      -2.622   2.876 -31.248  1.00  0.00    -0.265 OA
HETATM   19  H   UNL     1      -4.729   2.606 -33.589  1.00  0.00     0.163 HD
BRANCH  17  20
HETATM   20  C   UNL     1      -2.838   4.143 -33.227  1.00  0.00     0.142 A 
HETATM   21  O   UNL     1      -3.758   4.591 -34.141  1.00  0.00    -0.317 OA
HETATM   22  C   UNL     1      -3.156   5.568 -34.869  1.00  0.00     0.143 A 
HETATM   23  C   UNL     1      -1.865   5.763 -34.440  1.00  0.00     0.027 A 
HETATM   24  C   UNL     1      -1.658   4.846 -33.382  1.00  0.00     0.045 A 
ENDBRANCH  17  20
ENDBRANCH  15  16
ENDBRANCH  13  15
TORSDOF 3
ENDMDL
MODEL 2
REMARK VINA RESULT:      -8.7      1.244      2.756
REMARK  3 active torsions:
REMARK  status: ('A' for Active; 'I' for Inactive)
REMARK    1  A    between atoms: C_13  and  C_14 
REMARK    2  A    between atoms: C_14  and  N_15 
REMARK       I    between atoms: N_15  and  C_16 
REMARK    3  A    between atoms: C_16  and  C_17 
ROOT
HETATM    1  C   UNL     1      -7.477  -0.286 -34.021  1.00  0.00     0.002 A 
HETATM    2  C   UNL     1      -7.130  -1.499 -34.642  1.00  0.00     0.018 A 
HETATM    3  C   UNL     1      -5.939  -2.091 -34.233  1.00  0.00     0.045 A 
HETATM    4  C   UNL     1      -5.166  -1.475 -33.261  1.00  0.00     0.017 A 
HETATM    5  C   UNL     1      -5.447  -0.297 -32.631  1.00  0.00    -0.015 A 
HETATM    6  C   UNL     1      -6.659   0.311 -33.036  1.00  0.00     0.013 A 
HETATM    7  C   UNL     1      -4.055  -2.252 -33.031  1.00  0.00     0.047 A 
HETATM    8  N   UNL     1      -4.140  -3.350 -33.868  1.00  0.00    -0.322 N 
HETATM    9  C   UNL     1      -5.299  -3.321 -34.658  1.00  0.00     0.257 A 
HETATM   10  O   UNL     1      -5.607  -4.174 -35.477  1.00  0.00    -0.267 OA
HETATM   11  C   UNL     1      -3.099  -1.895 -32.103  1.00  0.00     0.031 A 
HETATM   12  C   UNL     1      -3.337  -0.685 -31.422  1.00  0.00     0.012 A 
HETATM   13  C   UNL     1      -4.481   0.129 -31.674  1.00  0.00    -0.029 A 
HETATM   14  H   UNL     1      -3.469  -4.100 -33.928  1.00  0.00     0.169 HD
ENDROOT
BRANCH  13  15
HETATM   15  C   UNL     1      -4.640   1.410 -30.895  1.00  0.00     0.162 C 
BRANCH  15  16
HETATM   16  N   UNL     1      -3.634   2.376 -31.259  1.00  0.00    -0.351 N 
HETATM   17  C   UNL     1      -3.797   3.266 -32.296  1.00  0.00     0.275 C 
HETATM   18  O   UNL     1      -4.830   3.331 -32.957  1.00  0.00    -0.265 OA
HETATM   19  H   UNL     1      -2.714   2.323 -30.836  1.00  0.00     0.163 HD
BRANCH  17  20
HETATM   20  C   UNL     1      -2.646   4.113 -32.527  1.00  0.00     0.142 A 
HETATM   21  O   UNL     1      -1.720   4.285 -31.528  1.00  0.00    -0.317 OA
HETATM   22  C   UNL     1      -0.767   5.127 -32.006  1.00  0.00     0.143 A 
HETATM   23  C   UNL     1      -1.057   5.502 -33.297  1.00  0.00     0.027 A 
HETATM   24  C   UNL     1      -2.266   4.848 -33.634  1.00  0.00     0.045 A 
ENDBRANCH  17  20
ENDBRANCH  15  16
ENDBRANCH  13  15
TORSDOF 3
ENDMDL
MODEL 3
REMARK VINA RESULT:      -8.4      1.629      2.064
REMARK  3 active torsions:
REMARK  status: ('A' for Active; 'I' for Inactive)
REMARK    1  A    between atoms: C_13  and  C_14 
REMARK    2  A    between atoms: C_14  and  N_15 
REMARK       I    between atoms: N_15  and  C_16 
REMARK    3  A    between atoms: C_16  and  C_17 
ROOT
HETATM    1  C   UNL     1      -3.424  -0.569 -31.449  1.00  0.00     0.002 A 
HETATM    2  C   UNL     1      -3.566  -1.756 -32.189  1.00  0.00     0.018 A 
HETATM    3  C   UNL     1      -4.496  -1.737 -33.224  1.00  0.00     0.045 A 
HETATM    4  C   UNL     1      -5.222  -0.583 -33.473  1.00  0.00     0.017 A 
HETATM    5  C   UNL     1      -5.131   0.593 -32.786  1.00  0.00    -0.015 A 
HETATM    6  C   UNL     1      -4.185   0.587 -31.733  1.00  0.00     0.013 A 
HETATM    7  C   UNL     1      -6.060  -0.817 -34.538  1.00  0.00     0.047 A 
HETATM    8  N   UNL     1      -5.854  -2.123 -34.945  1.00  0.00    -0.322 N 
HETATM    9  C   UNL     1      -4.884  -2.769 -34.166  1.00  0.00     0.257 A 
HETATM   10  O   UNL     1      -4.521  -3.926 -34.322  1.00  0.00    -0.267 OA
HETATM   11  C   UNL     1      -6.906   0.159 -35.024  1.00  0.00     0.031 A 
HETATM   12  C   UNL     1      -6.856   1.395 -34.350  1.00  0.00     0.012 A 
HETATM   13  C   UNL     1      -5.999   1.630 -33.234  1.00  0.00    -0.029 A 
HETATM   14  H   UNL     1      -6.326  -2.585 -35.706  1.00  0.00     0.169 HD
ENDROOT
BRANCH  13  15
HETATM   15  C   UNL     1      -6.025   2.988 -32.579  1.00  0.00     0.162 C 
BRANCH  15  16
HETATM   16  N   UNL     1      -4.827   3.735 -32.869  1.00  0.00    -0.351 N 
HETATM   17  C   UNL     1      -4.755   4.659 -33.887  1.00  0.00     0.275 C 
HETATM   18  O   UNL     1      -5.719   4.946 -34.591  1.00  0.00    -0.265 OA
HETATM   19  H   UNL     1      -3.960   3.488 -32.406  1.00  0.00     0.163 HD
BRANCH  17  20
HETATM   20  C   UNL     1      -3.445   5.258 -34.040  1.00  0.00     0.142 A 
HETATM   21  O   UNL     1      -3.205   6.505 -33.520  1.00  0.00    -0.317 OA
HETATM   22  C   UNL     1      -1.918   6.822 -33.819  1.00  0.00     0.143 A 
HETATM   23  C   UNL     1      -1.319   5.801 -34.519  1.00  0.00     0.027 A 
HETATM   24  C   UNL     1      -2.301   4.792 -34.661  1.00  0.00     0.045 A 
ENDBRANCH  17  20
ENDBRANCH  15  16
ENDBRANCH  13  15
TORSDOF 3
ENDMDL
MODEL 4
REMARK VINA RESULT:      -8.2      3.756      5.410
REMARK  3 active torsions:
REMARK  status: ('A' for Active; 'I' for Inactive)
REMARK    1  A    between atoms: C_13  and  C_14 
REMARK    2  A    between atoms: C_14  and  N_15 
REMARK       I    between atoms: N_15  and  C_16 
REMARK    3  A    between atoms: C_16  and  C_17 
ROOT
HETATM    1  C   UNL     1      -3.394  -0.715 -31.598  1.00  0.00     0.002 A 
HETATM    2  C   UNL     1      -3.065  -2.020 -32.007  1.00  0.00     0.018 A 
HETATM    3  C   UNL     1      -3.875  -2.589 -32.985  1.00  0.00     0.045 A 
HETATM    4  C   UNL     1      -4.942  -1.868 -33.497  1.00  0.00     0.017 A 
HETATM    5  C   UNL     1      -5.312  -0.606 -33.135  1.00  0.00    -0.015 A 
HETATM    6  C   UNL     1      -4.493  -0.014 -32.144  1.00  0.00     0.013 A 
HETATM    7  C   UNL     1      -5.576  -2.641 -34.443  1.00  0.00     0.047 A 
HETATM    8  N   UNL     1      -4.900  -3.845 -34.511  1.00  0.00    -0.322 N 
HETATM    9  C   UNL     1      -3.816  -3.891 -33.622  1.00  0.00     0.257 A 
HETATM   10  O   UNL     1      -3.062  -4.844 -33.490  1.00  0.00    -0.267 OA
HETATM   11  C   UNL     1      -6.677  -2.181 -35.135  1.00  0.00     0.031 A 
HETATM   12  C   UNL     1      -7.106  -0.881 -34.799  1.00  0.00     0.012 A 
HETATM   13  C   UNL     1      -6.459  -0.089 -33.806  1.00  0.00    -0.029 A 
HETATM   14  H   UNL     1      -5.131  -4.618 -35.115  1.00  0.00     0.169 HD
ENDROOT
BRANCH  13  15
HETATM   15  C   UNL     1      -7.000   1.288 -33.517  1.00  0.00     0.162 C 
BRANCH  15  16
HETATM   16  N   UNL     1      -8.366   1.420 -33.956  1.00  0.00    -0.351 N 
HETATM   17  C   UNL     1      -9.430   1.435 -33.082  1.00  0.00     0.275 C 
HETATM   18  O   UNL     1      -9.287   1.384 -31.863  1.00  0.00    -0.265 OA
HETATM   19  H   UNL     1      -8.581   1.364 -34.944  1.00  0.00     0.163 HD
BRANCH  17  20
HETATM   20  C   UNL     1     -10.720   1.523 -33.733  1.00  0.00     0.142 A 
HETATM   21  O   UNL     1     -11.668   0.560 -33.493  1.00  0.00    -0.317 OA
HETATM   22  C   UNL     1     -12.760   0.879 -34.235  1.00  0.00     0.143 A 
HETATM   23  C   UNL     1     -12.539   2.033 -34.948  1.00  0.00     0.027 A 
HETATM   24  C   UNL     1     -11.225   2.450 -34.626  1.00  0.00     0.045 A 
ENDBRANCH  17  20
ENDBRANCH  15  16
ENDBRANCH  13  15
TORSDOF 3
ENDMDL
MODEL 5
REMARK VINA RESULT:      -8.2      1.134      2.637
REMARK  3 active torsions:
REMARK  status: ('A' for Active; 'I' for Inactive)
REMARK    1  A    between atoms: C_13  and  C_14 
REMARK    2  A    between atoms: C_14  and  N_15 
REMARK       I    between atoms: N_15  and  C_16 
REMARK    3  A    between atoms: C_16  and  C_17 
ROOT
HETATM    1  C   UNL     1      -6.621  -0.595 -34.551  1.00  0.00     0.002 A 
HETATM    2  C   UNL     1      -6.727  -1.900 -35.064  1.00  0.00     0.018 A 
HETATM    3  C   UNL     1      -5.818  -2.835 -34.580  1.00  0.00     0.045 A 
HETATM    4  C   UNL     1      -4.873  -2.452 -33.641  1.00  0.00     0.017 A 
HETATM    5  C   UNL     1      -4.719  -1.202 -33.114  1.00  0.00    -0.015 A 
HETATM    6  C   UNL     1      -5.641  -0.243 -33.596  1.00  0.00     0.013 A 
HETATM    7  C   UNL     1      -4.105  -3.548 -33.323  1.00  0.00     0.047 A 
HETATM    8  N   UNL     1      -4.576  -4.611 -34.072  1.00  0.00    -0.322 N 
HETATM    9  C   UNL     1      -5.654  -4.243 -34.889  1.00  0.00     0.257 A 
HETATM   10  O   UNL     1      -6.246  -4.998 -35.646  1.00  0.00    -0.267 OA
HETATM   11  C   UNL     1      -3.081  -3.473 -32.402  1.00  0.00     0.031 A 
HETATM   12  C   UNL     1      -2.874  -2.204 -31.826  1.00  0.00     0.012 A 
HETATM   13  C   UNL     1      -3.659  -1.065 -32.170  1.00  0.00    -0.029 A 
HETATM   14  H   UNL     1      -4.212  -5.551 -34.055  1.00  0.00     0.169 HD
ENDROOT
BRANCH  13  15
HETATM   15  C   UNL     1      -3.354   0.251 -31.500  1.00  0.00     0.162 C 
BRANCH  15  16
HETATM   16  N   UNL     1      -3.708   1.365 -32.342  1.00  0.00    -0.351 N 
HETATM   17  C   UNL     1      -3.288   2.652 -32.089  1.00  0.00     0.275 C 
HETATM   18  O   UNL     1      -2.544   2.934 -31.153  1.00  0.00    -0.265 OA
HETATM   19  H   UNL     1      -4.399   1.240 -33.072  1.00  0.00     0.163 HD
BRANCH  17  20
HETATM   20  C   UNL     1      -3.799   3.629 -33.028  1.00  0.00     0.142 A 
HETATM   21  O   UNL     1      -2.928   4.480 -33.662  1.00  0.00    -0.317 OA
HETATM   22  C   UNL     1      -3.671   5.287 -34.463  1.00  0.00     0.143 A 
HETATM   23  C   UNL     1      -5.005   4.973 -34.363  1.00  0.00     0.027 A 
HETATM   24  C   UNL     1      -5.090   3.904 -33.439  1.00  0.00     0.045 A 
ENDBRANCH  17  20
ENDBRANCH  15  16
ENDBRANCH  13  15
TORSDOF 3
ENDMDL
MODEL 6
REMARK VINA RESULT:      -7.7     14.348     16.291
REMARK  3 active torsions:
REMARK  status: ('A' for Active; 'I' for Inactive)
REMARK    1  A    between atoms: C_13  and  C_14 
REMARK    2  A    between atoms: C_14  and  N_15 
REMARK       I    between atoms: N_15  and  C_16 
REMARK    3  A    between atoms: C_16  and  C_17 
ROOT
HETATM    1  C   UNL     1     -10.403 -12.114 -40.096  1.00  0.00     0.002 A 
HETATM    2  C   UNL     1     -11.105 -13.300 -40.372  1.00  0.00     0.018 A 
HETATM    3  C   UNL     1     -10.340 -14.414 -40.703  1.00  0.00     0.045 A 
HETATM    4  C   UNL     1      -8.959 -14.309 -40.748  1.00  0.00     0.017 A 
HETATM    5  C   UNL     1      -8.225 -13.186 -40.498  1.00  0.00    -0.015 A 
HETATM    6  C   UNL     1      -8.993 -12.047 -40.155  1.00  0.00     0.013 A 
HETATM    7  C   UNL     1      -8.439 -15.536 -41.090  1.00  0.00     0.047 A 
HETATM    8  N   UNL     1      -9.505 -16.401 -41.262  1.00  0.00    -0.322 N 
HETATM    9  C   UNL     1     -10.736 -15.769 -41.037  1.00  0.00     0.257 A 
HETATM   10  O   UNL     1     -11.827 -16.314 -41.125  1.00  0.00    -0.267 OA
HETATM   11  C   UNL     1      -7.080 -15.742 -41.205  1.00  0.00     0.031 A 
HETATM   12  C   UNL     1      -6.273 -14.613 -40.959  1.00  0.00     0.012 A 
HETATM   13  C   UNL     1      -6.814 -13.338 -40.622  1.00  0.00    -0.029 A 
HETATM   14  H   UNL     1      -9.440 -17.374 -41.517  1.00  0.00     0.169 HD
ENDROOT
BRANCH  13  15
HETATM   15  C   UNL     1      -5.863 -12.192 -40.384  1.00  0.00     0.162 C 
BRANCH  15  16
HETATM   16  N   UNL     1      -4.519 -12.661 -40.162  1.00  0.00    -0.351 N 
HETATM   17  C   UNL     1      -3.900 -12.592 -38.934  1.00  0.00     0.275 C 
HETATM   18  O   UNL     1      -4.465 -12.167 -37.930  1.00  0.00    -0.265 OA
HETATM   19  H   UNL     1      -3.946 -12.930 -40.954  1.00  0.00     0.163 HD
BRANCH  17  20
HETATM   20  C   UNL     1      -2.533 -13.069 -38.941  1.00  0.00     0.142 A 
HETATM   21  O   UNL     1      -2.093 -13.853 -39.979  1.00  0.00    -0.317 OA
HETATM   22  C   UNL     1      -0.796 -14.164 -39.724  1.00  0.00     0.143 A 
HETATM   23  C   UNL     1      -0.385 -13.594 -38.542  1.00  0.00     0.027 A 
HETATM   24  C   UNL     1      -1.502 -12.887 -38.037  1.00  0.00     0.045 A 
ENDBRANCH  17  20
ENDBRANCH  15  16
ENDBRANCH  13  15
TORSDOF 3
ENDMDL
MODEL 7
REMARK VINA RESULT:      -7.7      3.078      4.199
REMARK  3 active torsions:
REMARK  status: ('A' for Active; 'I' for Inactive)
REMARK    1  A    between atoms: C_13  and  C_14 
REMARK    2  A    between atoms: C_14  and  N_15 
REMARK       I    between atoms: N_15  and  C_16 
REMARK    3  A    between atoms: C_16  and  C_17 
ROOT
HETATM    1  C   UNL     1      -6.119  -0.936 -34.131  1.00  0.00     0.002 A 
HETATM    2  C   UNL     1      -7.506  -0.918 -33.896  1.00  0.00     0.018 A 
HETATM    3  C   UNL     1      -7.956  -0.075 -32.885  1.00  0.00     0.045 A 
HETATM    4  C   UNL     1      -7.045   0.688 -32.172  1.00  0.00     0.017 A 
HETATM    5  C   UNL     1      -5.691   0.706 -32.350  1.00  0.00    -0.015 A 
HETATM    6  C   UNL     1      -5.223  -0.145 -33.379  1.00  0.00     0.013 A 
HETATM    7  C   UNL     1      -7.733   1.433 -31.243  1.00  0.00     0.047 A 
HETATM    8  N   UNL     1      -9.074   1.125 -31.381  1.00  0.00    -0.322 N 
HETATM    9  C   UNL     1      -9.296   0.182 -32.394  1.00  0.00     0.257 A 
HETATM   10  O   UNL     1     -10.392  -0.255 -32.713  1.00  0.00    -0.267 OA
HETATM   11  C   UNL     1      -7.087   2.300 -30.386  1.00  0.00     0.031 A 
HETATM   12  C   UNL     1      -5.686   2.359 -30.524  1.00  0.00     0.012 A 
HETATM   13  C   UNL     1      -4.972   1.572 -31.475  1.00  0.00    -0.029 A 
HETATM   14  H   UNL     1      -9.828   1.514 -30.835  1.00  0.00     0.169 HD
ENDROOT
BRANCH  13  15
HETATM   15  C   UNL     1      -3.472   1.704 -31.539  1.00  0.00     0.162 C 
BRANCH  15  16
HETATM   16  N   UNL     1      -3.041   3.015 -31.123  1.00  0.00    -0.351 N 
HETATM   17  C   UNL     1      -2.565   3.957 -32.007  1.00  0.00     0.275 C 
HETATM   18  O   UNL     1      -2.516   3.764 -33.219  1.00  0.00    -0.265 OA
HETATM   19  H   UNL     1      -2.951   3.221 -30.135  1.00  0.00     0.163 HD
BRANCH  17  20
HETATM   20  C   UNL     1      -2.137   5.188 -31.375  1.00  0.00     0.142 A 
HETATM   21  O   UNL     1      -3.039   5.928 -30.652  1.00  0.00    -0.317 OA
HETATM   22  C   UNL     1      -2.380   7.022 -30.189  1.00  0.00     0.143 A 
HETATM   23  C   UNL     1      -1.067   7.003 -30.596  1.00  0.00     0.027 A 
HETATM   24  C   UNL     1      -0.908   5.821 -31.359  1.00  0.00     0.045 A 
ENDBRANCH  17  20
ENDBRANCH  15  16
ENDBRANCH  13  15
TORSDOF 3
ENDMDL
MODEL 8
REMARK VINA RESULT:      -7.5      2.673      7.314
REMARK  3 active torsions:
REMARK  status: ('A' for Active; 'I' for Inactive)
REMARK    1  A    between atoms: C_13  and  C_14 
REMARK    2  A    between atoms: C_14  and  N_15 
REMARK       I    between atoms: N_15  and  C_16 
REMARK    3  A    between atoms: C_16  and  C_17 
ROOT
HETATM    1  C   UNL     1      -3.659   4.371 -31.841  1.00  0.00     0.002 A 
HETATM    2  C   UNL     1      -4.654   4.836 -30.963  1.00  0.00     0.018 A 
HETATM    3  C   UNL     1      -5.471   3.872 -30.381  1.00  0.00     0.045 A 
HETATM    4  C   UNL     1      -5.277   2.534 -30.684  1.00  0.00     0.017 A 
HETATM    5  C   UNL     1      -4.335   2.026 -31.532  1.00  0.00    -0.015 A 
HETATM    6  C   UNL     1      -3.495   2.997 -32.127  1.00  0.00     0.013 A 
HETATM    7  C   UNL     1      -6.198   1.790 -29.984  1.00  0.00     0.047 A 
HETATM    8  N   UNL     1      -6.967   2.674 -29.249  1.00  0.00    -0.322 N 
HETATM    9  C   UNL     1      -6.572   4.005 -29.446  1.00  0.00     0.257 A 
HETATM   10  O   UNL     1      -7.092   4.973 -28.912  1.00  0.00    -0.267 OA
HETATM   11  C   UNL     1      -6.243   0.415 -30.079  1.00  0.00     0.031 A 
HETATM   12  C   UNL     1      -5.293  -0.165 -30.944  1.00  0.00     0.012 A 
HETATM   13  C   UNL     1      -4.350   0.609 -31.683  1.00  0.00    -0.029 A 
HETATM   14  H   UNL     1      -7.728   2.425 -28.636  1.00  0.00     0.169 HD
ENDROOT
BRANCH  13  15
HETATM   15  C   UNL     1      -3.378  -0.108 -32.585  1.00  0.00     0.162 C 
BRANCH  15  16
HETATM   16  N   UNL     1      -3.943  -1.329 -33.102  1.00  0.00    -0.351 N 
HETATM   17  C   UNL     1      -5.022  -1.346 -33.956  1.00  0.00     0.275 C 
HETATM   18  O   UNL     1      -5.552  -0.321 -34.375  1.00  0.00    -0.265 OA
HETATM   19  H   UNL     1      -3.635  -2.220 -32.729  1.00  0.00     0.163 HD
BRANCH  17  20
HETATM   20  C   UNL     1      -5.463  -2.679 -34.314  1.00  0.00     0.142 A 
HETATM   21  O   UNL     1      -4.592  -3.733 -34.206  1.00  0.00    -0.317 OA
HETATM   22  C   UNL     1      -5.256  -4.845 -34.615  1.00  0.00     0.143 A 
HETATM   23  C   UNL     1      -6.544  -4.531 -34.982  1.00  0.00     0.027 A 
HETATM   24  C   UNL     1      -6.680  -3.136 -34.787  1.00  0.00     0.045 A 
ENDBRANCH  17  20
ENDBRANCH  15  16
ENDBRANCH  13  15
TORSDOF 3
ENDMDL
MODEL 9
REMARK VINA RESULT:      -7.5      4.011      5.282
REMARK  3 active torsions:
REMARK  status: ('A' for Active; 'I' for Inactive)
REMARK    1  A    between atoms: C_13  and  C_14 
REMARK    2  A    between atoms: C_14  and  N_15 
REMARK       I    between atoms: N_15  and  C_16 
REMARK    3  A    between atoms: C_16  and  C_17 
ROOT
HETATM    1  C   UNL     1      -5.946   0.743 -30.136  1.00  0.00     0.002 A 
HETATM    2  C   UNL     1      -4.663   0.242 -30.418  1.00  0.00     0.018 A 
HETATM    3  C   UNL     1      -4.510  -0.438 -31.622  1.00  0.00     0.045 A 
HETATM    4  C   UNL     1      -5.598  -0.590 -32.467  1.00  0.00     0.017 A 
HETATM    5  C   UNL     1      -6.865  -0.133 -32.243  1.00  0.00    -0.015 A 
HETATM    6  C   UNL     1      -7.031   0.565 -31.023  1.00  0.00     0.013 A 
HETATM    7  C   UNL     1      -5.191  -1.286 -33.581  1.00  0.00     0.047 A 
HETATM    8  N   UNL     1      -3.847  -1.569 -33.421  1.00  0.00    -0.322 N 
HETATM    9  C   UNL     1      -3.344  -1.068 -32.212  1.00  0.00     0.257 A 
HETATM   10  O   UNL     1      -2.187  -1.186 -31.835  1.00  0.00    -0.267 OA
HETATM   11  C   UNL     1      -6.062  -1.584 -34.609  1.00  0.00     0.031 A 
HETATM   12  C   UNL     1      -7.386  -1.136 -34.430  1.00  0.00     0.012 A 
HETATM   13  C   UNL     1      -7.811  -0.431 -33.266  1.00  0.00    -0.029 A 
HETATM   14  H   UNL     1      -3.268  -2.071 -34.076  1.00  0.00     0.169 HD
ENDROOT
BRANCH  13  15
HETATM   15  C   UNL     1      -9.253  -0.000 -33.170  1.00  0.00     0.162 C 
BRANCH  15  16
HETATM   16  N   UNL     1      -9.465   1.273 -33.811  1.00  0.00    -0.351 N 
HETATM   17  C   UNL     1      -9.724   2.426 -33.105  1.00  0.00     0.275 C 
HETATM   18  O   UNL     1      -9.747   2.462 -31.878  1.00  0.00    -0.265 OA
HETATM   19  H   UNL     1      -9.566   1.315 -34.818  1.00  0.00     0.163 HD
BRANCH  17  20
HETATM   20  C   UNL     1      -9.958   3.584 -33.944  1.00  0.00     0.142 A 
HETATM   21  O   UNL     1     -10.946   3.543 -34.896  1.00  0.00    -0.317 OA
HETATM   22  C   UNL     1     -10.935   4.741 -35.536  1.00  0.00     0.143 A 
HETATM   23  C   UNL     1      -9.962   5.559 -35.013  1.00  0.00     0.027 A 
HETATM   24  C   UNL     1      -9.332   4.816 -33.986  1.00  0.00     0.045 A 
ENDBRANCH  17  20
ENDBRANCH  15  16
ENDBRANCH  13  15
TORSDOF 3
ENDMDL
MODEL 10
REMARK VINA RESULT:      -7.4     13.894     15.993
REMARK  3 active torsions:
REMARK  status: ('A' for Active; 'I' for Inactive)
REMARK    1  A    between atoms: C_13  and  C_14 
REMARK    2  A    between atoms: C_14  and  N_15 
REMARK       I    between atoms: N_15  and  C_16 
REMARK    3  A    between atoms: C_16  and  C_17 
ROOT
HETATM    1  C   UNL     1     -10.158 -12.365 -40.033  1.00  0.00     0.002 A 
HETATM    2  C   UNL     1     -10.779 -13.436 -40.700  1.00  0.00     0.018 A 
HETATM    3  C   UNL     1     -10.424 -14.716 -40.288  1.00  0.00     0.045 A 
HETATM    4  C   UNL     1      -9.499 -14.877 -39.269  1.00  0.00     0.017 A 
HETATM    5  C   UNL     1      -8.860 -13.878 -38.592  1.00  0.00    -0.015 A 
HETATM    6  C   UNL     1      -9.217 -12.571 -39.000  1.00  0.00     0.013 A 
HETATM    7  C   UNL     1      -9.325 -16.224 -39.046  1.00  0.00     0.047 A 
HETATM    8  N   UNL     1     -10.143 -16.896 -39.936  1.00  0.00    -0.322 N 
HETATM    9  C   UNL     1     -10.867 -16.017 -40.753  1.00  0.00     0.257 A 
HETATM   10  O   UNL     1     -11.658 -16.361 -41.619  1.00  0.00    -0.267 OA
HETATM   11  C   UNL     1      -8.463 -16.693 -38.077  1.00  0.00     0.031 A 
HETATM   12  C   UNL     1      -7.774 -15.704 -37.347  1.00  0.00     0.012 A 
HETATM   13  C   UNL     1      -7.942 -14.309 -37.591  1.00  0.00    -0.029 A 
HETATM   14  H   UNL     1     -10.233 -17.897 -40.013  1.00  0.00     0.169 HD
ENDROOT
BRANCH  13  15
HETATM   15  C   UNL     1      -7.153 -13.331 -36.758  1.00  0.00     0.162 C 
BRANCH  15  16
HETATM   16  N   UNL     1      -5.794 -13.220 -37.223  1.00  0.00    -0.351 N 
HETATM   17  C   UNL     1      -4.711 -13.257 -36.373  1.00  0.00     0.275 C 
HETATM   18  O   UNL     1      -4.824 -13.432 -35.163  1.00  0.00    -0.265 OA
HETATM   19  H   UNL     1      -5.614 -12.971 -38.189  1.00  0.00     0.163 HD
BRANCH  17  20
HETATM   20  C   UNL     1      -3.438 -13.075 -37.039  1.00  0.00     0.142 A 
HETATM   21  O   UNL     1      -3.241 -11.975 -37.836  1.00  0.00    -0.317 OA
HETATM   22  C   UNL     1      -1.982 -12.066 -38.339  1.00  0.00     0.143 A 
HETATM   23  C   UNL     1      -1.359 -13.203 -37.880  1.00  0.00     0.027 A 
HETATM   24  C   UNL     1      -2.295 -13.854 -37.042  1.00  0.00     0.045 A 
ENDBRANCH  17  20
ENDBRANCH  15  16
ENDBRANCH  13  15
TORSDOF 3
ENDMDL
