MODEL 1
REMARK VINA RESULT:      -8.4      0.000      0.000
REMARK  4 active torsions:
REMARK  status: ('A' for Active; 'I' for Inactive)
REMARK    1  A    between atoms: N_4  and  C_5 
REMARK    2  A    between atoms: C_13  and  C_14 
REMARK    3  A    between atoms: N_15  and  C_17 
REMARK    4  A    between atoms: C_17  and  C_18 
ROOT
HETATM    1  C   UNL     1      -8.532   5.235 -34.108  1.00  0.00     0.095 C 
HETATM    2  C   UNL     1      -7.294   4.498 -33.777  1.00  0.00     0.144 A 
HETATM    3  N   UNL     1      -6.083   4.876 -34.199  1.00  0.00    -0.156 NA
HETATM    4  N   UNL     1      -5.270   3.993 -33.594  1.00  0.00    -0.247 N 
HETATM    5  C   UNL     1      -6.003   3.080 -32.878  1.00  0.00     0.156 A 
HETATM    6  N   UNL     1      -7.287   3.370 -33.005  1.00  0.00    -0.215 NA
ENDROOT
BRANCH   5   7
HETATM    7  C   UNL     1      -5.495   1.951 -32.026  1.00  0.00     0.259 C 
HETATM    8  N   UNL     1      -6.186   0.646 -32.437  1.00  0.00    -0.056 N 
HETATM    9  H   UNL     1      -7.182   0.915 -32.457  1.00  0.00     0.281 HD
HETATM   10  C   UNL     1      -6.090  -0.504 -31.471  1.00  0.00     0.236 C 
HETATM   11  C   UNL     1      -6.503  -0.072 -30.078  1.00  0.00     0.028 C 
HETATM   12  C   UNL     1      -5.656   1.099 -29.614  1.00  0.00     0.004 C 
HETATM   13  C   UNL     1      -5.834   2.277 -30.558  1.00  0.00     0.041 C 
BRANCH   8  14
HETATM   14  C   UNL     1      -5.923   0.207 -33.876  1.00  0.00     0.274 C 
BRANCH  14  15
HETATM   15  C   UNL     1      -5.811  -1.275 -34.153  1.00  0.00    -0.033 A 
HETATM   16  C   UNL     1      -6.897  -2.054 -34.577  1.00  0.00     0.009 A 
HETATM   17  C   UNL     1      -6.741  -3.414 -34.864  1.00  0.00     0.001 A 
HETATM   18  C   UNL     1      -5.489  -4.009 -34.763  1.00  0.00     0.000 A 
HETATM   19  C   UNL     1      -4.390  -3.248 -34.377  1.00  0.00     0.001 A 
HETATM   20  C   UNL     1      -4.550  -1.893 -34.072  1.00  0.00     0.009 A 
ENDBRANCH  14  15
ENDBRANCH   8  14
ENDBRANCH   5   7
BRANCH   4  21
HETATM   21  C   UNL     1      -3.829   4.115 -33.795  1.00  0.00     0.115 C 
HETATM   22  C   UNL     1      -3.006   3.644 -32.584  1.00  0.00     0.055 C 
HETATM   23  C   UNL     1      -2.971   4.636 -31.422  1.00  0.00     0.236 C 
HETATM   24  N   UNL     1      -2.570   6.006 -31.912  1.00  0.00    -0.075 N 
HETATM   25  H   UNL     1      -1.603   5.953 -32.261  1.00  0.00     0.279 HD
HETATM   26  C   UNL     1      -2.529   6.993 -30.764  1.00  0.00     0.269 C 
HETATM   27  C   UNL     1      -3.452   6.519 -33.020  1.00  0.00     0.236 C 
HETATM   28  C   UNL     1      -3.430   5.542 -34.188  1.00  0.00     0.055 C 
ENDBRANCH   4  21
TORSDOF 4
ENDMDL
MODEL 2
REMARK VINA RESULT:      -8.0      2.052      3.322
REMARK  4 active torsions:
REMARK  status: ('A' for Active; 'I' for Inactive)
REMARK    1  A    between atoms: N_4  and  C_5 
REMARK    2  A    between atoms: C_13  and  C_14 
REMARK    3  A    between atoms: N_15  and  C_17 
REMARK    4  A    between atoms: C_17  and  C_18 
ROOT
HETATM    1  C   UNL     1      -7.519   3.291 -29.727  1.00  0.00     0.095 C 
HETATM    2  C   UNL     1      -6.517   3.045 -30.785  1.00  0.00     0.144 A 
HETATM    3  N   UNL     1      -5.974   4.023 -31.517  1.00  0.00    -0.156 NA
HETATM    4  N   UNL     1      -5.071   3.364 -32.267  1.00  0.00    -0.247 N 
HETATM    5  C   UNL     1      -5.132   2.017 -32.013  1.00  0.00     0.156 A 
HETATM    6  N   UNL     1      -6.060   1.796 -31.099  1.00  0.00    -0.215 NA
ENDROOT
BRANCH   5   7
HETATM    7  C   UNL     1      -4.280   0.928 -32.601  1.00  0.00     0.259 C 
HETATM    8  N   UNL     1      -5.176  -0.193 -33.141  1.00  0.00    -0.056 N 
HETATM    9  H   UNL     1      -5.822  -0.363 -32.354  1.00  0.00     0.281 HD
HETATM   10  C   UNL     1      -4.513  -1.514 -33.422  1.00  0.00     0.236 C 
HETATM   11  C   UNL     1      -3.707  -1.977 -32.225  1.00  0.00     0.028 C 
HETATM   12  C   UNL     1      -2.682  -0.926 -31.839  1.00  0.00     0.004 C 
HETATM   13  C   UNL     1      -3.379   0.375 -31.478  1.00  0.00     0.041 C 
BRANCH   8  14
HETATM   14  C   UNL     1      -6.116   0.227 -34.268  1.00  0.00     0.274 C 
BRANCH  14  15
HETATM   15  C   UNL     1      -7.562   0.498 -33.917  1.00  0.00    -0.033 A 
HETATM   16  C   UNL     1      -8.351  -0.405 -33.191  1.00  0.00     0.009 A 
HETATM   17  C   UNL     1      -9.672  -0.097 -32.849  1.00  0.00     0.001 A 
HETATM   18  C   UNL     1     -10.215   1.134 -33.200  1.00  0.00     0.000 A 
HETATM   19  C   UNL     1      -9.439   2.060 -33.891  1.00  0.00     0.001 A 
HETATM   20  C   UNL     1      -8.125   1.744 -34.249  1.00  0.00     0.009 A 
ENDBRANCH  14  15
ENDBRANCH   8  14
ENDBRANCH   5   7
BRANCH   4  21
HETATM   21  C   UNL     1      -4.236   4.127 -33.189  1.00  0.00     0.115 C 
HETATM   22  C   UNL     1      -2.730   3.902 -32.971  1.00  0.00     0.055 C 
HETATM   23  C   UNL     1      -2.151   4.642 -31.767  1.00  0.00     0.236 C 
HETATM   24  N   UNL     1      -2.528   6.103 -31.815  1.00  0.00    -0.075 N 
HETATM   25  H   UNL     1      -2.081   6.524 -32.642  1.00  0.00     0.279 HD
HETATM   26  C   UNL     1      -1.952   6.844 -30.627  1.00  0.00     0.269 C 
HETATM   27  C   UNL     1      -4.014   6.326 -31.910  1.00  0.00     0.236 C 
HETATM   28  C   UNL     1      -4.563   5.624 -33.145  1.00  0.00     0.055 C 
ENDBRANCH   4  21
TORSDOF 4
ENDMDL
MODEL 3
REMARK VINA RESULT:      -8.0      3.212      4.348
REMARK  4 active torsions:
REMARK  status: ('A' for Active; 'I' for Inactive)
REMARK    1  A    between atoms: N_4  and  C_5 
REMARK    2  A    between atoms: C_13  and  C_14 
REMARK    3  A    between atoms: N_15  and  C_17 
REMARK    4  A    between atoms: C_17  and  C_18 
ROOT
HETATM    1  C   UNL     1     -11.978  -0.058 -33.471  1.00  0.00     0.095 C 
HETATM    2  C   UNL     1     -10.759   0.778 -33.469  1.00  0.00     0.144 A 
HETATM    3  N   UNL     1     -10.680   1.957 -34.093  1.00  0.00    -0.156 NA
HETATM    4  N   UNL     1      -9.455   2.392 -33.751  1.00  0.00    -0.247 N 
HETATM    5  C   UNL     1      -8.810   1.452 -32.987  1.00  0.00     0.156 A 
HETATM    6  N   UNL     1      -9.611   0.414 -32.822  1.00  0.00    -0.215 NA
ENDROOT
BRANCH   5   7
HETATM    7  C   UNL     1      -7.445   1.546 -32.365  1.00  0.00     0.259 C 
HETATM    8  N   UNL     1      -6.716   0.207 -32.520  1.00  0.00    -0.056 N 
HETATM    9  H   UNL     1      -7.423  -0.473 -32.198  1.00  0.00     0.281 HD
HETATM   10  C   UNL     1      -5.508  -0.011 -31.649  1.00  0.00     0.236 C 
HETATM   11  C   UNL     1      -5.833   0.278 -30.197  1.00  0.00     0.028 C 
HETATM   12  C   UNL     1      -6.363   1.692 -30.046  1.00  0.00     0.004 C 
HETATM   13  C   UNL     1      -7.630   1.865 -30.868  1.00  0.00     0.041 C 
BRANCH   8  14
HETATM   14  C   UNL     1      -6.465  -0.222 -33.964  1.00  0.00     0.274 C 
BRANCH  14  15
HETATM   15  C   UNL     1      -6.141  -1.677 -34.222  1.00  0.00    -0.033 A 
HETATM   16  C   UNL     1      -7.116  -2.624 -34.564  1.00  0.00     0.009 A 
HETATM   17  C   UNL     1      -6.768  -3.951 -34.837  1.00  0.00     0.001 A 
HETATM   18  C   UNL     1      -5.435  -4.344 -34.804  1.00  0.00     0.000 A 
HETATM   19  C   UNL     1      -4.447  -3.413 -34.500  1.00  0.00     0.001 A 
HETATM   20  C   UNL     1      -4.797  -2.091 -34.209  1.00  0.00     0.009 A 
ENDBRANCH  14  15
ENDBRANCH   8  14
ENDBRANCH   5   7
BRANCH   4  21
HETATM   21  C   UNL     1      -9.016   3.699 -34.230  1.00  0.00     0.115 C 
HETATM   22  C   UNL     1      -8.263   4.514 -33.165  1.00  0.00     0.055 C 
HETATM   23  C   UNL     1      -9.162   5.155 -32.110  1.00  0.00     0.236 C 
HETATM   24  N   UNL     1     -10.276   5.933 -32.769  1.00  0.00    -0.075 N 
HETATM   25  H   UNL     1      -9.857   6.716 -33.290  1.00  0.00     0.279 HD
HETATM   26  C   UNL     1     -11.168   6.575 -31.728  1.00  0.00     0.269 C 
HETATM   27  C   UNL     1     -11.089   5.102 -33.726  1.00  0.00     0.236 C 
HETATM   28  C   UNL     1     -10.182   4.516 -34.800  1.00  0.00     0.055 C 
ENDBRANCH   4  21
TORSDOF 4
ENDMDL
MODEL 4
REMARK VINA RESULT:      -7.9      1.937      3.605
REMARK  4 active torsions:
REMARK  status: ('A' for Active; 'I' for Inactive)
REMARK    1  A    between atoms: N_4  and  C_5 
REMARK    2  A    between atoms: C_13  and  C_14 
REMARK    3  A    between atoms: N_15  and  C_17 
REMARK    4  A    between atoms: C_17  and  C_18 
ROOT
HETATM    1  C   UNL     1      -2.570   0.070 -30.940  1.00  0.00     0.095 C 
HETATM    2  C   UNL     1      -3.946   0.499 -31.270  1.00  0.00     0.144 A 
HETATM    3  N   UNL     1      -4.345   1.774 -31.221  1.00  0.00    -0.156 NA
HETATM    4  N   UNL     1      -5.607   1.707 -31.682  1.00  0.00    -0.247 N 
HETATM    5  C   UNL     1      -5.952   0.404 -31.940  1.00  0.00     0.156 A 
HETATM    6  N   UNL     1      -4.922  -0.375 -31.659  1.00  0.00    -0.215 NA
ENDROOT
BRANCH   5   7
HETATM    7  C   UNL     1      -7.247  -0.114 -32.500  1.00  0.00     0.259 C 
HETATM    8  N   UNL     1      -7.333   0.220 -33.993  1.00  0.00    -0.056 N 
HETATM    9  H   UNL     1      -7.085   1.223 -34.014  1.00  0.00     0.281 HD
HETATM   10  C   UNL     1      -8.691   0.119 -34.633  1.00  0.00     0.236 C 
HETATM   11  C   UNL     1      -9.721   0.890 -33.832  1.00  0.00     0.028 C 
HETATM   12  C   UNL     1      -9.758   0.391 -32.399  1.00  0.00     0.004 C 
HETATM   13  C   UNL     1      -8.398   0.582 -31.746  1.00  0.00     0.041 C 
BRANCH   8  14
HETATM   14  C   UNL     1      -6.246  -0.416 -34.855  1.00  0.00     0.274 C 
BRANCH  14  15
HETATM   15  C   UNL     1      -6.001  -1.901 -34.700  1.00  0.00    -0.033 A 
HETATM   16  C   UNL     1      -7.000  -2.862 -34.907  1.00  0.00     0.009 A 
HETATM   17  C   UNL     1      -6.721  -4.228 -34.795  1.00  0.00     0.001 A 
HETATM   18  C   UNL     1      -5.430  -4.656 -34.507  1.00  0.00     0.000 A 
HETATM   19  C   UNL     1      -4.415  -3.721 -34.333  1.00  0.00     0.001 A 
HETATM   20  C   UNL     1      -4.698  -2.355 -34.425  1.00  0.00     0.009 A 
ENDBRANCH  14  15
ENDBRANCH   8  14
ENDBRANCH   5   7
BRANCH   4  21
HETATM   21  C   UNL     1      -6.373   2.942 -31.808  1.00  0.00     0.115 C 
HETATM   22  C   UNL     1      -6.517   3.420 -33.263  1.00  0.00     0.055 C 
HETATM   23  C   UNL     1      -5.267   4.087 -33.834  1.00  0.00     0.236 C 
HETATM   24  N   UNL     1      -4.777   5.170 -32.903  1.00  0.00    -0.075 N 
HETATM   25  H   UNL     1      -5.492   5.909 -32.863  1.00  0.00     0.279 HD
HETATM   26  C   UNL     1      -3.540   5.839 -33.466  1.00  0.00     0.269 C 
HETATM   27  C   UNL     1      -4.522   4.674 -31.504  1.00  0.00     0.236 C 
HETATM   28  C   UNL     1      -5.795   4.061 -30.935  1.00  0.00     0.055 C 
ENDBRANCH   4  21
TORSDOF 4
ENDMDL
MODEL 5
REMARK VINA RESULT:      -7.8      2.361      6.061
REMARK  4 active torsions:
REMARK  status: ('A' for Active; 'I' for Inactive)
REMARK    1  A    between atoms: N_4  and  C_5 
REMARK    2  A    between atoms: C_13  and  C_14 
REMARK    3  A    between atoms: N_15  and  C_17 
REMARK    4  A    between atoms: C_17  and  C_18 
ROOT
HETATM    1  C   UNL     1      -5.988   4.131 -34.454  1.00  0.00     0.095 C 
HETATM    2  C   UNL     1      -6.444   2.879 -33.813  1.00  0.00     0.144 A 
HETATM    3  N   UNL     1      -7.514   2.814 -33.016  1.00  0.00    -0.156 NA
HETATM    4  N   UNL     1      -7.604   1.500 -32.747  1.00  0.00    -0.247 N 
HETATM    5  C   UNL     1      -6.566   0.820 -33.334  1.00  0.00     0.156 A 
HETATM    6  N   UNL     1      -5.808   1.682 -33.989  1.00  0.00    -0.215 NA
ENDROOT
BRANCH   5   7
HETATM    7  C   UNL     1      -6.306  -0.660 -33.318  1.00  0.00     0.259 C 
HETATM    8  N   UNL     1      -4.868  -0.925 -32.858  1.00  0.00    -0.056 N 
HETATM    9  H   UNL     1      -4.320  -0.275 -33.445  1.00  0.00     0.281 HD
HETATM   10  C   UNL     1      -4.311  -2.296 -33.132  1.00  0.00     0.236 C 
HETATM   11  C   UNL     1      -4.506  -2.674 -34.587  1.00  0.00     0.028 C 
HETATM   12  C   UNL     1      -5.976  -2.601 -34.960  1.00  0.00     0.004 C 
HETATM   13  C   UNL     1      -6.496  -1.187 -34.755  1.00  0.00     0.041 C 
BRANCH   8  14
HETATM   14  C   UNL     1      -4.551  -0.452 -31.442  1.00  0.00     0.274 C 
BRANCH  14  15
HETATM   15  C   UNL     1      -4.356   1.031 -31.220  1.00  0.00    -0.033 A 
HETATM   16  C   UNL     1      -3.367   1.775 -31.880  1.00  0.00     0.009 A 
HETATM   17  C   UNL     1      -3.248   3.154 -31.679  1.00  0.00     0.001 A 
HETATM   18  C   UNL     1      -4.135   3.817 -30.840  1.00  0.00     0.000 A 
HETATM   19  C   UNL     1      -5.145   3.105 -30.201  1.00  0.00     0.001 A 
HETATM   20  C   UNL     1      -5.254   1.723 -30.387  1.00  0.00     0.009 A 
ENDBRANCH  14  15
ENDBRANCH   8  14
ENDBRANCH   5   7
BRANCH   4  21
HETATM   21  C   UNL     1      -8.704   1.029 -31.911  1.00  0.00     0.115 C 
HETATM   22  C   UNL     1      -9.745   0.204 -32.687  1.00  0.00     0.055 C 
HETATM   23  C   UNL     1     -10.696   1.036 -33.544  1.00  0.00     0.236 C 
HETATM   24  N   UNL     1     -11.313   2.143 -32.723  1.00  0.00    -0.075 N 
HETATM   25  H   UNL     1     -11.900   1.714 -31.993  1.00  0.00     0.279 HD
HETATM   26  C   UNL     1     -12.262   2.968 -33.566  1.00  0.00     0.269 C 
HETATM   27  C   UNL     1     -10.290   3.024 -32.058  1.00  0.00     0.236 C 
HETATM   28  C   UNL     1      -9.386   2.183 -31.167  1.00  0.00     0.055 C 
ENDBRANCH   4  21
TORSDOF 4
ENDMDL
MODEL 6
REMARK VINA RESULT:      -7.7      2.710      7.943
REMARK  4 active torsions:
REMARK  status: ('A' for Active; 'I' for Inactive)
REMARK    1  A    between atoms: N_4  and  C_5 
REMARK    2  A    between atoms: C_13  and  C_14 
REMARK    3  A    between atoms: N_15  and  C_17 
REMARK    4  A    between atoms: C_17  and  C_18 
ROOT
HETATM    1  C   UNL     1      -6.353   5.483 -29.066  1.00  0.00     0.095 C 
HETATM    2  C   UNL     1      -5.442   4.665 -29.893  1.00  0.00     0.144 A 
HETATM    3  N   UNL     1      -5.430   3.329 -29.864  1.00  0.00    -0.156 NA
HETATM    4  N   UNL     1      -4.536   3.020 -30.821  1.00  0.00    -0.247 N 
HETATM    5  C   UNL     1      -3.996   4.162 -31.357  1.00  0.00     0.156 A 
HETATM    6  N   UNL     1      -4.539   5.210 -30.762  1.00  0.00    -0.215 NA
ENDROOT
BRANCH   5   7
HETATM    7  C   UNL     1      -2.994   4.274 -32.471  1.00  0.00     0.259 C 
HETATM    8  N   UNL     1      -1.915   5.295 -32.092  1.00  0.00    -0.056 N 
HETATM    9  H   UNL     1      -2.472   6.101 -31.768  1.00  0.00     0.281 HD
HETATM   10  C   UNL     1      -1.050   5.813 -33.208  1.00  0.00     0.236 C 
HETATM   11  C   UNL     1      -1.901   6.308 -34.361  1.00  0.00     0.028 C 
HETATM   12  C   UNL     1      -2.819   5.204 -34.853  1.00  0.00     0.004 C 
HETATM   13  C   UNL     1      -3.741   4.754 -33.731  1.00  0.00     0.041 C 
BRANCH   8  14
HETATM   14  C   UNL     1      -1.095   4.930 -30.855  1.00  0.00     0.274 C 
BRANCH  14  15
HETATM   15  C   UNL     1      -0.641   6.056 -29.953  1.00  0.00    -0.033 A 
HETATM   16  C   UNL     1      -1.268   7.310 -29.927  1.00  0.00     0.009 A 
HETATM   17  C   UNL     1      -0.843   8.309 -29.046  1.00  0.00     0.001 A 
HETATM   18  C   UNL     1       0.194   8.060 -28.154  1.00  0.00     0.000 A 
HETATM   19  C   UNL     1       0.807   6.812 -28.139  1.00  0.00     0.001 A 
HETATM   20  C   UNL     1       0.396   5.818 -29.032  1.00  0.00     0.009 A 
ENDBRANCH  14  15
ENDBRANCH   8  14
ENDBRANCH   5   7
BRANCH   4  21
HETATM   21  C   UNL     1      -4.278   1.612 -31.110  1.00  0.00     0.115 C 
HETATM   22  C   UNL     1      -4.353   1.277 -32.609  1.00  0.00     0.055 C 
HETATM   23  C   UNL     1      -5.774   1.173 -33.160  1.00  0.00     0.236 C 
HETATM   24  N   UNL     1      -6.603   0.246 -32.306  1.00  0.00    -0.075 N 
HETATM   25  H   UNL     1      -6.206  -0.702 -32.380  1.00  0.00     0.279 HD
HETATM   26  C   UNL     1      -8.012   0.133 -32.850  1.00  0.00     0.269 C 
HETATM   27  C   UNL     1      -6.626   0.643 -30.854  1.00  0.00     0.236 C 
HETATM   28  C   UNL     1      -5.204   0.689 -30.310  1.00  0.00     0.055 C 
ENDBRANCH   4  21
TORSDOF 4
ENDMDL
MODEL 7
REMARK VINA RESULT:      -7.7      2.676      5.408
REMARK  4 active torsions:
REMARK  status: ('A' for Active; 'I' for Inactive)
REMARK    1  A    between atoms: N_4  and  C_5 
REMARK    2  A    between atoms: C_13  and  C_14 
REMARK    3  A    between atoms: N_15  and  C_17 
REMARK    4  A    between atoms: C_17  and  C_18 
ROOT
HETATM    1  C   UNL     1      -2.249   4.362 -33.406  1.00  0.00     0.095 C 
HETATM    2  C   UNL     1      -3.264   3.585 -32.665  1.00  0.00     0.144 A 
HETATM    3  N   UNL     1      -3.046   2.349 -32.204  1.00  0.00    -0.156 NA
HETATM    4  N   UNL     1      -4.179   2.080 -31.531  1.00  0.00    -0.247 N 
HETATM    5  C   UNL     1      -5.064   3.122 -31.649  1.00  0.00     0.156 A 
HETATM    6  N   UNL     1      -4.511   4.071 -32.386  1.00  0.00    -0.215 NA
ENDROOT
BRANCH   5   7
HETATM    7  C   UNL     1      -6.426   3.252 -31.027  1.00  0.00     0.259 C 
HETATM    8  N   UNL     1      -7.428   3.743 -32.078  1.00  0.00    -0.056 N 
HETATM    9  H   UNL     1      -6.935   4.546 -32.500  1.00  0.00     0.281 HD
HETATM   10  C   UNL     1      -8.736   4.283 -31.567  1.00  0.00     0.236 C 
HETATM   11  C   UNL     1      -8.503   5.327 -30.493  1.00  0.00     0.028 C 
HETATM   12  C   UNL     1      -7.677   4.746 -29.361  1.00  0.00     0.004 C 
HETATM   13  C   UNL     1      -6.326   4.284 -29.885  1.00  0.00     0.041 C 
BRANCH   8  14
HETATM   14  C   UNL     1      -7.622   2.802 -33.265  1.00  0.00     0.274 C 
BRANCH  14  15
HETATM   15  C   UNL     1      -8.913   2.019 -33.342  1.00  0.00    -0.033 A 
HETATM   16  C   UNL     1      -9.984   2.396 -34.165  1.00  0.00     0.009 A 
HETATM   17  C   UNL     1     -11.145   1.620 -34.239  1.00  0.00     0.001 A 
HETATM   18  C   UNL     1     -11.241   0.437 -33.516  1.00  0.00     0.000 A 
HETATM   19  C   UNL     1     -10.178   0.025 -32.719  1.00  0.00     0.001 A 
HETATM   20  C   UNL     1      -9.024   0.811 -32.630  1.00  0.00     0.009 A 
ENDBRANCH  14  15
ENDBRANCH   8  14
ENDBRANCH   5   7
BRANCH   4  21
HETATM   21  C   UNL     1      -4.297   0.798 -30.843  1.00  0.00     0.115 C 
HETATM   22  C   UNL     1      -3.113  -0.146 -31.112  1.00  0.00     0.055 C 
HETATM   23  C   UNL     1      -3.149  -0.828 -32.478  1.00  0.00     0.236 C 
HETATM   24  N   UNL     1      -4.490  -1.484 -32.703  1.00  0.00    -0.075 N 
HETATM   25  H   UNL     1      -4.599  -2.240 -32.012  1.00  0.00     0.279 HD
HETATM   26  C   UNL     1      -4.530  -2.167 -34.054  1.00  0.00     0.269 C 
HETATM   27  C   UNL     1      -5.646  -0.531 -32.556  1.00  0.00     0.236 C 
HETATM   28  C   UNL     1      -5.621   0.098 -31.169  1.00  0.00     0.055 C 
ENDBRANCH   4  21
TORSDOF 4
ENDMDL
MODEL 8
REMARK VINA RESULT:      -7.7      2.561      4.058
REMARK  4 active torsions:
REMARK  status: ('A' for Active; 'I' for Inactive)
REMARK    1  A    between atoms: N_4  and  C_5 
REMARK    2  A    between atoms: C_13  and  C_14 
REMARK    3  A    between atoms: N_15  and  C_17 
REMARK    4  A    between atoms: C_17  and  C_18 
ROOT
HETATM    1  C   UNL     1      -4.807   4.830 -34.596  1.00  0.00     0.095 C 
HETATM    2  C   UNL     1      -5.717   4.140 -33.658  1.00  0.00     0.144 A 
HETATM    3  N   UNL     1      -5.393   3.871 -32.390  1.00  0.00    -0.156 NA
HETATM    4  N   UNL     1      -6.528   3.338 -31.901  1.00  0.00    -0.247 N 
HETATM    5  C   UNL     1      -7.477   3.247 -32.888  1.00  0.00     0.156 A 
HETATM    6  N   UNL     1      -6.971   3.725 -34.012  1.00  0.00    -0.215 NA
ENDROOT
BRANCH   5   7
HETATM    7  C   UNL     1      -8.889   2.749 -32.768  1.00  0.00     0.259 C 
HETATM    8  N   UNL     1      -8.950   1.271 -33.168  1.00  0.00    -0.056 N 
HETATM    9  H   UNL     1      -8.436   1.259 -34.064  1.00  0.00     0.281 HD
HETATM   10  C   UNL     1     -10.312   0.706 -33.468  1.00  0.00     0.236 C 
HETATM   11  C   UNL     1     -11.050   1.580 -34.462  1.00  0.00     0.028 C 
HETATM   12  C   UNL     1     -11.155   3.002 -33.939  1.00  0.00     0.004 C 
HETATM   13  C   UNL     1      -9.766   3.582 -33.724  1.00  0.00     0.041 C 
BRANCH   8  14
HETATM   14  C   UNL     1      -8.123   0.335 -32.290  1.00  0.00     0.274 C 
BRANCH  14  15
HETATM   15  C   UNL     1      -7.003  -0.442 -32.945  1.00  0.00    -0.033 A 
HETATM   16  C   UNL     1      -5.678  -0.399 -32.487  1.00  0.00     0.009 A 
HETATM   17  C   UNL     1      -4.680  -1.167 -33.095  1.00  0.00     0.001 A 
HETATM   18  C   UNL     1      -4.997  -2.015 -34.151  1.00  0.00     0.000 A 
HETATM   19  C   UNL     1      -6.311  -2.099 -34.599  1.00  0.00     0.001 A 
HETATM   20  C   UNL     1      -7.306  -1.317 -34.004  1.00  0.00     0.009 A 
ENDBRANCH  14  15
ENDBRANCH   8  14
ENDBRANCH   5   7
BRANCH   4  21
HETATM   21  C   UNL     1      -6.568   2.944 -30.496  1.00  0.00     0.115 C 
HETATM   22  C   UNL     1      -7.882   3.330 -29.796  1.00  0.00     0.055 C 
HETATM   23  C   UNL     1      -7.988   4.808 -29.428  1.00  0.00     0.236 C 
HETATM   24  N   UNL     1      -6.762   5.251 -28.667  1.00  0.00    -0.075 N 
HETATM   25  H   UNL     1      -6.737   4.743 -27.772  1.00  0.00     0.279 HD
HETATM   26  C   UNL     1      -6.863   6.715 -28.295  1.00  0.00     0.269 C 
HETATM   27  C   UNL     1      -5.479   4.980 -29.407  1.00  0.00     0.236 C 
HETATM   28  C   UNL     1      -5.367   3.493 -29.718  1.00  0.00     0.055 C 
ENDBRANCH   4  21
TORSDOF 4
ENDMDL
MODEL 9
REMARK VINA RESULT:      -7.6      3.205      6.125
REMARK  4 active torsions:
REMARK  status: ('A' for Active; 'I' for Inactive)
REMARK    1  A    between atoms: N_4  and  C_5 
REMARK    2  A    between atoms: C_13  and  C_14 
REMARK    3  A    between atoms: N_15  and  C_17 
REMARK    4  A    between atoms: C_17  and  C_18 
ROOT
HETATM    1  C   UNL     1     -11.008   5.396 -30.627  1.00  0.00     0.095 C 
HETATM    2  C   UNL     1     -10.353   4.634 -31.710  1.00  0.00     0.144 A 
HETATM    3  N   UNL     1     -11.032   3.992 -32.666  1.00  0.00    -0.156 NA
HETATM    4  N   UNL     1     -10.054   3.533 -33.467  1.00  0.00    -0.247 N 
HETATM    5  C   UNL     1      -8.824   3.856 -32.952  1.00  0.00     0.156 A 
HETATM    6  N   UNL     1      -8.995   4.528 -31.827  1.00  0.00    -0.215 NA
ENDROOT
BRANCH   5   7
HETATM    7  C   UNL     1      -7.472   3.570 -33.542  1.00  0.00     0.259 C 
HETATM    8  N   UNL     1      -6.631   2.768 -32.542  1.00  0.00    -0.056 N 
HETATM    9  H   UNL     1      -6.749   3.305 -31.668  1.00  0.00     0.281 HD
HETATM   10  C   UNL     1      -5.150   2.711 -32.794  1.00  0.00     0.236 C 
HETATM   11  C   UNL     1      -4.586   4.103 -33.001  1.00  0.00     0.028 C 
HETATM   12  C   UNL     1      -5.304   4.801 -34.142  1.00  0.00     0.004 C 
HETATM   13  C   UNL     1      -6.787   4.922 -33.827  1.00  0.00     0.041 C 
BRANCH   8  14
HETATM   14  C   UNL     1      -7.203   1.399 -32.179  1.00  0.00     0.274 C 
BRANCH  14  15
HETATM   15  C   UNL     1      -6.774   0.212 -33.012  1.00  0.00    -0.033 A 
HETATM   16  C   UNL     1      -7.241  -0.011 -34.315  1.00  0.00     0.009 A 
HETATM   17  C   UNL     1      -6.786  -1.099 -35.067  1.00  0.00     0.001 A 
HETATM   18  C   UNL     1      -5.832  -1.962 -34.541  1.00  0.00     0.000 A 
HETATM   19  C   UNL     1      -5.330  -1.741 -33.262  1.00  0.00     0.001 A 
HETATM   20  C   UNL     1      -5.798  -0.664 -32.503  1.00  0.00     0.009 A 
ENDBRANCH  14  15
ENDBRANCH   8  14
ENDBRANCH   5   7
BRANCH   4  21
HETATM   21  C   UNL     1     -10.423   2.793 -34.670  1.00  0.00     0.115 C 
HETATM   22  C   UNL     1     -11.680   3.347 -35.361  1.00  0.00     0.055 C 
HETATM   23  C   UNL     1     -12.993   2.972 -34.676  1.00  0.00     0.236 C 
HETATM   24  N   UNL     1     -13.057   1.482 -34.441  1.00  0.00    -0.075 N 
HETATM   25  H   UNL     1     -13.077   1.012 -35.358  1.00  0.00     0.279 HD
HETATM   26  C   UNL     1     -14.358   1.102 -33.767  1.00  0.00     0.269 C 
HETATM   27  C   UNL     1     -11.882   0.957 -33.660  1.00  0.00     0.236 C 
HETATM   28  C   UNL     1     -10.587   1.295 -34.387  1.00  0.00     0.055 C 
ENDBRANCH   4  21
TORSDOF 4
ENDMDL
MODEL 10
REMARK VINA RESULT:      -7.6      2.366      6.744
REMARK  4 active torsions:
REMARK  status: ('A' for Active; 'I' for Inactive)
REMARK    1  A    between atoms: N_4  and  C_5 
REMARK    2  A    between atoms: C_13  and  C_14 
REMARK    3  A    between atoms: N_15  and  C_17 
REMARK    4  A    between atoms: C_17  and  C_18 
ROOT
HETATM    1  C   UNL     1      -6.001  -0.195 -29.345  1.00  0.00     0.095 C 
HETATM    2  C   UNL     1      -6.346  -0.019 -30.771  1.00  0.00     0.144 A 
HETATM    3  N   UNL     1      -5.535  -0.380 -31.769  1.00  0.00    -0.156 NA
HETATM    4  N   UNL     1      -6.279  -0.130 -32.861  1.00  0.00    -0.247 N 
HETATM    5  C   UNL     1      -7.483   0.423 -32.502  1.00  0.00     0.156 A 
HETATM    6  N   UNL     1      -7.530   0.524 -31.185  1.00  0.00    -0.215 NA
ENDROOT
BRANCH   5   7
HETATM    7  C   UNL     1      -8.622   0.818 -33.400  1.00  0.00     0.259 C 
HETATM    8  N   UNL     1      -8.807   2.339 -33.358  1.00  0.00    -0.056 N 
HETATM    9  H   UNL     1      -8.809   2.537 -32.344  1.00  0.00     0.281 HD
HETATM   10  C   UNL     1     -10.108   2.878 -33.886  1.00  0.00     0.236 C 
HETATM   11  C   UNL     1     -11.283   2.159 -33.254  1.00  0.00     0.028 C 
HETATM   12  C   UNL     1     -11.179   0.664 -33.492  1.00  0.00     0.004 C 
HETATM   13  C   UNL     1      -9.897   0.127 -32.877  1.00  0.00     0.041 C 
BRANCH   8  14
HETATM   14  C   UNL     1      -7.609   3.143 -33.858  1.00  0.00     0.274 C 
BRANCH  14  15
HETATM   15  C   UNL     1      -6.537   3.510 -32.857  1.00  0.00    -0.033 A 
HETATM   16  C   UNL     1      -6.827   4.045 -31.593  1.00  0.00     0.009 A 
HETATM   17  C   UNL     1      -5.807   4.330 -30.680  1.00  0.00     0.001 A 
HETATM   18  C   UNL     1      -4.483   4.055 -31.002  1.00  0.00     0.000 A 
HETATM   19  C   UNL     1      -4.175   3.492 -32.236  1.00  0.00     0.001 A 
HETATM   20  C   UNL     1      -5.192   3.224 -33.157  1.00  0.00     0.009 A 
ENDBRANCH  14  15
ENDBRANCH   8  14
ENDBRANCH   5   7
BRANCH   4  21
HETATM   21  C   UNL     1      -5.723  -0.441 -34.174  1.00  0.00     0.115 C 
HETATM   22  C   UNL     1      -6.649  -1.322 -35.031  1.00  0.00     0.055 C 
HETATM   23  C   UNL     1      -6.656  -2.797 -34.637  1.00  0.00     0.236 C 
HETATM   24  N   UNL     1      -5.245  -3.328 -34.557  1.00  0.00    -0.075 N 
HETATM   25  H   UNL     1      -4.835  -3.294 -35.500  1.00  0.00     0.279 HD
HETATM   26  C   UNL     1      -5.246  -4.792 -34.172  1.00  0.00     0.269 C 
HETATM   27  C   UNL     1      -4.369  -2.534 -33.625  1.00  0.00     0.236 C 
HETATM   28  C   UNL     1      -4.333  -1.077 -34.067  1.00  0.00     0.055 C 
ENDBRANCH   4  21
TORSDOF 4
ENDMDL
