MODEL 1
REMARK VINA RESULT:      -9.4      0.000      0.000
REMARK  6 active torsions:
REMARK  status: ('A' for Active; 'I' for Inactive)
REMARK    1  A    between atoms: C_4  and  C_5 
REMARK    2  A    between atoms: C_5  and  N_6 
REMARK    3  A    between atoms: C_5  and  C_20 
REMARK       I    between atoms: N_6  and  C_7 
REMARK    4  A    between atoms: C_7  and  C_8 
REMARK    5  A    between atoms: C_8  and  N_9 
REMARK    6  A    between atoms: C_21  and  O_22 
ROOT
HETATM    1  C   UNL     1      -5.618   3.917 -32.233  1.00  0.00     0.154 C 
ENDROOT
BRANCH   1   2
HETATM    2  C   UNL     1      -4.429   4.295 -33.122  1.00  0.00    -0.031 A 
HETATM    3  C   UNL     1      -4.703   4.919 -34.358  1.00  0.00     0.009 A 
HETATM    4  C   UNL     1      -3.676   5.296 -35.226  1.00  0.00     0.001 A 
HETATM    5  C   UNL     1      -2.351   5.060 -34.876  1.00  0.00     0.000 A 
HETATM    6  C   UNL     1      -2.056   4.444 -33.663  1.00  0.00     0.001 A 
HETATM    7  C   UNL     1      -3.084   4.060 -32.796  1.00  0.00     0.009 A 
ENDBRANCH   1   2
BRANCH   1   8
HETATM    8  N   UNL     1      -6.911   4.428 -32.647  1.00  0.00    -0.347 N 
HETATM    9  C   UNL     1      -7.834   4.875 -31.722  1.00  0.00     0.236 C 
HETATM   10  O   UNL     1      -7.618   4.884 -30.510  1.00  0.00    -0.272 OA
HETATM   11  H   UNL     1      -7.022   4.770 -33.599  1.00  0.00     0.163 HD
BRANCH   9  12
HETATM   12  C   UNL     1      -9.169   5.308 -32.332  1.00  0.00     0.236 C 
BRANCH  12  13
HETATM   13  N   UNL     1      -9.751   4.287 -33.168  1.00  0.00    -0.289 N 
HETATM   14  C   UNL     1     -10.089   4.471 -34.523  1.00  0.00     0.328 A 
HETATM   15  O   UNL     1     -10.089   5.526 -35.137  1.00  0.00    -0.247 OA
HETATM   16  N   UNL     1     -10.405   3.211 -35.039  1.00  0.00    -0.306 N 
HETATM   17  C   UNL     1     -10.186   2.255 -34.054  1.00  0.00     0.063 A 
HETATM   18  H   UNL     1     -10.671   3.043 -35.996  1.00  0.00     0.171 HD
HETATM   19  C   UNL     1      -9.769   2.910 -32.893  1.00  0.00     0.066 A 
HETATM   20  C   UNL     1     -10.286   0.886 -34.143  1.00  0.00     0.032 A 
HETATM   21  C   UNL     1      -9.428   2.204 -31.759  1.00  0.00     0.032 A 
HETATM   22  C   UNL     1      -9.515   0.808 -31.825  1.00  0.00     0.002 A 
HETATM   23  C   UNL     1      -9.940   0.156 -33.002  1.00  0.00     0.002 A 
ENDBRANCH  12  13
ENDBRANCH   9  12
ENDBRANCH   1   8
BRANCH   1  24
HETATM   24  C   UNL     1      -5.698   2.415 -31.927  1.00  0.00     0.013 C 
HETATM   25  C   UNL     1      -5.393   1.979 -30.623  1.00  0.00     0.075 C 
HETATM   26  C   UNL     1      -5.261   0.635 -30.305  1.00  0.00     0.038 C 
HETATM   27  C   UNL     1      -5.503  -0.323 -31.281  1.00  0.00     0.015 C 
HETATM   28  C   UNL     1      -5.916   0.051 -32.564  1.00  0.00    -0.025 A 
HETATM   29  C   UNL     1      -6.034   1.427 -32.907  1.00  0.00    -0.015 A 
HETATM   30  C   UNL     1      -6.224  -0.947 -33.505  1.00  0.00     0.012 A 
HETATM   31  C   UNL     1      -6.508   1.715 -34.209  1.00  0.00     0.013 A 
HETATM   32  C   UNL     1      -6.825   0.713 -35.131  1.00  0.00     0.001 A 
HETATM   33  C   UNL     1      -6.676  -0.619 -34.781  1.00  0.00     0.001 A 
BRANCH  25  34
HETATM   34  O   UNL     1      -5.267   2.860 -29.582  1.00  0.00    -0.360 OA
HETATM   35  H   UNL     1      -5.622   3.718 -29.910  1.00  0.00     0.217 HD
ENDBRANCH  25  34
ENDBRANCH   1  24
TORSDOF 6
ENDMDL
MODEL 2
REMARK VINA RESULT:      -8.8      3.377      6.684
REMARK  6 active torsions:
REMARK  status: ('A' for Active; 'I' for Inactive)
REMARK    1  A    between atoms: C_4  and  C_5 
REMARK    2  A    between atoms: C_5  and  N_6 
REMARK    3  A    between atoms: C_5  and  C_20 
REMARK       I    between atoms: N_6  and  C_7 
REMARK    4  A    between atoms: C_7  and  C_8 
REMARK    5  A    between atoms: C_8  and  N_9 
REMARK    6  A    between atoms: C_21  and  O_22 
ROOT
HETATM    1  C   UNL     1      -4.562   3.153 -32.592  1.00  0.00     0.154 C 
ENDROOT
BRANCH   1   2
HETATM    2  C   UNL     1      -5.303   3.695 -31.365  1.00  0.00    -0.031 A 
HETATM    3  C   UNL     1      -4.755   4.817 -30.707  1.00  0.00     0.009 A 
HETATM    4  C   UNL     1      -5.369   5.373 -29.583  1.00  0.00     0.001 A 
HETATM    5  C   UNL     1      -6.547   4.821 -29.092  1.00  0.00     0.000 A 
HETATM    6  C   UNL     1      -7.106   3.713 -29.723  1.00  0.00     0.001 A 
HETATM    7  C   UNL     1      -6.488   3.151 -30.846  1.00  0.00     0.009 A 
ENDBRANCH   1   2
BRANCH   1   8
HETATM    8  N   UNL     1      -3.230   3.681 -32.816  1.00  0.00    -0.347 N 
HETATM    9  C   UNL     1      -2.990   4.626 -33.793  1.00  0.00     0.236 C 
HETATM   10  O   UNL     1      -3.877   5.086 -34.514  1.00  0.00    -0.272 OA
HETATM   11  H   UNL     1      -2.545   3.622 -32.065  1.00  0.00     0.163 HD
BRANCH   9  12
HETATM   12  C   UNL     1      -1.516   5.014 -33.939  1.00  0.00     0.236 C 
BRANCH  12  13
HETATM   13  N   UNL     1      -1.139   6.089 -33.056  1.00  0.00    -0.289 N 
HETATM   14  C   UNL     1      -1.546   7.428 -33.221  1.00  0.00     0.328 A 
HETATM   15  O   UNL     1      -2.128   7.899 -34.185  1.00  0.00    -0.247 OA
HETATM   16  N   UNL     1      -1.175   8.113 -32.061  1.00  0.00    -0.306 N 
HETATM   17  C   UNL     1      -0.629   7.206 -31.159  1.00  0.00     0.063 A 
HETATM   18  H   UNL     1      -1.356   9.091 -31.900  1.00  0.00     0.171 HD
HETATM   19  C   UNL     1      -0.613   5.946 -31.762  1.00  0.00     0.066 A 
HETATM   20  C   UNL     1      -0.207   7.420 -29.868  1.00  0.00     0.032 A 
HETATM   21  C   UNL     1      -0.169   4.835 -31.078  1.00  0.00     0.032 A 
HETATM   22  C   UNL     1       0.260   5.024 -29.759  1.00  0.00     0.002 A 
HETATM   23  C   UNL     1       0.243   6.302 -29.160  1.00  0.00     0.002 A 
ENDBRANCH  12  13
ENDBRANCH   9  12
ENDBRANCH   1   8
BRANCH   1  24
HETATM   24  C   UNL     1      -4.563   1.620 -32.676  1.00  0.00     0.013 C 
HETATM   25  C   UNL     1      -3.584   0.909 -31.955  1.00  0.00     0.075 C 
HETATM   26  C   UNL     1      -3.396  -0.456 -32.117  1.00  0.00     0.038 C 
HETATM   27  C   UNL     1      -4.239  -1.167 -32.961  1.00  0.00     0.015 C 
HETATM   28  C   UNL     1      -5.297  -0.529 -33.618  1.00  0.00    -0.025 A 
HETATM   29  C   UNL     1      -5.487   0.874 -33.477  1.00  0.00    -0.015 A 
HETATM   30  C   UNL     1      -6.176  -1.291 -34.407  1.00  0.00     0.012 A 
HETATM   31  C   UNL     1      -6.612   1.429 -34.132  1.00  0.00     0.013 A 
HETATM   32  C   UNL     1      -7.487   0.658 -34.902  1.00  0.00     0.001 A 
HETATM   33  C   UNL     1      -7.265  -0.702 -35.045  1.00  0.00     0.001 A 
BRANCH  25  34
HETATM   34  O   UNL     1      -2.802   1.518 -31.011  1.00  0.00    -0.360 OA
HETATM   35  H   UNL     1      -3.390   2.157 -30.546  1.00  0.00     0.217 HD
ENDBRANCH  25  34
ENDBRANCH   1  24
TORSDOF 6
ENDMDL
MODEL 3
REMARK VINA RESULT:      -8.6      1.476      2.758
REMARK  6 active torsions:
REMARK  status: ('A' for Active; 'I' for Inactive)
REMARK    1  A    between atoms: C_4  and  C_5 
REMARK    2  A    between atoms: C_5  and  N_6 
REMARK    3  A    between atoms: C_5  and  C_20 
REMARK       I    between atoms: N_6  and  C_7 
REMARK    4  A    between atoms: C_7  and  C_8 
REMARK    5  A    between atoms: C_8  and  N_9 
REMARK    6  A    between atoms: C_21  and  O_22 
ROOT
HETATM    1  C   UNL     1      -5.284   2.672 -32.376  1.00  0.00     0.154 C 
ENDROOT
BRANCH   1   2
HETATM    2  C   UNL     1      -4.308   3.644 -33.049  1.00  0.00    -0.031 A 
HETATM    3  C   UNL     1      -2.950   3.582 -32.668  1.00  0.00     0.009 A 
HETATM    4  C   UNL     1      -1.997   4.431 -33.233  1.00  0.00     0.001 A 
HETATM    5  C   UNL     1      -2.379   5.360 -34.195  1.00  0.00     0.000 A 
HETATM    6  C   UNL     1      -3.712   5.441 -34.586  1.00  0.00     0.001 A 
HETATM    7  C   UNL     1      -4.669   4.595 -34.015  1.00  0.00     0.009 A 
ENDBRANCH   1   2
BRANCH   1   8
HETATM    8  N   UNL     1      -6.438   3.272 -31.734  1.00  0.00    -0.347 N 
HETATM    9  C   UNL     1      -6.871   2.841 -30.496  1.00  0.00     0.236 C 
HETATM   10  O   UNL     1      -6.308   1.948 -29.861  1.00  0.00    -0.272 OA
HETATM   11  H   UNL     1      -6.725   4.207 -32.014  1.00  0.00     0.163 HD
BRANCH   9  12
HETATM   12  C   UNL     1      -8.145   3.534 -30.004  1.00  0.00     0.236 C 
BRANCH  12  13
HETATM   13  N   UNL     1      -9.207   3.489 -30.978  1.00  0.00    -0.289 N 
HETATM   14  C   UNL     1      -9.766   4.627 -31.593  1.00  0.00     0.328 A 
HETATM   15  O   UNL     1      -9.557   5.792 -31.295  1.00  0.00    -0.247 OA
HETATM   16  N   UNL     1     -10.592   4.170 -32.623  1.00  0.00    -0.306 N 
HETATM   17  C   UNL     1     -10.482   2.786 -32.705  1.00  0.00     0.063 A 
HETATM   18  H   UNL     1     -11.111   4.773 -33.241  1.00  0.00     0.171 HD
HETATM   19  C   UNL     1      -9.617   2.355 -31.697  1.00  0.00     0.066 A 
HETATM   20  C   UNL     1     -11.048   1.928 -33.620  1.00  0.00     0.032 A 
HETATM   21  C   UNL     1      -9.279   1.025 -31.568  1.00  0.00     0.032 A 
HETATM   22  C   UNL     1      -9.837   0.131 -32.491  1.00  0.00     0.002 A 
HETATM   23  C   UNL     1     -10.712   0.577 -33.505  1.00  0.00     0.002 A 
ENDBRANCH  12  13
ENDBRANCH   9  12
ENDBRANCH   1   8
BRANCH   1  24
HETATM   24  C   UNL     1      -5.707   1.509 -33.283  1.00  0.00     0.013 C 
HETATM   25  C   UNL     1      -6.778   1.710 -34.176  1.00  0.00     0.075 C 
HETATM   26  C   UNL     1      -7.345   0.669 -34.896  1.00  0.00     0.038 C 
HETATM   27  C   UNL     1      -6.802  -0.606 -34.795  1.00  0.00     0.015 C 
HETATM   28  C   UNL     1      -5.669  -0.840 -34.008  1.00  0.00    -0.025 A 
HETATM   29  C   UNL     1      -5.092   0.216 -33.248  1.00  0.00    -0.015 A 
HETATM   30  C   UNL     1      -5.100  -2.125 -33.987  1.00  0.00     0.012 A 
HETATM   31  C   UNL     1      -3.919  -0.095 -32.522  1.00  0.00     0.013 A 
HETATM   32  C   UNL     1      -3.355  -1.374 -32.520  1.00  0.00     0.001 A 
HETATM   33  C   UNL     1      -3.950  -2.392 -33.248  1.00  0.00     0.001 A 
BRANCH  25  34
HETATM   34  O   UNL     1      -7.283   2.959 -34.423  1.00  0.00    -0.360 OA
HETATM   35  H   UNL     1      -6.782   3.573 -33.837  1.00  0.00     0.217 HD
ENDBRANCH  25  34
ENDBRANCH   1  24
TORSDOF 6
ENDMDL
MODEL 4
REMARK VINA RESULT:      -8.5      1.412      2.304
REMARK  6 active torsions:
REMARK  status: ('A' for Active; 'I' for Inactive)
REMARK    1  A    between atoms: C_4  and  C_5 
REMARK    2  A    between atoms: C_5  and  N_6 
REMARK    3  A    between atoms: C_5  and  C_20 
REMARK       I    between atoms: N_6  and  C_7 
REMARK    4  A    between atoms: C_7  and  C_8 
REMARK    5  A    between atoms: C_8  and  N_9 
REMARK    6  A    between atoms: C_21  and  O_22 
ROOT
HETATM    1  C   UNL     1      -4.495   2.725 -31.992  1.00  0.00     0.154 C 
ENDROOT
BRANCH   1   2
HETATM    2  C   UNL     1      -3.943   3.669 -33.066  1.00  0.00    -0.031 A 
HETATM    3  C   UNL     1      -2.547   3.869 -33.112  1.00  0.00     0.009 A 
HETATM    4  C   UNL     1      -1.964   4.712 -34.060  1.00  0.00     0.001 A 
HETATM    5  C   UNL     1      -2.764   5.373 -34.986  1.00  0.00     0.000 A 
HETATM    6  C   UNL     1      -4.144   5.193 -34.959  1.00  0.00     0.001 A 
HETATM    7  C   UNL     1      -4.730   4.353 -34.006  1.00  0.00     0.009 A 
ENDBRANCH   1   2
BRANCH   1   8
HETATM    8  N   UNL     1      -5.781   3.086 -31.426  1.00  0.00    -0.347 N 
HETATM    9  C   UNL     1      -6.217   2.540 -30.236  1.00  0.00     0.236 C 
HETATM   10  O   UNL     1      -5.550   1.737 -29.581  1.00  0.00    -0.272 OA
HETATM   11  H   UNL     1      -6.211   3.966 -31.706  1.00  0.00     0.163 HD
BRANCH   9  12
HETATM   12  C   UNL     1      -7.626   2.978 -29.828  1.00  0.00     0.236 C 
BRANCH  12  13
HETATM   13  N   UNL     1      -8.487   3.193 -30.965  1.00  0.00    -0.289 N 
HETATM   14  C   UNL     1      -8.550   4.397 -31.693  1.00  0.00     0.328 A 
HETATM   15  O   UNL     1      -8.023   5.457 -31.395  1.00  0.00    -0.247 OA
HETATM   16  N   UNL     1      -9.314   4.144 -32.836  1.00  0.00    -0.306 N 
HETATM   17  C   UNL     1      -9.646   2.794 -32.862  1.00  0.00     0.063 A 
HETATM   18  H   UNL     1      -9.510   4.829 -33.547  1.00  0.00     0.171 HD
HETATM   19  C   UNL     1      -9.129   2.193 -31.712  1.00  0.00     0.066 A 
HETATM   20  C   UNL     1     -10.315   2.089 -33.836  1.00  0.00     0.032 A 
HETATM   21  C   UNL     1      -9.262   0.838 -31.495  1.00  0.00     0.032 A 
HETATM   22  C   UNL     1      -9.933   0.096 -32.475  1.00  0.00     0.002 A 
HETATM   23  C   UNL     1     -10.454   0.714 -33.632  1.00  0.00     0.002 A 
ENDBRANCH  12  13
ENDBRANCH   9  12
ENDBRANCH   1   8
BRANCH   1  24
HETATM   24  C   UNL     1      -4.479   1.249 -32.412  1.00  0.00     0.013 C 
HETATM   25  C   UNL     1      -3.517   0.398 -31.833  1.00  0.00     0.075 C 
HETATM   26  C   UNL     1      -3.311  -0.898 -32.284  1.00  0.00     0.038 C 
HETATM   27  C   UNL     1      -4.120  -1.407 -33.292  1.00  0.00     0.015 C 
HETATM   28  C   UNL     1      -5.163  -0.642 -33.827  1.00  0.00    -0.025 A 
HETATM   29  C   UNL     1      -5.370   0.696 -33.387  1.00  0.00    -0.015 A 
HETATM   30  C   UNL     1      -6.009  -1.213 -34.793  1.00  0.00     0.012 A 
HETATM   31  C   UNL     1      -6.478   1.379 -33.941  1.00  0.00     0.013 A 
HETATM   32  C   UNL     1      -7.321   0.795 -34.891  1.00  0.00     0.001 A 
HETATM   33  C   UNL     1      -7.082  -0.500 -35.322  1.00  0.00     0.001 A 
BRANCH  25  34
HETATM   34  O   UNL     1      -2.771   0.786 -30.753  1.00  0.00    -0.360 OA
HETATM   35  H   UNL     1      -1.895   1.055 -31.113  1.00  0.00     0.217 HD
ENDBRANCH  25  34
ENDBRANCH   1  24
TORSDOF 6
ENDMDL
MODEL 5
REMARK VINA RESULT:      -8.5      2.964      6.438
REMARK  6 active torsions:
REMARK  status: ('A' for Active; 'I' for Inactive)
REMARK    1  A    between atoms: C_4  and  C_5 
REMARK    2  A    between atoms: C_5  and  N_6 
REMARK    3  A    between atoms: C_5  and  C_20 
REMARK       I    between atoms: N_6  and  C_7 
REMARK    4  A    between atoms: C_7  and  C_8 
REMARK    5  A    between atoms: C_8  and  N_9 
REMARK    6  A    between atoms: C_21  and  O_22 
ROOT
HETATM    1  C   UNL     1      -4.953  -0.044 -33.223  1.00  0.00     0.154 C 
ENDROOT
BRANCH   1   2
HETATM    2  C   UNL     1      -6.475   0.123 -33.274  1.00  0.00    -0.031 A 
HETATM    3  C   UNL     1      -7.062   0.435 -34.520  1.00  0.00     0.009 A 
HETATM    4  C   UNL     1      -8.442   0.602 -34.652  1.00  0.00     0.001 A 
HETATM    5  C   UNL     1      -9.267   0.459 -33.542  1.00  0.00     0.000 A 
HETATM    6  C   UNL     1      -8.712   0.154 -32.302  1.00  0.00     0.001 A 
HETATM    7  C   UNL     1      -7.329  -0.008 -32.168  1.00  0.00     0.009 A 
ENDBRANCH   1   2
BRANCH   1   8
HETATM    8  N   UNL     1      -4.245   0.839 -32.316  1.00  0.00    -0.347 N 
HETATM    9  C   UNL     1      -4.351   2.211 -32.425  1.00  0.00     0.236 C 
HETATM   10  O   UNL     1      -5.052   2.765 -33.273  1.00  0.00    -0.272 OA
HETATM   11  H   UNL     1      -3.948   0.478 -31.412  1.00  0.00     0.163 HD
BRANCH   9  12
HETATM   12  C   UNL     1      -3.479   2.986 -31.433  1.00  0.00     0.236 C 
BRANCH  12  13
HETATM   13  N   UNL     1      -3.636   4.414 -31.559  1.00  0.00    -0.289 N 
HETATM   14  C   UNL     1      -4.433   5.201 -30.705  1.00  0.00     0.328 A 
HETATM   15  O   UNL     1      -5.209   4.795 -29.855  1.00  0.00    -0.247 OA
HETATM   16  N   UNL     1      -4.152   6.537 -31.001  1.00  0.00    -0.306 N 
HETATM   17  C   UNL     1      -3.141   6.582 -31.955  1.00  0.00     0.063 A 
HETATM   18  H   UNL     1      -4.572   7.321 -30.528  1.00  0.00     0.171 HD
HETATM   19  C   UNL     1      -2.806   5.270 -32.300  1.00  0.00     0.066 A 
HETATM   20  C   UNL     1      -2.496   7.679 -32.478  1.00  0.00     0.032 A 
HETATM   21  C   UNL     1      -1.791   5.006 -33.195  1.00  0.00     0.032 A 
HETATM   22  C   UNL     1      -1.113   6.105 -33.736  1.00  0.00     0.002 A 
HETATM   23  C   UNL     1      -1.462   7.426 -33.383  1.00  0.00     0.002 A 
ENDBRANCH  12  13
ENDBRANCH   9  12
ENDBRANCH   1   8
BRANCH   1  24
HETATM   24  C   UNL     1      -4.505  -1.499 -33.028  1.00  0.00     0.013 C 
HETATM   25  C   UNL     1      -3.521  -1.773 -32.059  1.00  0.00     0.075 C 
HETATM   26  C   UNL     1      -2.928  -3.022 -31.942  1.00  0.00     0.038 C 
HETATM   27  C   UNL     1      -3.360  -4.062 -32.755  1.00  0.00     0.015 C 
HETATM   28  C   UNL     1      -4.411  -3.873 -33.659  1.00  0.00    -0.025 A 
HETATM   29  C   UNL     1      -5.012  -2.591 -33.803  1.00  0.00    -0.015 A 
HETATM   30  C   UNL     1      -4.873  -4.965 -34.414  1.00  0.00     0.012 A 
HETATM   31  C   UNL     1      -6.102  -2.502 -34.701  1.00  0.00     0.013 A 
HETATM   32  C   UNL     1      -6.562  -3.599 -35.435  1.00  0.00     0.001 A 
HETATM   33  C   UNL     1      -5.942  -4.830 -35.296  1.00  0.00     0.001 A 
BRANCH  25  34
HETATM   34  O   UNL     1      -3.136  -0.835 -31.139  1.00  0.00    -0.360 OA
HETATM   35  H   UNL     1      -2.227  -0.559 -31.401  1.00  0.00     0.217 HD
ENDBRANCH  25  34
ENDBRANCH   1  24
TORSDOF 6
ENDMDL
MODEL 6
REMARK VINA RESULT:      -8.4      1.673      2.207
REMARK  6 active torsions:
REMARK  status: ('A' for Active; 'I' for Inactive)
REMARK    1  A    between atoms: C_4  and  C_5 
REMARK    2  A    between atoms: C_5  and  N_6 
REMARK    3  A    between atoms: C_5  and  C_20 
REMARK       I    between atoms: N_6  and  C_7 
REMARK    4  A    between atoms: C_7  and  C_8 
REMARK    5  A    between atoms: C_8  and  N_9 
REMARK    6  A    between atoms: C_21  and  O_22 
ROOT
HETATM    1  C   UNL     1      -6.284   3.758 -32.359  1.00  0.00     0.154 C 
ENDROOT
BRANCH   1   2
HETATM    2  C   UNL     1      -5.023   4.163 -33.130  1.00  0.00    -0.031 A 
HETATM    3  C   UNL     1      -3.772   3.821 -32.573  1.00  0.00     0.009 A 
HETATM    4  C   UNL     1      -2.576   4.152 -33.212  1.00  0.00     0.001 A 
HETATM    5  C   UNL     1      -2.603   4.831 -34.426  1.00  0.00     0.000 A 
HETATM    6  C   UNL     1      -3.825   5.181 -34.994  1.00  0.00     0.001 A 
HETATM    7  C   UNL     1      -5.024   4.855 -34.351  1.00  0.00     0.009 A 
ENDBRANCH   1   2
BRANCH   1   8
HETATM    8  N   UNL     1      -7.544   4.223 -32.908  1.00  0.00    -0.347 N 
HETATM    9  C   UNL     1      -8.610   4.533 -32.089  1.00  0.00     0.236 C 
HETATM   10  O   UNL     1      -8.559   4.451 -30.861  1.00  0.00    -0.272 OA
HETATM   11  H   UNL     1      -7.550   4.639 -33.838  1.00  0.00     0.163 HD
BRANCH   9  12
HETATM   12  C   UNL     1      -9.881   4.935 -32.843  1.00  0.00     0.236 C 
BRANCH  12  13
HETATM   13  N   UNL     1     -11.002   4.085 -32.528  1.00  0.00    -0.289 N 
HETATM   14  C   UNL     1     -11.914   4.332 -31.483  1.00  0.00     0.328 A 
HETATM   15  O   UNL     1     -11.813   5.185 -30.616  1.00  0.00    -0.247 OA
HETATM   16  N   UNL     1     -12.968   3.428 -31.639  1.00  0.00    -0.306 N 
HETATM   17  C   UNL     1     -12.761   2.694 -32.802  1.00  0.00     0.063 A 
HETATM   18  H   UNL     1     -13.773   3.390 -31.034  1.00  0.00     0.171 HD
HETATM   19  C   UNL     1     -11.550   3.102 -33.367  1.00  0.00     0.066 A 
HETATM   20  C   UNL     1     -13.580   1.756 -33.387  1.00  0.00     0.032 A 
HETATM   21  C   UNL     1     -11.110   2.577 -34.563  1.00  0.00     0.032 A 
HETATM   22  C   UNL     1     -11.928   1.624 -35.184  1.00  0.00     0.002 A 
HETATM   23  C   UNL     1     -13.148   1.218 -34.602  1.00  0.00     0.002 A 
ENDBRANCH  12  13
ENDBRANCH   9  12
ENDBRANCH   1   8
BRANCH   1  24
HETATM   24  C   UNL     1      -6.349   2.258 -32.041  1.00  0.00     0.013 C 
HETATM   25  C   UNL     1      -6.181   1.848 -30.704  1.00  0.00     0.075 C 
HETATM   26  C   UNL     1      -6.042   0.513 -30.352  1.00  0.00     0.038 C 
HETATM   27  C   UNL     1      -6.139  -0.465 -31.334  1.00  0.00     0.015 C 
HETATM   28  C   UNL     1      -6.415  -0.120 -32.662  1.00  0.00    -0.025 A 
HETATM   29  C   UNL     1      -6.538   1.247 -33.038  1.00  0.00    -0.015 A 
HETATM   30  C   UNL     1      -6.580  -1.139 -33.616  1.00  0.00     0.012 A 
HETATM   31  C   UNL     1      -6.869   1.504 -34.389  1.00  0.00     0.013 A 
HETATM   32  C   UNL     1      -7.045   0.481 -35.325  1.00  0.00     0.001 A 
HETATM   33  C   UNL     1      -6.894  -0.841 -34.940  1.00  0.00     0.001 A 
BRANCH  25  34
HETATM   34  O   UNL     1      -6.204   2.745 -29.669  1.00  0.00    -0.360 OA
HETATM   35  H   UNL     1      -6.250   2.205 -28.846  1.00  0.00     0.217 HD
ENDBRANCH  25  34
ENDBRANCH   1  24
TORSDOF 6
ENDMDL
MODEL 7
REMARK VINA RESULT:      -8.3      1.873      6.008
REMARK  6 active torsions:
REMARK  status: ('A' for Active; 'I' for Inactive)
REMARK    1  A    between atoms: C_4  and  C_5 
REMARK    2  A    between atoms: C_5  and  N_6 
REMARK    3  A    between atoms: C_5  and  C_20 
REMARK       I    between atoms: N_6  and  C_7 
REMARK    4  A    between atoms: C_7  and  C_8 
REMARK    5  A    between atoms: C_8  and  N_9 
REMARK    6  A    between atoms: C_21  and  O_22 
ROOT
HETATM    1  C   UNL     1      -8.010   2.721 -33.313  1.00  0.00     0.154 C 
ENDROOT
BRANCH   1   2
HETATM    2  C   UNL     1      -9.535   2.573 -33.326  1.00  0.00    -0.031 A 
HETATM    3  C   UNL     1     -10.083   1.458 -33.996  1.00  0.00     0.009 A 
HETATM    4  C   UNL     1     -11.462   1.249 -34.053  1.00  0.00     0.001 A 
HETATM    5  C   UNL     1     -12.326   2.149 -33.438  1.00  0.00     0.000 A 
HETATM    6  C   UNL     1     -11.810   3.258 -32.773  1.00  0.00     0.001 A 
HETATM    7  C   UNL     1     -10.428   3.471 -32.721  1.00  0.00     0.009 A 
ENDBRANCH   1   2
BRANCH   1   8
HETATM    8  N   UNL     1      -7.500   4.033 -32.962  1.00  0.00    -0.347 N 
HETATM    9  C   UNL     1      -6.442   4.596 -33.648  1.00  0.00     0.236 C 
HETATM   10  O   UNL     1      -5.883   4.040 -34.593  1.00  0.00    -0.272 OA
HETATM   11  H   UNL     1      -8.106   4.676 -32.456  1.00  0.00     0.163 HD
BRANCH   9  12
HETATM   12  C   UNL     1      -5.991   5.951 -33.095  1.00  0.00     0.236 C 
BRANCH  12  13
HETATM   13  N   UNL     1      -4.887   5.830 -32.174  1.00  0.00    -0.289 N 
HETATM   14  C   UNL     1      -5.013   5.391 -30.841  1.00  0.00     0.328 A 
HETATM   15  O   UNL     1      -6.054   5.203 -30.232  1.00  0.00    -0.247 OA
HETATM   16  N   UNL     1      -3.719   5.193 -30.353  1.00  0.00    -0.306 N 
HETATM   17  C   UNL     1      -2.812   5.418 -31.383  1.00  0.00     0.063 A 
HETATM   18  H   UNL     1      -3.510   4.865 -29.424  1.00  0.00     0.171 HD
HETATM   19  C   UNL     1      -3.527   5.803 -32.520  1.00  0.00     0.066 A 
HETATM   20  C   UNL     1      -1.445   5.261 -31.378  1.00  0.00     0.032 A 
HETATM   21  C   UNL     1      -2.886   6.044 -33.716  1.00  0.00     0.032 A 
HETATM   22  C   UNL     1      -1.495   5.884 -33.741  1.00  0.00     0.002 A 
HETATM   23  C   UNL     1      -0.782   5.498 -32.586  1.00  0.00     0.002 A 
ENDBRANCH  12  13
ENDBRANCH   9  12
ENDBRANCH   1   8
BRANCH   1  24
HETATM   24  C   UNL     1      -7.297   1.626 -32.508  1.00  0.00     0.013 C 
HETATM   25  C   UNL     1      -7.155   1.802 -31.118  1.00  0.00     0.075 C 
HETATM   26  C   UNL     1      -6.370   0.959 -30.343  1.00  0.00     0.038 C 
HETATM   27  C   UNL     1      -5.757  -0.138 -30.936  1.00  0.00     0.015 C 
HETATM   28  C   UNL     1      -5.955  -0.422 -32.291  1.00  0.00    -0.025 A 
HETATM   29  C   UNL     1      -6.740   0.447 -33.100  1.00  0.00    -0.015 A 
HETATM   30  C   UNL     1      -5.380  -1.580 -32.842  1.00  0.00     0.012 A 
HETATM   31  C   UNL     1      -6.931   0.057 -34.446  1.00  0.00     0.013 A 
HETATM   32  C   UNL     1      -6.366  -1.105 -34.978  1.00  0.00     0.001 A 
HETATM   33  C   UNL     1      -5.584  -1.921 -34.176  1.00  0.00     0.001 A 
BRANCH  25  34
HETATM   34  O   UNL     1      -7.831   2.784 -30.444  1.00  0.00    -0.360 OA
HETATM   35  H   UNL     1      -7.251   3.041 -29.690  1.00  0.00     0.217 HD
ENDBRANCH  25  34
ENDBRANCH   1  24
TORSDOF 6
ENDMDL
MODEL 8
REMARK VINA RESULT:      -8.3      2.121      3.567
REMARK  6 active torsions:
REMARK  status: ('A' for Active; 'I' for Inactive)
REMARK    1  A    between atoms: C_4  and  C_5 
REMARK    2  A    between atoms: C_5  and  N_6 
REMARK    3  A    between atoms: C_5  and  C_20 
REMARK       I    between atoms: N_6  and  C_7 
REMARK    4  A    between atoms: C_7  and  C_8 
REMARK    5  A    between atoms: C_8  and  N_9 
REMARK    6  A    between atoms: C_21  and  O_22 
ROOT
HETATM    1  C   UNL     1      -6.379   1.920 -32.665  1.00  0.00     0.154 C 
ENDROOT
BRANCH   1   2
HETATM    2  C   UNL     1      -5.448   3.043 -33.132  1.00  0.00    -0.031 A 
HETATM    3  C   UNL     1      -4.255   3.253 -32.408  1.00  0.00     0.009 A 
HETATM    4  C   UNL     1      -3.352   4.255 -32.769  1.00  0.00     0.001 A 
HETATM    5  C   UNL     1      -3.620   5.069 -33.864  1.00  0.00     0.000 A 
HETATM    6  C   UNL     1      -4.791   4.883 -34.593  1.00  0.00     0.001 A 
HETATM    7  C   UNL     1      -5.700   3.883 -34.228  1.00  0.00     0.009 A 
ENDBRANCH   1   2
BRANCH   1   8
HETATM    8  N   UNL     1      -7.794   2.237 -32.633  1.00  0.00    -0.347 N 
HETATM    9  C   UNL     1      -8.421   2.593 -31.455  1.00  0.00     0.236 C 
HETATM   10  O   UNL     1      -7.829   2.677 -30.379  1.00  0.00    -0.272 OA
HETATM   11  H   UNL     1      -8.253   2.526 -33.495  1.00  0.00     0.163 HD
BRANCH   9  12
HETATM   12  C   UNL     1      -9.929   2.821 -31.595  1.00  0.00     0.236 C 
BRANCH  12  13
HETATM   13  N   UNL     1     -10.396   2.607 -32.942  1.00  0.00    -0.289 N 
HETATM   14  C   UNL     1     -10.537   1.339 -33.539  1.00  0.00     0.328 A 
HETATM   15  O   UNL     1     -10.153   0.274 -33.085  1.00  0.00    -0.247 OA
HETATM   16  N   UNL     1     -11.220   1.529 -34.744  1.00  0.00    -0.306 N 
HETATM   17  C   UNL     1     -11.572   2.870 -34.853  1.00  0.00     0.063 A 
HETATM   18  H   UNL     1     -11.470   0.785 -35.375  1.00  0.00     0.171 HD
HETATM   19  C   UNL     1     -11.075   3.545 -33.735  1.00  0.00     0.066 A 
HETATM   20  C   UNL     1     -12.319   3.489 -35.828  1.00  0.00     0.032 A 
HETATM   21  C   UNL     1     -11.318   4.889 -33.549  1.00  0.00     0.032 A 
HETATM   22  C   UNL     1     -12.083   5.542 -34.524  1.00  0.00     0.002 A 
HETATM   23  C   UNL     1     -12.577   4.851 -35.651  1.00  0.00     0.002 A 
ENDBRANCH  12  13
ENDBRANCH   9  12
ENDBRANCH   1   8
BRANCH   1  24
HETATM   24  C   UNL     1      -6.136   0.587 -33.386  1.00  0.00     0.013 C 
HETATM   25  C   UNL     1      -6.950   0.262 -34.488  1.00  0.00     0.075 C 
HETATM   26  C   UNL     1      -6.925  -0.992 -35.081  1.00  0.00     0.038 C 
HETATM   27  C   UNL     1      -6.020  -1.943 -34.627  1.00  0.00     0.015 C 
HETATM   28  C   UNL     1      -5.111  -1.637 -33.608  1.00  0.00    -0.025 A 
HETATM   29  C   UNL     1      -5.143  -0.361 -32.978  1.00  0.00    -0.015 A 
HETATM   30  C   UNL     1      -4.161  -2.598 -33.223  1.00  0.00     0.012 A 
HETATM   31  C   UNL     1      -4.156  -0.118 -31.994  1.00  0.00     0.013 A 
HETATM   32  C   UNL     1      -3.207  -1.077 -31.630  1.00  0.00     0.001 A 
HETATM   33  C   UNL     1      -3.213  -2.321 -32.241  1.00  0.00     0.001 A 
BRANCH  25  34
HETATM   34  O   UNL     1      -7.774   1.188 -35.071  1.00  0.00    -0.360 OA
HETATM   35  H   UNL     1      -7.566   2.046 -34.635  1.00  0.00     0.217 HD
ENDBRANCH  25  34
ENDBRANCH   1  24
TORSDOF 6
ENDMDL
MODEL 9
REMARK VINA RESULT:      -8.1      1.920      2.821
REMARK  6 active torsions:
REMARK  status: ('A' for Active; 'I' for Inactive)
REMARK    1  A    between atoms: C_4  and  C_5 
REMARK    2  A    between atoms: C_5  and  N_6 
REMARK    3  A    between atoms: C_5  and  C_20 
REMARK       I    between atoms: N_6  and  C_7 
REMARK    4  A    between atoms: C_7  and  C_8 
REMARK    5  A    between atoms: C_8  and  N_9 
REMARK    6  A    between atoms: C_21  and  O_22 
ROOT
HETATM    1  C   UNL     1      -4.744   2.782 -32.101  1.00  0.00     0.154 C 
ENDROOT
BRANCH   1   2
HETATM    2  C   UNL     1      -4.051   3.727 -33.089  1.00  0.00    -0.031 A 
HETATM    3  C   UNL     1      -2.656   3.900 -32.966  1.00  0.00     0.009 A 
HETATM    4  C   UNL     1      -1.949   4.742 -33.827  1.00  0.00     0.001 A 
HETATM    5  C   UNL     1      -2.621   5.428 -34.833  1.00  0.00     0.000 A 
HETATM    6  C   UNL     1      -3.998   5.275 -34.972  1.00  0.00     0.001 A 
HETATM    7  C   UNL     1      -4.708   4.436 -34.106  1.00  0.00     0.009 A 
ENDBRANCH   1   2
BRANCH   1   8
HETATM    8  N   UNL     1      -6.074   3.172 -31.672  1.00  0.00    -0.347 N 
HETATM    9  C   UNL     1      -6.594   2.737 -30.470  1.00  0.00     0.236 C 
HETATM   10  O   UNL     1      -5.971   2.015 -29.691  1.00  0.00    -0.272 OA
HETATM   11  H   UNL     1      -6.491   4.012 -32.069  1.00  0.00     0.163 HD
BRANCH   9  12
HETATM   12  C   UNL     1      -8.036   3.185 -30.215  1.00  0.00     0.236 C 
BRANCH  12  13
HETATM   13  N   UNL     1      -8.919   2.847 -31.304  1.00  0.00    -0.289 N 
HETATM   14  C   UNL     1      -9.340   1.537 -31.604  1.00  0.00     0.328 A 
HETATM   15  O   UNL     1      -8.918   0.505 -31.108  1.00  0.00    -0.247 OA
HETATM   16  N   UNL     1     -10.350   1.642 -32.565  1.00  0.00    -0.306 N 
HETATM   17  C   UNL     1     -10.612   2.989 -32.793  1.00  0.00     0.063 A 
HETATM   18  H   UNL     1     -10.844   0.855 -32.954  1.00  0.00     0.171 HD
HETATM   19  C   UNL     1      -9.738   3.745 -32.008  1.00  0.00     0.066 A 
HETATM   20  C   UNL     1     -11.577   3.556 -33.593  1.00  0.00     0.032 A 
HETATM   21  C   UNL     1      -9.803   5.121 -31.993  1.00  0.00     0.032 A 
HETATM   22  C   UNL     1     -10.783   5.724 -32.792  1.00  0.00     0.002 A 
HETATM   23  C   UNL     1     -11.659   4.951 -33.584  1.00  0.00     0.002 A 
ENDBRANCH  12  13
ENDBRANCH   9  12
ENDBRANCH   1   8
BRANCH   1  24
HETATM   24  C   UNL     1      -4.723   1.313 -32.545  1.00  0.00     0.013 C 
HETATM   25  C   UNL     1      -3.705   0.477 -32.048  1.00  0.00     0.075 C 
HETATM   26  C   UNL     1      -3.500  -0.806 -32.533  1.00  0.00     0.038 C 
HETATM   27  C   UNL     1      -4.365  -1.319 -33.492  1.00  0.00     0.015 C 
HETATM   28  C   UNL     1      -5.459  -0.572 -33.940  1.00  0.00    -0.025 A 
HETATM   29  C   UNL     1      -5.666   0.753 -33.465  1.00  0.00    -0.015 A 
HETATM   30  C   UNL     1      -6.357  -1.149 -34.856  1.00  0.00     0.012 A 
HETATM   31  C   UNL     1      -6.825   1.418 -33.931  1.00  0.00     0.013 A 
HETATM   32  C   UNL     1      -7.718   0.828 -34.830  1.00  0.00     0.001 A 
HETATM   33  C   UNL     1      -7.480  -0.454 -35.298  1.00  0.00     0.001 A 
BRANCH  25  34
HETATM   34  O   UNL     1      -2.895   0.867 -31.015  1.00  0.00    -0.360 OA
HETATM   35  H   UNL     1      -1.980   0.616 -31.281  1.00  0.00     0.217 HD
ENDBRANCH  25  34
ENDBRANCH   1  24
TORSDOF 6
ENDMDL
MODEL 10
REMARK VINA RESULT:      -8.1      2.002      4.673
REMARK  6 active torsions:
REMARK  status: ('A' for Active; 'I' for Inactive)
REMARK    1  A    between atoms: C_4  and  C_5 
REMARK    2  A    between atoms: C_5  and  N_6 
REMARK    3  A    between atoms: C_5  and  C_20 
REMARK       I    between atoms: N_6  and  C_7 
REMARK    4  A    between atoms: C_7  and  C_8 
REMARK    5  A    between atoms: C_8  and  N_9 
REMARK    6  A    between atoms: C_21  and  O_22 
ROOT
HETATM    1  C   UNL     1      -5.011   3.122 -32.675  1.00  0.00     0.154 C 
ENDROOT
BRANCH   1   2
HETATM    2  C   UNL     1      -4.467   1.736 -32.313  1.00  0.00    -0.031 A 
HETATM    3  C   UNL     1      -5.101   0.610 -32.881  1.00  0.00     0.009 A 
HETATM    4  C   UNL     1      -4.666  -0.687 -32.603  1.00  0.00     0.001 A 
HETATM    5  C   UNL     1      -3.584  -0.889 -31.752  1.00  0.00     0.000 A 
HETATM    6  C   UNL     1      -2.944   0.206 -31.178  1.00  0.00     0.001 A 
HETATM    7  C   UNL     1      -3.383   1.506 -31.451  1.00  0.00     0.009 A 
ENDBRANCH   1   2
BRANCH   1   8
HETATM    8  N   UNL     1      -6.424   3.336 -32.429  1.00  0.00    -0.347 N 
HETATM    9  C   UNL     1      -7.182   4.135 -33.261  1.00  0.00     0.236 C 
HETATM   10  O   UNL     1      -6.722   4.695 -34.256  1.00  0.00    -0.272 OA
HETATM   11  H   UNL     1      -6.932   2.658 -31.865  1.00  0.00     0.163 HD
BRANCH   9  12
HETATM   12  C   UNL     1      -8.635   4.307 -32.807  1.00  0.00     0.236 C 
BRANCH  12  13
HETATM   13  N   UNL     1      -9.440   3.144 -33.085  1.00  0.00    -0.289 N 
HETATM   14  C   UNL     1      -9.568   2.043 -32.216  1.00  0.00     0.328 A 
HETATM   15  O   UNL     1      -8.920   1.837 -31.202  1.00  0.00    -0.247 OA
HETATM   16  N   UNL     1     -10.593   1.239 -32.722  1.00  0.00    -0.306 N 
HETATM   17  C   UNL     1     -11.149   1.868 -33.831  1.00  0.00     0.063 A 
HETATM   18  H   UNL     1     -10.908   0.386 -32.289  1.00  0.00     0.171 HD
HETATM   19  C   UNL     1     -10.449   3.056 -34.058  1.00  0.00     0.066 A 
HETATM   20  C   UNL     1     -12.229   1.482 -34.590  1.00  0.00     0.032 A 
HETATM   21  C   UNL     1     -10.816   3.916 -35.070  1.00  0.00     0.032 A 
HETATM   22  C   UNL     1     -11.918   3.550 -35.853  1.00  0.00     0.002 A 
HETATM   23  C   UNL     1     -12.616   2.346 -35.617  1.00  0.00     0.002 A 
ENDBRANCH  12  13
ENDBRANCH   9  12
ENDBRANCH   1   8
BRANCH   1  24
HETATM   24  C   UNL     1      -4.176   4.274 -32.099  1.00  0.00     0.013 C 
HETATM   25  C   UNL     1      -4.462   4.722 -30.795  1.00  0.00     0.075 C 
HETATM   26  C   UNL     1      -3.887   5.869 -30.266  1.00  0.00     0.038 C 
HETATM   27  C   UNL     1      -2.945   6.567 -31.011  1.00  0.00     0.015 C 
HETATM   28  C   UNL     1      -2.543   6.104 -32.268  1.00  0.00    -0.025 A 
HETATM   29  C   UNL     1      -3.141   4.941 -32.830  1.00  0.00    -0.015 A 
HETATM   30  C   UNL     1      -1.534   6.792 -32.964  1.00  0.00     0.012 A 
HETATM   31  C   UNL     1      -2.638   4.513 -34.082  1.00  0.00     0.013 A 
HETATM   32  C   UNL     1      -1.624   5.199 -34.756  1.00  0.00     0.001 A 
HETATM   33  C   UNL     1      -1.076   6.344 -34.200  1.00  0.00     0.001 A 
BRANCH  25  34
HETATM   34  O   UNL     1      -5.282   4.017 -29.956  1.00  0.00    -0.360 OA
HETATM   35  H   UNL     1      -6.188   4.377 -30.098  1.00  0.00     0.217 HD
ENDBRANCH  25  34
ENDBRANCH   1  24
TORSDOF 6
ENDMDL
