MODEL 1
REMARK VINA RESULT:      -8.6      0.000      0.000
REMARK  8 active torsions:
REMARK  status: ('A' for Active; 'I' for Inactive)
REMARK    1  A    between atoms: C_2  and  N_3 
REMARK       I    between atoms: N_3  and  C_4 
REMARK    2  A    between atoms: C_4  and  C_5 
REMARK    3  A    between atoms: C_5  and  C_6 
REMARK    4  A    between atoms: C_10  and  C_11 
REMARK    5  A    between atoms: C_11  and  O_12 
REMARK    6  A    between atoms: C_14  and  O_15 
REMARK    7  A    between atoms: C_22  and  N_23 
REMARK       I    between atoms: N_23  and  C_24 
REMARK    8  A    between atoms: C_24  and  C_25 
ROOT
HETATM    1  C   UNL     1      -6.070   0.923 -33.063  1.00  0.00     0.056 C 
HETATM    2  C   UNL     1      -7.405   0.916 -33.934  1.00  0.00    -0.030 C 
HETATM    3  C   UNL     1      -7.036   0.986 -35.452  1.00  0.00     0.016 C 
HETATM    4  C   UNL     1      -8.351   2.160 -33.633  1.00  0.00     0.012 C 
HETATM    5  C   UNL     1      -9.324   2.079 -32.380  1.00  0.00     0.008 C 
HETATM    6  C   UNL     1     -10.608   2.881 -32.761  1.00  0.00     0.020 C 
HETATM    7  C   UNL     1      -9.779   0.610 -32.109  1.00  0.00     0.128 C 
HETATM    8  C   UNL     1      -9.626  -0.282 -33.338  1.00  0.00     0.033 C 
HETATM    9  C   UNL     1      -8.155  -0.435 -33.716  1.00  0.00     0.013 C 
HETATM   10  C   UNL     1      -7.615   3.519 -33.783  1.00  0.00     0.055 C 
HETATM   11  C   UNL     1      -6.238   3.463 -33.235  1.00  0.00     0.012 A 
HETATM   12  C   UNL     1      -5.513   2.323 -32.951  1.00  0.00     0.056 A 
HETATM   13  N   UNL     1      -4.218   2.558 -32.511  1.00  0.00    -0.227 NA
HETATM   14  C   UNL     1      -4.026   3.849 -32.418  1.00  0.00     0.174 A 
HETATM   15  S   UNL     1      -5.320   4.855 -32.895  1.00  0.00    -0.055 SA
ENDROOT
BRANCH  14  16
HETATM   16  N   UNL     1      -2.935   4.539 -31.986  1.00  0.00    -0.300 N 
HETATM   17  C   UNL     1      -1.883   4.875 -32.800  1.00  0.00     0.281 C 
HETATM   18  O   UNL     1      -1.820   4.683 -34.009  1.00  0.00    -0.265 OA
HETATM   19  H   UNL     1      -2.891   4.786 -31.008  1.00  0.00     0.171 HD
BRANCH  17  20
HETATM   20  C   UNL     1      -0.810   5.522 -32.063  1.00  0.00     0.142 A 
HETATM   21  O   UNL     1      -0.035   4.776 -31.209  1.00  0.00    -0.317 OA
HETATM   22  C   UNL     1       0.886   5.613 -30.668  1.00  0.00     0.143 A 
HETATM   23  C   UNL     1       0.721   6.889 -31.151  1.00  0.00     0.027 A 
HETATM   24  C   UNL     1      -0.372   6.832 -32.050  1.00  0.00     0.045 A 
ENDBRANCH  17  20
ENDBRANCH  14  16
BRANCH   1  25
HETATM   25  C   UNL     1      -5.015  -0.079 -33.577  1.00  0.00     0.114 C 
BRANCH  25  26
HETATM   26  C   UNL     1      -4.752  -1.231 -32.628  1.00  0.00     0.218 C 
HETATM   27  N   UNL     1      -3.968  -2.234 -33.134  1.00  0.00    -0.357 N 
HETATM   28  H   UNL     1      -3.507  -2.075 -34.035  1.00  0.00     0.162 HD
HETATM   29  O   UNL     1      -5.264  -1.254 -31.509  1.00  0.00    -0.274 OA
BRANCH  27  30
HETATM   30  C   UNL     1      -3.723  -3.514 -32.486  1.00  0.00     0.076 C 
HETATM   31  C   UNL     1      -2.539  -3.439 -31.523  1.00  0.00     0.032 C 
HETATM   32  C   UNL     1      -3.570  -4.664 -33.478  1.00  0.00     0.032 C 
ENDBRANCH  27  30
ENDBRANCH  25  26
ENDBRANCH   1  25
BRANCH   5  33
HETATM   33  C   UNL     1      -8.798   2.749 -31.083  1.00  0.00     0.176 C 
BRANCH  33  34
HETATM   34  O   UNL     1      -9.760   2.786 -30.047  1.00  0.00    -0.400 OA
HETATM   35  H   UNL     1      -9.971   1.845 -29.859  1.00  0.00     0.209 HD
ENDBRANCH  33  34
ENDBRANCH   5  33
BRANCH   7  36
HETATM   36  O   UNL     1      -9.041   0.030 -31.029  1.00  0.00    -0.395 OA
HETATM   37  H   UNL     1      -9.351   0.448 -30.203  1.00  0.00     0.210 HD
ENDBRANCH   7  36
TORSDOF 8
ENDMDL
MODEL 2
REMARK VINA RESULT:      -8.5      2.809      7.135
REMARK  8 active torsions:
REMARK  status: ('A' for Active; 'I' for Inactive)
REMARK    1  A    between atoms: C_2  and  N_3 
REMARK       I    between atoms: N_3  and  C_4 
REMARK    2  A    between atoms: C_4  and  C_5 
REMARK    3  A    between atoms: C_5  and  C_6 
REMARK    4  A    between atoms: C_10  and  C_11 
REMARK    5  A    between atoms: C_11  and  O_12 
REMARK    6  A    between atoms: C_14  and  O_15 
REMARK    7  A    between atoms: C_22  and  N_23 
REMARK       I    between atoms: N_23  and  C_24 
REMARK    8  A    between atoms: C_24  and  C_25 
ROOT
HETATM    1  C   UNL     1      -6.763   3.992 -32.816  1.00  0.00     0.056 C 
HETATM    2  C   UNL     1      -7.882   4.803 -32.021  1.00  0.00    -0.030 C 
HETATM    3  C   UNL     1      -7.518   4.835 -30.500  1.00  0.00     0.016 C 
HETATM    4  C   UNL     1      -9.326   4.145 -32.134  1.00  0.00     0.012 C 
HETATM    5  C   UNL     1     -10.198   4.463 -33.424  1.00  0.00     0.008 C 
HETATM    6  C   UNL     1     -11.690   4.469 -32.962  1.00  0.00     0.020 C 
HETATM    7  C   UNL     1      -9.896   5.892 -33.975  1.00  0.00     0.128 C 
HETATM    8  C   UNL     1      -9.268   6.800 -32.922  1.00  0.00     0.033 C 
HETATM    9  C   UNL     1      -7.892   6.284 -32.513  1.00  0.00     0.013 C 
HETATM   10  C   UNL     1      -9.337   2.651 -31.709  1.00  0.00     0.055 C 
HETATM   11  C   UNL     1      -8.134   1.932 -32.196  1.00  0.00     0.012 A 
HETATM   12  C   UNL     1      -6.962   2.503 -32.648  1.00  0.00     0.056 A 
HETATM   13  N   UNL     1      -5.968   1.595 -32.981  1.00  0.00    -0.227 NA
HETATM   14  C   UNL     1      -6.431   0.381 -32.830  1.00  0.00     0.174 A 
HETATM   15  S   UNL     1      -8.026   0.234 -32.238  1.00  0.00    -0.055 SA
ENDROOT
BRANCH  14  16
HETATM   16  N   UNL     1      -5.835  -0.817 -33.082  1.00  0.00    -0.300 N 
HETATM   17  C   UNL     1      -5.983  -1.500 -34.263  1.00  0.00     0.281 C 
HETATM   18  O   UNL     1      -6.583  -1.100 -35.254  1.00  0.00    -0.265 OA
HETATM   19  H   UNL     1      -5.281  -1.231 -32.347  1.00  0.00     0.171 HD
BRANCH  17  20
HETATM   20  C   UNL     1      -5.320  -2.793 -34.229  1.00  0.00     0.142 A 
HETATM   21  O   UNL     1      -4.127  -2.921 -33.561  1.00  0.00    -0.317 OA
HETATM   22  C   UNL     1      -3.740  -4.217 -33.674  1.00  0.00     0.143 A 
HETATM   23  C   UNL     1      -4.656  -4.932 -34.409  1.00  0.00     0.027 A 
HETATM   24  C   UNL     1      -5.675  -4.016 -34.767  1.00  0.00     0.045 A 
ENDBRANCH  17  20
ENDBRANCH  14  16
BRANCH   1  25
HETATM   25  C   UNL     1      -5.330   4.428 -32.444  1.00  0.00     0.114 C 
BRANCH  25  26
HETATM   26  C   UNL     1      -4.526   4.953 -33.618  1.00  0.00     0.218 C 
HETATM   27  N   UNL     1      -3.304   5.482 -33.296  1.00  0.00    -0.357 N 
HETATM   28  H   UNL     1      -2.966   5.359 -32.338  1.00  0.00     0.162 HD
HETATM   29  O   UNL     1      -4.992   4.934 -34.757  1.00  0.00    -0.274 OA
BRANCH  27  30
HETATM   30  C   UNL     1      -2.435   6.202 -34.214  1.00  0.00     0.076 C 
HETATM   31  C   UNL     1      -1.413   5.271 -34.866  1.00  0.00     0.032 C 
HETATM   32  C   UNL     1      -1.765   7.413 -33.574  1.00  0.00     0.032 C 
ENDBRANCH  27  30
ENDBRANCH  25  26
ENDBRANCH   1  25
BRANCH   5  33
HETATM   33  C   UNL     1     -10.129   3.402 -34.554  1.00  0.00     0.176 C 
BRANCH  33  34
HETATM   34  O   UNL     1     -10.904   3.743 -35.686  1.00  0.00    -0.400 OA
HETATM   35  H   UNL     1     -10.643   4.665 -35.907  1.00  0.00     0.209 HD
ENDBRANCH  33  34
ENDBRANCH   5  33
BRANCH   7  36
HETATM   36  O   UNL     1      -9.023   5.836 -35.108  1.00  0.00    -0.395 OA
HETATM   37  H   UNL     1      -8.179   5.446 -34.810  1.00  0.00     0.210 HD
ENDBRANCH   7  36
TORSDOF 8
ENDMDL
MODEL 3
REMARK VINA RESULT:      -8.3      2.795      7.341
REMARK  8 active torsions:
REMARK  status: ('A' for Active; 'I' for Inactive)
REMARK    1  A    between atoms: C_2  and  N_3 
REMARK       I    between atoms: N_3  and  C_4 
REMARK    2  A    between atoms: C_4  and  C_5 
REMARK    3  A    between atoms: C_5  and  C_6 
REMARK    4  A    between atoms: C_10  and  C_11 
REMARK    5  A    between atoms: C_11  and  O_12 
REMARK    6  A    between atoms: C_14  and  O_15 
REMARK    7  A    between atoms: C_22  and  N_23 
REMARK       I    between atoms: N_23  and  C_24 
REMARK    8  A    between atoms: C_24  and  C_25 
ROOT
HETATM    1  C   UNL     1      -5.227   3.634 -31.475  1.00  0.00     0.056 C 
HETATM    2  C   UNL     1      -6.119   4.613 -30.587  1.00  0.00    -0.030 C 
HETATM    3  C   UNL     1      -6.033   4.177 -29.087  1.00  0.00     0.016 C 
HETATM    4  C   UNL     1      -7.660   4.584 -30.985  1.00  0.00     0.012 C 
HETATM    5  C   UNL     1      -8.135   5.475 -32.211  1.00  0.00     0.008 C 
HETATM    6  C   UNL     1      -9.590   5.939 -31.885  1.00  0.00     0.020 C 
HETATM    7  C   UNL     1      -7.272   6.770 -32.340  1.00  0.00     0.128 C 
HETATM    8  C   UNL     1      -6.562   7.127 -31.037  1.00  0.00     0.033 C 
HETATM    9  C   UNL     1      -5.537   6.058 -30.670  1.00  0.00     0.013 C 
HETATM   10  C   UNL     1      -8.253   3.149 -30.971  1.00  0.00     0.055 C 
HETATM   11  C   UNL     1      -7.305   2.156 -31.532  1.00  0.00     0.012 A 
HETATM   12  C   UNL     1      -5.950   2.330 -31.722  1.00  0.00     0.056 A 
HETATM   13  N   UNL     1      -5.285   1.210 -32.201  1.00  0.00    -0.227 NA
HETATM   14  C   UNL     1      -6.155   0.256 -32.414  1.00  0.00     0.174 A 
HETATM   15  S   UNL     1      -7.780   0.593 -32.011  1.00  0.00    -0.055 SA
ENDROOT
BRANCH  14  16
HETATM   16  N   UNL     1      -5.971  -0.993 -32.924  1.00  0.00    -0.300 N 
HETATM   17  C   UNL     1      -6.154  -1.301 -34.248  1.00  0.00     0.281 C 
HETATM   18  O   UNL     1      -6.417  -0.505 -35.142  1.00  0.00    -0.265 OA
HETATM   19  H   UNL     1      -5.716  -1.730 -32.283  1.00  0.00     0.171 HD
BRANCH  17  20
HETATM   20  C   UNL     1      -5.986  -2.723 -34.503  1.00  0.00     0.142 A 
HETATM   21  O   UNL     1      -4.787  -3.323 -34.206  1.00  0.00    -0.317 OA
HETATM   22  C   UNL     1      -4.906  -4.636 -34.525  1.00  0.00     0.143 A 
HETATM   23  C   UNL     1      -6.158  -4.900 -35.028  1.00  0.00     0.027 A 
HETATM   24  C   UNL     1      -6.855  -3.668 -35.015  1.00  0.00     0.045 A 
ENDBRANCH  17  20
ENDBRANCH  14  16
BRANCH   1  25
HETATM   25  C   UNL     1      -3.818   3.411 -30.887  1.00  0.00     0.114 C 
BRANCH  25  26
HETATM   26  C   UNL     1      -2.698   3.931 -31.768  1.00  0.00     0.218 C 
HETATM   27  N   UNL     1      -1.720   4.631 -31.113  1.00  0.00    -0.357 N 
HETATM   28  H   UNL     1      -1.734   4.631 -30.089  1.00  0.00     0.162 HD
HETATM   29  O   UNL     1      -2.726   3.761 -32.986  1.00  0.00    -0.274 OA
BRANCH  27  30
HETATM   30  C   UNL     1      -0.648   5.374 -31.757  1.00  0.00     0.076 C 
HETATM   31  C   UNL     1       0.629   5.359 -30.917  1.00  0.00     0.032 C 
HETATM   32  C   UNL     1      -1.052   6.794 -32.139  1.00  0.00     0.032 C 
ENDBRANCH  27  30
ENDBRANCH  25  26
ENDBRANCH   1  25
BRANCH   5  33
HETATM   33  C   UNL     1      -8.241   4.737 -33.571  1.00  0.00     0.176 C 
BRANCH  33  34
HETATM   34  O   UNL     1      -8.611   5.587 -34.639  1.00  0.00    -0.400 OA
HETATM   35  H   UNL     1      -8.320   5.118 -35.452  1.00  0.00     0.209 HD
ENDBRANCH  33  34
ENDBRANCH   5  33
BRANCH   7  36
HETATM   36  O   UNL     1      -6.291   6.638 -33.374  1.00  0.00    -0.395 OA
HETATM   37  H   UNL     1      -6.630   5.988 -34.019  1.00  0.00     0.210 HD
ENDBRANCH   7  36
TORSDOF 8
ENDMDL
MODEL 4
REMARK VINA RESULT:      -8.1      3.165      7.786
REMARK  8 active torsions:
REMARK  status: ('A' for Active; 'I' for Inactive)
REMARK    1  A    between atoms: C_2  and  N_3 
REMARK       I    between atoms: N_3  and  C_4 
REMARK    2  A    between atoms: C_4  and  C_5 
REMARK    3  A    between atoms: C_5  and  C_6 
REMARK    4  A    between atoms: C_10  and  C_11 
REMARK    5  A    between atoms: C_11  and  O_12 
REMARK    6  A    between atoms: C_14  and  O_15 
REMARK    7  A    between atoms: C_22  and  N_23 
REMARK       I    between atoms: N_23  and  C_24 
REMARK    8  A    between atoms: C_24  and  C_25 
ROOT
HETATM    1  C   UNL     1      -6.116   1.480 -32.041  1.00  0.00     0.056 C 
HETATM    2  C   UNL     1      -5.159   2.181 -30.976  1.00  0.00    -0.030 C 
HETATM    3  C   UNL     1      -5.239   1.409 -29.618  1.00  0.00     0.016 C 
HETATM    4  C   UNL     1      -5.566   3.689 -30.672  1.00  0.00     0.012 C 
HETATM    5  C   UNL     1      -5.065   4.819 -31.671  1.00  0.00     0.008 C 
HETATM    6  C   UNL     1      -4.829   6.100 -30.810  1.00  0.00     0.020 C 
HETATM    7  C   UNL     1      -3.687   4.446 -32.303  1.00  0.00     0.128 C 
HETATM    8  C   UNL     1      -2.931   3.407 -31.480  1.00  0.00     0.033 C 
HETATM    9  C   UNL     1      -3.681   2.079 -31.465  1.00  0.00     0.013 C 
HETATM   10  C   UNL     1      -7.051   3.832 -30.241  1.00  0.00     0.055 C 
HETATM   11  C   UNL     1      -7.942   2.950 -31.034  1.00  0.00     0.012 A 
HETATM   12  C   UNL     1      -7.556   1.872 -31.804  1.00  0.00     0.056 A 
HETATM   13  N   UNL     1      -8.605   1.176 -32.389  1.00  0.00    -0.227 NA
HETATM   14  C   UNL     1      -9.730   1.777 -32.099  1.00  0.00     0.174 A 
HETATM   15  S   UNL     1      -9.632   3.145 -31.082  1.00  0.00    -0.055 SA
ENDROOT
BRANCH  14  16
HETATM   16  N   UNL     1     -11.000   1.484 -32.491  1.00  0.00    -0.300 N 
HETATM   17  C   UNL     1     -11.616   2.082 -33.562  1.00  0.00     0.281 C 
HETATM   18  O   UNL     1     -11.097   2.874 -34.339  1.00  0.00    -0.265 OA
HETATM   19  H   UNL     1     -11.520   0.813 -31.944  1.00  0.00     0.171 HD
BRANCH  17  20
HETATM   20  C   UNL     1     -13.000   1.657 -33.699  1.00  0.00     0.142 A 
HETATM   21  O   UNL     1     -13.941   2.133 -32.818  1.00  0.00    -0.317 OA
HETATM   22  C   UNL     1     -15.134   1.595 -33.177  1.00  0.00     0.143 A 
HETATM   23  C   UNL     1     -14.985   0.776 -34.271  1.00  0.00     0.027 A 
HETATM   24  C   UNL     1     -13.610   0.815 -34.609  1.00  0.00     0.045 A 
ENDBRANCH  17  20
ENDBRANCH  14  16
BRANCH   1  25
HETATM   25  C   UNL     1      -5.935  -0.052 -32.091  1.00  0.00     0.114 C 
BRANCH  25  26
HETATM   26  C   UNL     1      -5.932  -0.622 -33.496  1.00  0.00     0.218 C 
HETATM   27  N   UNL     1      -5.815  -1.985 -33.570  1.00  0.00    -0.357 N 
HETATM   28  H   UNL     1      -5.884  -2.520 -32.700  1.00  0.00     0.162 HD
HETATM   29  O   UNL     1      -5.980   0.120 -34.476  1.00  0.00    -0.274 OA
BRANCH  27  30
HETATM   30  C   UNL     1      -5.612  -2.743 -34.795  1.00  0.00     0.076 C 
HETATM   31  C   UNL     1      -6.720  -3.773 -35.010  1.00  0.00     0.032 C 
HETATM   32  C   UNL     1      -4.228  -3.380 -34.878  1.00  0.00     0.032 C 
ENDBRANCH  27  30
ENDBRANCH  25  26
ENDBRANCH   1  25
BRANCH   5  33
HETATM   33  C   UNL     1      -6.084   5.245 -32.760  1.00  0.00     0.176 C 
BRANCH  33  34
HETATM   34  O   UNL     1      -5.531   6.115 -33.729  1.00  0.00    -0.400 OA
HETATM   35  H   UNL     1      -4.804   5.602 -34.148  1.00  0.00     0.209 HD
ENDBRANCH  33  34
ENDBRANCH   5  33
BRANCH   7  36
HETATM   36  O   UNL     1      -3.848   3.945 -33.635  1.00  0.00    -0.395 OA
HETATM   37  H   UNL     1      -3.095   3.351 -33.817  1.00  0.00     0.210 HD
ENDBRANCH   7  36
TORSDOF 8
ENDMDL
MODEL 5
REMARK VINA RESULT:      -7.7      3.758      9.526
REMARK  8 active torsions:
REMARK  status: ('A' for Active; 'I' for Inactive)
REMARK    1  A    between atoms: C_2  and  N_3 
REMARK       I    between atoms: N_3  and  C_4 
REMARK    2  A    between atoms: C_4  and  C_5 
REMARK    3  A    between atoms: C_5  and  C_6 
REMARK    4  A    between atoms: C_10  and  C_11 
REMARK    5  A    between atoms: C_11  and  O_12 
REMARK    6  A    between atoms: C_14  and  O_15 
REMARK    7  A    between atoms: C_22  and  N_23 
REMARK       I    between atoms: N_23  and  C_24 
REMARK    8  A    between atoms: C_24  and  C_25 
ROOT
HETATM    1  C   UNL     1      -3.610   6.575 -29.706  1.00  0.00     0.056 C 
HETATM    2  C   UNL     1      -2.519   7.700 -30.000  1.00  0.00    -0.030 C 
HETATM    3  C   UNL     1      -3.212   8.932 -30.671  1.00  0.00     0.016 C 
HETATM    4  C   UNL     1      -1.379   7.214 -30.999  1.00  0.00     0.012 C 
HETATM    5  C   UNL     1      -0.166   6.378 -30.404  1.00  0.00     0.008 C 
HETATM    6  C   UNL     1       1.090   6.753 -31.254  1.00  0.00     0.020 C 
HETATM    7  C   UNL     1       0.147   6.800 -28.934  1.00  0.00     0.128 C 
HETATM    8  C   UNL     1      -0.393   8.188 -28.600  1.00  0.00     0.033 C 
HETATM    9  C   UNL     1      -1.918   8.201 -28.651  1.00  0.00     0.013 C 
HETATM   10  C   UNL     1      -1.950   6.652 -32.330  1.00  0.00     0.055 C 
HETATM   11  C   UNL     1      -3.163   5.829 -32.104  1.00  0.00     0.012 A 
HETATM   12  C   UNL     1      -3.944   5.811 -30.966  1.00  0.00     0.056 A 
HETATM   13  N   UNL     1      -5.064   4.997 -31.048  1.00  0.00    -0.227 NA
HETATM   14  C   UNL     1      -5.064   4.385 -32.205  1.00  0.00     0.174 A 
HETATM   15  S   UNL     1      -3.794   4.771 -33.279  1.00  0.00    -0.055 SA
ENDROOT
BRANCH  14  16
HETATM   16  N   UNL     1      -5.931   3.461 -32.702  1.00  0.00    -0.300 N 
HETATM   17  C   UNL     1      -5.695   2.109 -32.668  1.00  0.00     0.281 C 
HETATM   18  O   UNL     1      -4.743   1.560 -32.128  1.00  0.00    -0.265 OA
HETATM   19  H   UNL     1      -6.775   3.796 -33.143  1.00  0.00     0.171 HD
BRANCH  17  20
HETATM   20  C   UNL     1      -6.735   1.359 -33.353  1.00  0.00     0.142 A 
HETATM   21  O   UNL     1      -7.767   0.820 -32.624  1.00  0.00    -0.317 OA
HETATM   22  C   UNL     1      -8.592   0.193 -33.501  1.00  0.00     0.143 A 
HETATM   23  C   UNL     1      -8.113   0.310 -34.784  1.00  0.00     0.027 A 
HETATM   24  C   UNL     1      -6.916   1.061 -34.690  1.00  0.00     0.045 A 
ENDBRANCH  17  20
ENDBRANCH  14  16
BRANCH   1  25
HETATM   25  C   UNL     1      -4.874   7.132 -29.017  1.00  0.00     0.114 C 
BRANCH  25  26
HETATM   26  C   UNL     1      -4.875   6.962 -27.510  1.00  0.00     0.218 C 
HETATM   27  N   UNL     1      -4.629   8.104 -26.796  1.00  0.00    -0.357 N 
HETATM   28  H   UNL     1      -4.607   8.993 -27.304  1.00  0.00     0.162 HD
HETATM   29  O   UNL     1      -5.039   5.853 -27.003  1.00  0.00    -0.274 OA
BRANCH  27  30
HETATM   30  C   UNL     1      -4.405   8.162 -25.359  1.00  0.00     0.076 C 
HETATM   31  C   UNL     1      -5.040   9.406 -24.741  1.00  0.00     0.032 C 
HETATM   32  C   UNL     1      -2.932   8.035 -24.981  1.00  0.00     0.032 C 
ENDBRANCH  27  30
ENDBRANCH  25  26
ENDBRANCH   1  25
BRANCH   5  33
HETATM   33  C   UNL     1      -0.294   4.837 -30.529  1.00  0.00     0.176 C 
BRANCH  33  34
HETATM   34  O   UNL     1       0.727   4.137 -29.844  1.00  0.00    -0.400 OA
HETATM   35  H   UNL     1       0.751   3.248 -30.261  1.00  0.00     0.209 HD
ENDBRANCH  33  34
ENDBRANCH   5  33
BRANCH   7  36
HETATM   36  O   UNL     1      -0.395   5.861 -28.000  1.00  0.00    -0.395 OA
HETATM   37  H   UNL     1       0.286   5.698 -27.319  1.00  0.00     0.210 HD
ENDBRANCH   7  36
TORSDOF 8
ENDMDL
MODEL 6
REMARK VINA RESULT:      -7.5      2.867      8.698
REMARK  8 active torsions:
REMARK  status: ('A' for Active; 'I' for Inactive)
REMARK    1  A    between atoms: C_2  and  N_3 
REMARK       I    between atoms: N_3  and  C_4 
REMARK    2  A    between atoms: C_4  and  C_5 
REMARK    3  A    between atoms: C_5  and  C_6 
REMARK    4  A    between atoms: C_10  and  C_11 
REMARK    5  A    between atoms: C_11  and  O_12 
REMARK    6  A    between atoms: C_14  and  O_15 
REMARK    7  A    between atoms: C_22  and  N_23 
REMARK       I    between atoms: N_23  and  C_24 
REMARK    8  A    between atoms: C_24  and  C_25 
ROOT
HETATM    1  C   UNL     1      -3.708   6.381 -30.198  1.00  0.00     0.056 C 
HETATM    2  C   UNL     1      -2.651   7.561 -30.379  1.00  0.00    -0.030 C 
HETATM    3  C   UNL     1      -3.295   8.711 -31.221  1.00  0.00     0.016 C 
HETATM    4  C   UNL     1      -1.337   7.105 -31.153  1.00  0.00     0.012 C 
HETATM    5  C   UNL     1      -0.190   6.381 -30.326  1.00  0.00     0.008 C 
HETATM    6  C   UNL     1       1.163   6.797 -30.984  1.00  0.00     0.020 C 
HETATM    7  C   UNL     1      -0.145   6.892 -28.851  1.00  0.00     0.128 C 
HETATM    8  C   UNL     1      -0.812   8.255 -28.688  1.00  0.00     0.033 C 
HETATM    9  C   UNL     1      -2.307   8.164 -28.982  1.00  0.00     0.013 C 
HETATM   10  C   UNL     1      -1.650   6.444 -32.524  1.00  0.00     0.055 C 
HETATM   11  C   UNL     1      -2.834   5.554 -32.447  1.00  0.00     0.012 A 
HETATM   12  C   UNL     1      -3.787   5.538 -31.449  1.00  0.00     0.056 A 
HETATM   13  N   UNL     1      -4.830   4.648 -31.662  1.00  0.00    -0.227 NA
HETATM   14  C   UNL     1      -4.606   3.984 -32.766  1.00  0.00     0.174 A 
HETATM   15  S   UNL     1      -3.203   4.402 -33.645  1.00  0.00    -0.055 SA
ENDROOT
BRANCH  14  16
HETATM   16  N   UNL     1      -5.326   2.981 -33.342  1.00  0.00    -0.300 N 
HETATM   17  C   UNL     1      -5.359   1.700 -32.853  1.00  0.00     0.281 C 
HETATM   18  O   UNL     1      -4.831   1.312 -31.817  1.00  0.00    -0.265 OA
HETATM   19  H   UNL     1      -5.835   3.193 -34.187  1.00  0.00     0.171 HD
BRANCH  17  20
HETATM   20  C   UNL     1      -6.124   0.811 -33.712  1.00  0.00     0.142 A 
HETATM   21  O   UNL     1      -6.967   1.346 -34.656  1.00  0.00    -0.317 OA
HETATM   22  C   UNL     1      -7.538   0.309 -35.318  1.00  0.00     0.143 A 
HETATM   23  C   UNL     1      -7.087  -0.890 -34.819  1.00  0.00     0.027 A 
HETATM   24  C   UNL     1      -6.176  -0.569 -33.783  1.00  0.00     0.045 A 
ENDBRANCH  17  20
ENDBRANCH  14  16
BRANCH   1  25
HETATM   25  C   UNL     1      -5.097   6.885 -29.752  1.00  0.00     0.114 C 
BRANCH  25  26
HETATM   26  C   UNL     1      -6.008   5.790 -29.233  1.00  0.00     0.218 C 
HETATM   27  N   UNL     1      -7.085   5.504 -30.029  1.00  0.00    -0.357 N 
HETATM   28  H   UNL     1      -7.122   5.931 -30.959  1.00  0.00     0.162 HD
HETATM   29  O   UNL     1      -5.791   5.255 -28.147  1.00  0.00    -0.274 OA
BRANCH  27  30
HETATM   30  C   UNL     1      -8.187   4.627 -29.664  1.00  0.00     0.076 C 
HETATM   31  C   UNL     1      -7.899   3.175 -30.044  1.00  0.00     0.032 C 
HETATM   32  C   UNL     1      -9.530   5.096 -30.215  1.00  0.00     0.032 C 
ENDBRANCH  27  30
ENDBRANCH  25  26
ENDBRANCH   1  25
BRANCH   5  33
HETATM   33  C   UNL     1      -0.207   4.831 -30.380  1.00  0.00     0.176 C 
BRANCH  33  34
HETATM   34  O   UNL     1       0.825   4.236 -29.616  1.00  0.00    -0.400 OA
HETATM   35  H   UNL     1       0.679   3.268 -29.700  1.00  0.00     0.209 HD
ENDBRANCH  33  34
ENDBRANCH   5  33
BRANCH   7  36
HETATM   36  O   UNL     1      -0.777   5.964 -27.963  1.00  0.00    -0.395 OA
HETATM   37  H   UNL     1      -1.613   5.682 -28.379  1.00  0.00     0.210 HD
ENDBRANCH   7  36
TORSDOF 8
ENDMDL
MODEL 7
REMARK VINA RESULT:      -7.5      4.073      7.434
REMARK  8 active torsions:
REMARK  status: ('A' for Active; 'I' for Inactive)
REMARK    1  A    between atoms: C_2  and  N_3 
REMARK       I    between atoms: N_3  and  C_4 
REMARK    2  A    between atoms: C_4  and  C_5 
REMARK    3  A    between atoms: C_5  and  C_6 
REMARK    4  A    between atoms: C_10  and  C_11 
REMARK    5  A    between atoms: C_11  and  O_12 
REMARK    6  A    between atoms: C_14  and  O_15 
REMARK    7  A    between atoms: C_22  and  N_23 
REMARK       I    between atoms: N_23  and  C_24 
REMARK    8  A    between atoms: C_24  and  C_25 
ROOT
HETATM    1  C   UNL     1      -9.671   2.696 -33.172  1.00  0.00     0.056 C 
HETATM    2  C   UNL     1      -9.628   4.290 -33.185  1.00  0.00    -0.030 C 
HETATM    3  C   UNL     1      -9.366   4.791 -34.645  1.00  0.00     0.016 C 
HETATM    4  C   UNL     1      -8.464   4.888 -32.279  1.00  0.00     0.012 C 
HETATM    5  C   UNL     1      -8.729   5.039 -30.720  1.00  0.00     0.008 C 
HETATM    6  C   UNL     1      -7.937   6.302 -30.255  1.00  0.00     0.020 C 
HETATM    7  C   UNL     1     -10.235   5.323 -30.425  1.00  0.00     0.128 C 
HETATM    8  C   UNL     1     -10.971   5.880 -31.640  1.00  0.00     0.033 C 
HETATM    9  C   UNL     1     -11.022   4.847 -32.762  1.00  0.00     0.013 C 
HETATM   10  C   UNL     1      -7.069   4.306 -32.637  1.00  0.00     0.055 C 
HETATM   11  C   UNL     1      -7.137   2.853 -32.924  1.00  0.00     0.012 A 
HETATM   12  C   UNL     1      -8.273   2.124 -33.211  1.00  0.00     0.056 A 
HETATM   13  N   UNL     1      -8.042   0.789 -33.509  1.00  0.00    -0.227 NA
HETATM   14  C   UNL     1      -6.764   0.537 -33.381  1.00  0.00     0.174 A 
HETATM   15  S   UNL     1      -5.759   1.854 -32.966  1.00  0.00    -0.055 SA
ENDROOT
BRANCH  14  16
HETATM   16  N   UNL     1      -6.088  -0.636 -33.522  1.00  0.00    -0.300 N 
HETATM   17  C   UNL     1      -6.374  -1.559 -34.497  1.00  0.00     0.281 C 
HETATM   18  O   UNL     1      -7.193  -1.422 -35.398  1.00  0.00    -0.265 OA
HETATM   19  H   UNL     1      -5.361  -0.843 -32.854  1.00  0.00     0.171 HD
BRANCH  17  20
HETATM   20  C   UNL     1      -5.568  -2.760 -34.360  1.00  0.00     0.142 A 
HETATM   21  O   UNL     1      -4.350  -2.686 -33.729  1.00  0.00    -0.317 OA
HETATM   22  C   UNL     1      -3.822  -3.936 -33.727  1.00  0.00     0.143 A 
HETATM   23  C   UNL     1      -4.670  -4.820 -34.350  1.00  0.00     0.027 A 
HETATM   24  C   UNL     1      -5.796  -4.064 -34.758  1.00  0.00     0.045 A 
ENDBRANCH  17  20
ENDBRANCH  14  16
BRANCH   1  25
HETATM   25  C   UNL     1     -10.565   2.113 -34.287  1.00  0.00     0.114 C 
BRANCH  25  26
HETATM   26  C   UNL     1     -11.729   1.291 -33.770  1.00  0.00     0.218 C 
HETATM   27  N   UNL     1     -12.938   1.936 -33.762  1.00  0.00    -0.357 N 
HETATM   28  H   UNL     1     -12.999   2.846 -34.227  1.00  0.00     0.162 HD
HETATM   29  O   UNL     1     -11.554   0.148 -33.349  1.00  0.00    -0.274 OA
BRANCH  27  30
HETATM   30  C   UNL     1     -14.156   1.424 -33.154  1.00  0.00     0.076 C 
HETATM   31  C   UNL     1     -15.060   0.751 -34.185  1.00  0.00     0.032 C 
HETATM   32  C   UNL     1     -14.910   2.480 -32.350  1.00  0.00     0.032 C 
ENDBRANCH  27  30
ENDBRANCH  25  26
ENDBRANCH   1  25
BRANCH   5  33
HETATM   33  C   UNL     1      -8.195   3.880 -29.838  1.00  0.00     0.176 C 
BRANCH  33  34
HETATM   34  O   UNL     1      -8.876   2.658 -30.052  1.00  0.00    -0.400 OA
HETATM   35  H   UNL     1      -9.824   2.862 -29.893  1.00  0.00     0.209 HD
ENDBRANCH  33  34
ENDBRANCH   5  33
BRANCH   7  36
HETATM   36  O   UNL     1     -10.909   4.138 -29.987  1.00  0.00    -0.395 OA
HETATM   37  H   UNL     1     -10.243   3.558 -29.571  1.00  0.00     0.210 HD
ENDBRANCH   7  36
TORSDOF 8
ENDMDL
MODEL 8
REMARK VINA RESULT:      -7.4      3.497      3.832
REMARK  8 active torsions:
REMARK  status: ('A' for Active; 'I' for Inactive)
REMARK    1  A    between atoms: C_2  and  N_3 
REMARK       I    between atoms: N_3  and  C_4 
REMARK    2  A    between atoms: C_4  and  C_5 
REMARK    3  A    between atoms: C_5  and  C_6 
REMARK    4  A    between atoms: C_10  and  C_11 
REMARK    5  A    between atoms: C_11  and  O_12 
REMARK    6  A    between atoms: C_14  and  O_15 
REMARK    7  A    between atoms: C_22  and  N_23 
REMARK       I    between atoms: N_23  and  C_24 
REMARK    8  A    between atoms: C_24  and  C_25 
ROOT
HETATM    1  C   UNL     1      -6.165   2.644 -31.747  1.00  0.00     0.056 C 
HETATM    2  C   UNL     1      -7.121   2.705 -33.021  1.00  0.00    -0.030 C 
HETATM    3  C   UNL     1      -6.346   3.343 -34.222  1.00  0.00     0.016 C 
HETATM    4  C   UNL     1      -8.416   3.599 -32.785  1.00  0.00     0.012 C 
HETATM    5  C   UNL     1      -9.659   2.938 -32.048  1.00  0.00     0.008 C 
HETATM    6  C   UNL     1     -10.938   3.594 -32.659  1.00  0.00     0.020 C 
HETATM    7  C   UNL     1      -9.753   1.410 -32.352  1.00  0.00     0.128 C 
HETATM    8  C   UNL     1      -8.999   1.022 -33.620  1.00  0.00     0.033 C 
HETATM    9  C   UNL     1      -7.500   1.254 -33.451  1.00  0.00     0.013 C 
HETATM   10  C   UNL     1      -8.073   5.033 -32.298  1.00  0.00     0.055 C 
HETATM   11  C   UNL     1      -6.964   5.028 -31.313  1.00  0.00     0.012 A 
HETATM   12  C   UNL     1      -6.075   3.999 -31.082  1.00  0.00     0.056 A 
HETATM   13  N   UNL     1      -5.089   4.286 -30.149  1.00  0.00    -0.227 NA
HETATM   14  C   UNL     1      -5.296   5.484 -29.664  1.00  0.00     0.174 A 
HETATM   15  S   UNL     1      -6.611   6.359 -30.312  1.00  0.00    -0.055 SA
ENDROOT
BRANCH  14  16
HETATM   16  N   UNL     1      -4.619   6.161 -28.697  1.00  0.00    -0.300 N 
HETATM   17  C   UNL     1      -4.997   6.173 -27.378  1.00  0.00     0.281 C 
HETATM   18  O   UNL     1      -5.917   5.527 -26.889  1.00  0.00    -0.265 OA
HETATM   19  H   UNL     1      -3.815   6.705 -28.977  1.00  0.00     0.171 HD
BRANCH  17  20
HETATM   20  C   UNL     1      -4.158   7.051 -26.580  1.00  0.00     0.142 A 
HETATM   21  O   UNL     1      -4.732   7.819 -25.595  1.00  0.00    -0.317 OA
HETATM   22  C   UNL     1      -3.734   8.524 -25.004  1.00  0.00     0.143 A 
HETATM   23  C   UNL     1      -2.525   8.233 -25.590  1.00  0.00     0.027 A 
HETATM   24  C   UNL     1      -2.796   7.284 -26.605  1.00  0.00     0.045 A 
ENDBRANCH  17  20
ENDBRANCH  14  16
BRANCH   1  25
HETATM   25  C   UNL     1      -4.771   2.066 -32.071  1.00  0.00     0.114 C 
BRANCH  25  26
HETATM   26  C   UNL     1      -4.601   0.616 -31.663  1.00  0.00     0.218 C 
HETATM   27  N   UNL     1      -4.304  -0.245 -32.687  1.00  0.00    -0.357 N 
HETATM   28  H   UNL     1      -4.080   0.157 -33.602  1.00  0.00     0.162 HD
HETATM   29  O   UNL     1      -4.774   0.266 -30.496  1.00  0.00    -0.274 OA
BRANCH  27  30
HETATM   30  C   UNL     1      -4.269  -1.695 -32.578  1.00  0.00     0.076 C 
HETATM   31  C   UNL     1      -2.977  -2.178 -31.921  1.00  0.00     0.032 C 
HETATM   32  C   UNL     1      -4.520  -2.399 -33.909  1.00  0.00     0.032 C 
ENDBRANCH  27  30
ENDBRANCH  25  26
ENDBRANCH   1  25
BRANCH   5  33
HETATM   33  C   UNL     1      -9.754   3.213 -30.524  1.00  0.00     0.176 C 
BRANCH  33  34
HETATM   34  O   UNL     1     -11.050   3.592 -30.106  1.00  0.00    -0.400 OA
HETATM   35  H   UNL     1     -11.156   3.198 -29.212  1.00  0.00     0.209 HD
ENDBRANCH  33  34
ENDBRANCH   5  33
BRANCH   7  36
HETATM   36  O   UNL     1      -9.244   0.634 -31.262  1.00  0.00    -0.395 OA
HETATM   37  H   UNL     1      -8.418   0.210 -31.564  1.00  0.00     0.210 HD
ENDBRANCH   7  36
TORSDOF 8
ENDMDL
MODEL 9
REMARK VINA RESULT:      -7.2      3.634      9.208
REMARK  8 active torsions:
REMARK  status: ('A' for Active; 'I' for Inactive)
REMARK    1  A    between atoms: C_2  and  N_3 
REMARK       I    between atoms: N_3  and  C_4 
REMARK    2  A    between atoms: C_4  and  C_5 
REMARK    3  A    between atoms: C_5  and  C_6 
REMARK    4  A    between atoms: C_10  and  C_11 
REMARK    5  A    between atoms: C_11  and  O_12 
REMARK    6  A    between atoms: C_14  and  O_15 
REMARK    7  A    between atoms: C_22  and  N_23 
REMARK       I    between atoms: N_23  and  C_24 
REMARK    8  A    between atoms: C_24  and  C_25 
ROOT
HETATM    1  C   UNL     1      -3.463   7.488 -29.655  1.00  0.00     0.056 C 
HETATM    2  C   UNL     1      -2.433   8.704 -29.607  1.00  0.00    -0.030 C 
HETATM    3  C   UNL     1      -2.554   9.540 -30.924  1.00  0.00     0.016 C 
HETATM    4  C   UNL     1      -0.917   8.232 -29.500  1.00  0.00     0.012 C 
HETATM    5  C   UNL     1      -0.345   7.861 -28.065  1.00  0.00     0.008 C 
HETATM    6  C   UNL     1       1.164   8.262 -28.071  1.00  0.00     0.020 C 
HETATM    7  C   UNL     1      -1.027   8.709 -26.946  1.00  0.00     0.128 C 
HETATM    8  C   UNL     1      -1.662   9.986 -27.489  1.00  0.00     0.033 C 
HETATM    9  C   UNL     1      -2.816   9.657 -28.432  1.00  0.00     0.013 C 
HETATM   10  C   UNL     1      -0.523   7.233 -30.622  1.00  0.00     0.055 C 
HETATM   11  C   UNL     1      -1.605   6.256 -30.895  1.00  0.00     0.012 A 
HETATM   12  C   UNL     1      -2.927   6.368 -30.517  1.00  0.00     0.056 A 
HETATM   13  N   UNL     1      -3.745   5.340 -30.964  1.00  0.00    -0.227 NA
HETATM   14  C   UNL     1      -3.015   4.462 -31.604  1.00  0.00     0.174 A 
HETATM   15  S   UNL     1      -1.354   4.818 -31.771  1.00  0.00    -0.055 SA
ENDROOT
BRANCH  14  16
HETATM   16  N   UNL     1      -3.374   3.276 -32.168  1.00  0.00    -0.300 N 
HETATM   17  C   UNL     1      -4.107   2.320 -31.512  1.00  0.00     0.281 C 
HETATM   18  O   UNL     1      -4.598   2.431 -30.395  1.00  0.00    -0.265 OA
HETATM   19  H   UNL     1      -3.055   3.086 -33.107  1.00  0.00     0.171 HD
BRANCH  17  20
HETATM   20  C   UNL     1      -4.265   1.115 -32.310  1.00  0.00     0.142 A 
HETATM   21  O   UNL     1      -5.409   0.942 -33.050  1.00  0.00    -0.317 OA
HETATM   22  C   UNL     1      -5.291  -0.243 -33.700  1.00  0.00     0.143 A 
HETATM   23  C   UNL     1      -4.095  -0.846 -33.392  1.00  0.00     0.027 A 
HETATM   24  C   UNL     1      -3.432   0.027 -32.496  1.00  0.00     0.045 A 
ENDBRANCH  17  20
ENDBRANCH  14  16
BRANCH   1  25
HETATM   25  C   UNL     1      -4.881   7.921 -30.086  1.00  0.00     0.114 C 
BRANCH  25  26
HETATM   26  C   UNL     1      -5.988   7.304 -29.254  1.00  0.00     0.218 C 
HETATM   27  N   UNL     1      -6.523   6.150 -29.762  1.00  0.00    -0.357 N 
HETATM   28  H   UNL     1      -6.056   5.717 -30.564  1.00  0.00     0.162 HD
HETATM   29  O   UNL     1      -6.386   7.856 -28.229  1.00  0.00    -0.274 OA
BRANCH  27  30
HETATM   30  C   UNL     1      -7.704   5.475 -29.244  1.00  0.00     0.076 C 
HETATM   31  C   UNL     1      -7.648   3.970 -29.499  1.00  0.00     0.032 C 
HETATM   32  C   UNL     1      -9.008   6.084 -29.752  1.00  0.00     0.032 C 
ENDBRANCH  27  30
ENDBRANCH  25  26
ENDBRANCH   1  25
BRANCH   5  33
HETATM   33  C   UNL     1      -0.361   6.351 -27.710  1.00  0.00     0.176 C 
BRANCH  33  34
HETATM   34  O   UNL     1      -0.065   6.095 -26.351  1.00  0.00    -0.400 OA
HETATM   35  H   UNL     1      -0.027   5.116 -26.277  1.00  0.00     0.209 HD
ENDBRANCH  33  34
ENDBRANCH   5  33
BRANCH   7  36
HETATM   36  O   UNL     1      -2.034   7.953 -26.264  1.00  0.00    -0.395 OA
HETATM   37  H   UNL     1      -1.707   7.776 -25.361  1.00  0.00     0.210 HD
ENDBRANCH   7  36
TORSDOF 8
ENDMDL
MODEL 10
REMARK VINA RESULT:      -7.2      3.213      5.997
REMARK  8 active torsions:
REMARK  status: ('A' for Active; 'I' for Inactive)
REMARK    1  A    between atoms: C_2  and  N_3 
REMARK       I    between atoms: N_3  and  C_4 
REMARK    2  A    between atoms: C_4  and  C_5 
REMARK    3  A    between atoms: C_5  and  C_6 
REMARK    4  A    between atoms: C_10  and  C_11 
REMARK    5  A    between atoms: C_11  and  O_12 
REMARK    6  A    between atoms: C_14  and  O_15 
REMARK    7  A    between atoms: C_22  and  N_23 
REMARK       I    between atoms: N_23  and  C_24 
REMARK    8  A    between atoms: C_24  and  C_25 
ROOT
HETATM    1  C   UNL     1      -8.335   4.356 -31.966  1.00  0.00     0.056 C 
HETATM    2  C   UNL     1      -9.371   3.191 -31.633  1.00  0.00    -0.030 C 
HETATM    3  C   UNL     1      -9.734   3.239 -30.112  1.00  0.00     0.016 C 
HETATM    4  C   UNL     1      -8.788   1.739 -31.921  1.00  0.00     0.012 C 
HETATM    5  C   UNL     1      -8.848   1.187 -33.409  1.00  0.00     0.008 C 
HETATM    6  C   UNL     1      -9.046  -0.358 -33.303  1.00  0.00     0.020 C 
HETATM    7  C   UNL     1     -10.091   1.745 -34.172  1.00  0.00     0.128 C 
HETATM    8  C   UNL     1     -11.181   2.238 -33.225  1.00  0.00     0.033 C 
HETATM    9  C   UNL     1     -10.695   3.439 -32.419  1.00  0.00     0.013 C 
HETATM   10  C   UNL     1      -7.437   1.484 -31.199  1.00  0.00     0.055 C 
HETATM   11  C   UNL     1      -6.557   2.677 -31.241  1.00  0.00     0.012 A 
HETATM   12  C   UNL     1      -6.940   3.970 -31.533  1.00  0.00     0.056 A 
HETATM   13  N   UNL     1      -5.923   4.909 -31.433  1.00  0.00    -0.227 NA
HETATM   14  C   UNL     1      -4.805   4.299 -31.133  1.00  0.00     0.174 A 
HETATM   15  S   UNL     1      -4.892   2.610 -30.893  1.00  0.00    -0.055 SA
ENDROOT
BRANCH  14  16
HETATM   16  N   UNL     1      -3.550   4.803 -30.984  1.00  0.00    -0.300 N 
HETATM   17  C   UNL     1      -2.584   4.723 -31.956  1.00  0.00     0.281 C 
HETATM   18  O   UNL     1      -2.738   4.277 -33.087  1.00  0.00    -0.265 OA
HETATM   19  H   UNL     1      -3.316   5.230 -30.100  1.00  0.00     0.171 HD
BRANCH  17  20
HETATM   20  C   UNL     1      -1.310   5.253 -31.499  1.00  0.00     0.142 A 
HETATM   21  O   UNL     1      -0.523   4.493 -30.668  1.00  0.00    -0.317 OA
HETATM   22  C   UNL     1       0.599   5.211 -30.411  1.00  0.00     0.143 A 
HETATM   23  C   UNL     1       0.554   6.425 -31.054  1.00  0.00     0.027 A 
HETATM   24  C   UNL     1      -0.675   6.454 -31.757  1.00  0.00     0.045 A 
ENDBRANCH  17  20
ENDBRANCH  14  16
BRANCH   1  25
HETATM   25  C   UNL     1      -8.762   5.721 -31.387  1.00  0.00     0.114 C 
BRANCH  25  26
HETATM   26  C   UNL     1      -8.945   6.801 -32.437  1.00  0.00     0.218 C 
HETATM   27  N   UNL     1     -10.169   6.812 -33.052  1.00  0.00    -0.357 N 
HETATM   28  H   UNL     1     -10.902   6.207 -32.672  1.00  0.00     0.162 HD
HETATM   29  O   UNL     1      -8.021   7.561 -32.724  1.00  0.00    -0.274 OA
BRANCH  27  30
HETATM   30  C   UNL     1     -10.520   7.629 -34.204  1.00  0.00     0.076 C 
HETATM   31  C   UNL     1     -11.874   8.312 -34.017  1.00  0.00     0.032 C 
HETATM   32  C   UNL     1     -10.454   6.861 -35.521  1.00  0.00     0.032 C 
ENDBRANCH  27  30
ENDBRANCH  25  26
ENDBRANCH   1  25
BRANCH   5  33
HETATM   33  C   UNL     1      -7.552   1.372 -34.241  1.00  0.00     0.176 C 
BRANCH  33  34
HETATM   34  O   UNL     1      -7.631   0.796 -35.531  1.00  0.00    -0.400 OA
HETATM   35  H   UNL     1      -8.213   0.010 -35.425  1.00  0.00     0.209 HD
ENDBRANCH  33  34
ENDBRANCH   5  33
BRANCH   7  36
HETATM   36  O   UNL     1      -9.723   2.820 -35.044  1.00  0.00    -0.395 OA
HETATM   37  H   UNL     1      -9.294   2.428 -35.828  1.00  0.00     0.210 HD
ENDBRANCH   7  36
TORSDOF 8
ENDMDL
