MODEL 1
REMARK VINA RESULT:      -9.6      0.000      0.000
REMARK  6 active torsions:
REMARK  status: ('A' for Active; 'I' for Inactive)
REMARK    1  A    between atoms: C_2  and  C_3 
REMARK       I    between atoms: C_2  and  N_9 
REMARK    2  A    between atoms: C_3  and  N_4 
REMARK    3  A    between atoms: N_9  and  C_10 
REMARK    4  A    between atoms: C_15  and  C_16 
REMARK    5  A    between atoms: C_18  and  N_19 
REMARK    6  A    between atoms: N_19  and  C_20 
ROOT
HETATM    1  C   UNL     1      -9.849   1.515 -32.964  1.00  0.00     0.164 A 
HETATM    2  N   UNL     1      -8.928   1.029 -33.805  1.00  0.00    -0.210 NA
HETATM    3  C   UNL     1      -7.632   1.169 -33.484  1.00  0.00     0.143 A 
HETATM    4  C   UNL     1      -7.230   1.831 -32.313  1.00  0.00     0.039 A 
HETATM    5  C   UNL     1      -5.885   2.023 -31.906  1.00  0.00     0.018 A 
HETATM    6  C   UNL     1      -5.587   2.694 -30.723  1.00  0.00     0.001 A 
HETATM    7  C   UNL     1      -6.624   3.174 -29.934  1.00  0.00     0.002 A 
HETATM    8  C   UNL     1      -7.950   2.974 -30.330  1.00  0.00     0.032 A 
HETATM    9  C   UNL     1      -8.273   2.308 -31.505  1.00  0.00     0.073 A 
HETATM   10  N   UNL     1      -9.564   2.144 -31.811  1.00  0.00    -0.228 NA
ENDROOT
BRANCH   1  11
HETATM   11  C   UNL     1     -11.262   1.312 -33.339  1.00  0.00     0.039 A 
HETATM   12  C   UNL     1     -12.173   2.373 -33.578  1.00  0.00     0.049 A 
HETATM   13  C   UNL     1     -13.517   2.079 -33.858  1.00  0.00     0.030 A 
HETATM   14  C   UNL     1     -13.974   0.761 -33.920  1.00  0.00     0.002 A 
HETATM   15  C   UNL     1     -13.094  -0.288 -33.698  1.00  0.00     0.001 A 
HETATM   16  C   UNL     1     -11.760  -0.012 -33.408  1.00  0.00     0.018 A 
BRANCH  12  17
HETATM   17  N   UNL     1     -11.708   3.709 -33.545  1.00  0.00    -0.325 N 
HETATM   18  C   UNL     1     -11.090   4.429 -34.550  1.00  0.00     0.250 C 
HETATM   19  O   UNL     1     -10.930   4.071 -35.714  1.00  0.00    -0.271 OA
HETATM   20  H   UNL     1     -11.813   4.197 -32.654  1.00  0.00     0.169 HD
BRANCH  18  21
HETATM   21  C   UNL     1     -10.642   5.823 -34.094  1.00  0.00     0.375 C 
BRANCH  21  22
HETATM   22  N   UNL     1      -9.493   5.748 -33.167  1.00  0.00     0.097 N 
HETATM   23  C   UNL     1      -8.286   5.230 -33.824  1.00  0.00     0.273 C 
HETATM   24  C   UNL     1      -7.199   5.605 -32.834  1.00  0.00     0.032 C 
HETATM   25  C   UNL     1      -7.658   6.939 -32.260  1.00  0.00     0.032 C 
HETATM   26  C   UNL     1      -9.116   7.081 -32.683  1.00  0.00     0.273 C 
ENDBRANCH  21  22
ENDBRANCH  18  21
ENDBRANCH  12  17
ENDBRANCH   1  11
BRANCH   3  27
HETATM   27  N   UNL     1      -6.659   0.631 -34.367  1.00  0.00    -0.340 N 
HETATM   28  H   UNL     1      -6.891   0.892 -35.318  1.00  0.00     0.167 HD
BRANCH  27  29
HETATM   29  C   UNL     1      -6.089  -0.665 -34.286  1.00  0.00     0.034 A 
HETATM   30  C   UNL     1      -4.820  -0.874 -33.723  1.00  0.00     0.032 A 
HETATM   31  C   UNL     1      -4.225  -2.141 -33.656  1.00  0.00     0.034 A 
HETATM   32  C   UNL     1      -4.947  -3.203 -34.199  1.00  0.00     0.062 A 
HETATM   33  N   UNL     1      -4.668  -4.540 -34.291  1.00  0.00    -0.278 N 
HETATM   34  C   UNL     1      -6.190  -3.042 -34.796  1.00  0.00     0.013 A 
HETATM   35  H   UNL     1      -3.842  -5.023 -33.955  1.00  0.00     0.189 HD
HETATM   36  N   UNL     1      -5.627  -5.260 -34.901  1.00  0.00    -0.186 NA
HETATM   37  C   UNL     1      -6.550  -4.345 -35.208  1.00  0.00     0.152 A 
HETATM   38  C   UNL     1      -6.766  -1.758 -34.859  1.00  0.00     0.044 A 
ENDBRANCH  27  29
ENDBRANCH   3  27
TORSDOF 6
ENDMDL
MODEL 2
REMARK VINA RESULT:      -9.3      3.383      6.893
REMARK  6 active torsions:
REMARK  status: ('A' for Active; 'I' for Inactive)
REMARK    1  A    between atoms: C_2  and  C_3 
REMARK       I    between atoms: C_2  and  N_9 
REMARK    2  A    between atoms: C_3  and  N_4 
REMARK    3  A    between atoms: N_9  and  C_10 
REMARK    4  A    between atoms: C_15  and  C_16 
REMARK    5  A    between atoms: C_18  and  N_19 
REMARK    6  A    between atoms: N_19  and  C_20 
ROOT
HETATM    1  C   UNL     1      -5.404   0.257 -32.343  1.00  0.00     0.164 A 
HETATM    2  N   UNL     1      -4.256   0.943 -32.273  1.00  0.00    -0.210 NA
HETATM    3  C   UNL     1      -4.226   2.064 -31.536  1.00  0.00     0.143 A 
HETATM    4  C   UNL     1      -5.367   2.541 -30.871  1.00  0.00     0.039 A 
HETATM    5  C   UNL     1      -5.418   3.716 -30.077  1.00  0.00     0.018 A 
HETATM    6  C   UNL     1      -6.601   4.105 -29.455  1.00  0.00     0.001 A 
HETATM    7  C   UNL     1      -7.740   3.326 -29.612  1.00  0.00     0.002 A 
HETATM    8  C   UNL     1      -7.686   2.161 -30.383  1.00  0.00     0.032 A 
HETATM    9  C   UNL     1      -6.518   1.752 -31.014  1.00  0.00     0.073 A 
HETATM   10  N   UNL     1      -6.541   0.619 -31.725  1.00  0.00    -0.228 NA
ENDROOT
BRANCH   1  11
HETATM   11  C   UNL     1      -5.385  -0.987 -33.137  1.00  0.00     0.039 A 
HETATM   12  C   UNL     1      -6.489  -1.451 -33.898  1.00  0.00     0.049 A 
HETATM   13  C   UNL     1      -6.399  -2.686 -34.562  1.00  0.00     0.030 A 
HETATM   14  C   UNL     1      -5.239  -3.459 -34.500  1.00  0.00     0.002 A 
HETATM   15  C   UNL     1      -4.148  -3.016 -33.768  1.00  0.00     0.001 A 
HETATM   16  C   UNL     1      -4.226  -1.798 -33.094  1.00  0.00     0.018 A 
BRANCH  12  17
HETATM   17  N   UNL     1      -7.655  -0.655 -33.987  1.00  0.00    -0.325 N 
HETATM   18  C   UNL     1      -7.905   0.412 -34.828  1.00  0.00     0.250 C 
HETATM   19  O   UNL     1      -7.190   0.802 -35.748  1.00  0.00    -0.271 OA
HETATM   20  H   UNL     1      -8.399  -0.878 -33.323  1.00  0.00     0.169 HD
BRANCH  18  21
HETATM   21  C   UNL     1      -9.256   1.083 -34.554  1.00  0.00     0.375 C 
BRANCH  21  22
HETATM   22  N   UNL     1      -9.142   2.131 -33.518  1.00  0.00     0.097 N 
HETATM   23  C   UNL     1      -8.708   3.417 -34.078  1.00  0.00     0.273 C 
HETATM   24  C   UNL     1      -9.035   4.381 -32.954  1.00  0.00     0.032 C 
HETATM   25  C   UNL     1     -10.308   3.820 -32.336  1.00  0.00     0.032 C 
HETATM   26  C   UNL     1     -10.443   2.409 -32.900  1.00  0.00     0.273 C 
ENDBRANCH  21  22
ENDBRANCH  18  21
ENDBRANCH  12  17
ENDBRANCH   1  11
BRANCH   3  27
HETATM   27  N   UNL     1      -3.001   2.776 -31.444  1.00  0.00    -0.340 N 
HETATM   28  H   UNL     1      -2.685   2.774 -30.481  1.00  0.00     0.167 HD
BRANCH  27  29
HETATM   29  C   UNL     1      -2.691   3.988 -32.111  1.00  0.00     0.034 A 
HETATM   30  C   UNL     1      -2.474   4.027 -33.498  1.00  0.00     0.032 A 
HETATM   31  C   UNL     1      -2.142   5.207 -34.176  1.00  0.00     0.034 A 
HETATM   32  C   UNL     1      -2.011   6.359 -33.402  1.00  0.00     0.062 A 
HETATM   33  N   UNL     1      -1.709   7.652 -33.738  1.00  0.00    -0.278 N 
HETATM   34  C   UNL     1      -2.182   6.365 -32.024  1.00  0.00     0.013 A 
HETATM   35  H   UNL     1      -1.523   8.022 -34.663  1.00  0.00     0.189 HD
HETATM   36  N   UNL     1      -1.667   8.496 -32.691  1.00  0.00    -0.186 NA
HETATM   37  C   UNL     1      -1.954   7.709 -31.650  1.00  0.00     0.152 A 
HETATM   38  C   UNL     1      -2.509   5.166 -31.362  1.00  0.00     0.044 A 
ENDBRANCH  27  29
ENDBRANCH   3  27
TORSDOF 6
ENDMDL
MODEL 3
REMARK VINA RESULT:      -9.2      1.463      2.213
REMARK  6 active torsions:
REMARK  status: ('A' for Active; 'I' for Inactive)
REMARK    1  A    between atoms: C_2  and  C_3 
REMARK       I    between atoms: C_2  and  N_9 
REMARK    2  A    between atoms: C_3  and  N_4 
REMARK    3  A    between atoms: N_9  and  C_10 
REMARK    4  A    between atoms: C_15  and  C_16 
REMARK    5  A    between atoms: C_18  and  N_19 
REMARK    6  A    between atoms: N_19  and  C_20 
ROOT
HETATM    1  C   UNL     1      -9.949   1.481 -33.175  1.00  0.00     0.164 A 
HETATM    2  N   UNL     1      -8.996   0.998 -33.982  1.00  0.00    -0.210 NA
HETATM    3  C   UNL     1      -7.713   1.144 -33.614  1.00  0.00     0.143 A 
HETATM    4  C   UNL     1      -7.357   1.809 -32.431  1.00  0.00     0.039 A 
HETATM    5  C   UNL     1      -6.028   2.007 -31.974  1.00  0.00     0.018 A 
HETATM    6  C   UNL     1      -5.776   2.681 -30.783  1.00  0.00     0.001 A 
HETATM    7  C   UNL     1      -6.843   3.157 -30.032  1.00  0.00     0.002 A 
HETATM    8  C   UNL     1      -8.153   2.950 -30.475  1.00  0.00     0.032 A 
HETATM    9  C   UNL     1      -8.430   2.282 -31.661  1.00  0.00     0.073 A 
HETATM   10  N   UNL     1      -9.709   2.111 -32.013  1.00  0.00    -0.228 NA
ENDROOT
BRANCH   1  11
HETATM   11  C   UNL     1     -11.346   1.271 -33.601  1.00  0.00     0.039 A 
HETATM   12  C   UNL     1     -12.172   2.299 -34.125  1.00  0.00     0.049 A 
HETATM   13  C   UNL     1     -13.513   2.018 -34.433  1.00  0.00     0.030 A 
HETATM   14  C   UNL     1     -14.047   0.741 -34.249  1.00  0.00     0.002 A 
HETATM   15  C   UNL     1     -13.251  -0.277 -33.747  1.00  0.00     0.001 A 
HETATM   16  C   UNL     1     -11.922  -0.011 -33.425  1.00  0.00     0.018 A 
BRANCH  12  17
HETATM   17  N   UNL     1     -11.626   3.587 -34.340  1.00  0.00    -0.325 N 
HETATM   18  C   UNL     1     -11.736   4.711 -33.543  1.00  0.00     0.250 C 
HETATM   19  O   UNL     1     -12.241   4.768 -32.424  1.00  0.00    -0.271 OA
HETATM   20  H   UNL     1     -11.110   3.713 -35.212  1.00  0.00     0.169 HD
BRANCH  18  21
HETATM   21  C   UNL     1     -11.084   5.950 -34.168  1.00  0.00     0.375 C 
BRANCH  21  22
HETATM   22  N   UNL     1     -11.768   6.353 -35.414  1.00  0.00     0.097 N 
HETATM   23  C   UNL     1     -13.189   6.651 -35.193  1.00  0.00     0.273 C 
HETATM   24  C   UNL     1     -13.562   7.389 -36.465  1.00  0.00     0.032 C 
HETATM   25  C   UNL     1     -12.310   8.180 -36.821  1.00  0.00     0.032 C 
HETATM   26  C   UNL     1     -11.202   7.595 -35.952  1.00  0.00     0.273 C 
ENDBRANCH  21  22
ENDBRANCH  18  21
ENDBRANCH  12  17
ENDBRANCH   1  11
BRANCH   3  27
HETATM   27  N   UNL     1      -6.706   0.609 -34.461  1.00  0.00    -0.340 N 
HETATM   28  H   UNL     1      -6.910   0.860 -35.421  1.00  0.00     0.167 HD
BRANCH  27  29
HETATM   29  C   UNL     1      -6.124  -0.679 -34.351  1.00  0.00     0.034 A 
HETATM   30  C   UNL     1      -4.871  -0.869 -33.747  1.00  0.00     0.032 A 
HETATM   31  C   UNL     1      -4.264  -2.127 -33.650  1.00  0.00     0.034 A 
HETATM   32  C   UNL     1      -4.957  -3.202 -34.204  1.00  0.00     0.062 A 
HETATM   33  N   UNL     1      -4.661  -4.538 -34.275  1.00  0.00    -0.278 N 
HETATM   34  C   UNL     1      -6.183  -3.061 -34.841  1.00  0.00     0.013 A 
HETATM   35  H   UNL     1      -3.841  -5.008 -33.910  1.00  0.00     0.189 HD
HETATM   36  N   UNL     1      -5.593  -5.274 -34.907  1.00  0.00    -0.186 NA
HETATM   37  C   UNL     1      -6.517  -4.372 -35.251  1.00  0.00     0.152 A 
HETATM   38  C   UNL     1      -6.772  -1.785 -34.933  1.00  0.00     0.044 A 
ENDBRANCH  27  29
ENDBRANCH   3  27
TORSDOF 6
ENDMDL
MODEL 4
REMARK VINA RESULT:      -9.1      3.161      6.690
REMARK  6 active torsions:
REMARK  status: ('A' for Active; 'I' for Inactive)
REMARK    1  A    between atoms: C_2  and  C_3 
REMARK       I    between atoms: C_2  and  N_9 
REMARK    2  A    between atoms: C_3  and  N_4 
REMARK    3  A    between atoms: N_9  and  C_10 
REMARK    4  A    between atoms: C_15  and  C_16 
REMARK    5  A    between atoms: C_18  and  N_19 
REMARK    6  A    between atoms: N_19  and  C_20 
ROOT
HETATM    1  C   UNL     1      -7.172   1.003 -33.993  1.00  0.00     0.164 A 
HETATM    2  N   UNL     1      -6.533   2.177 -33.923  1.00  0.00    -0.210 NA
HETATM    3  C   UNL     1      -7.261   3.304 -33.973  1.00  0.00     0.143 A 
HETATM    4  C   UNL     1      -8.656   3.274 -34.124  1.00  0.00     0.039 A 
HETATM    5  C   UNL     1      -9.494   4.418 -34.189  1.00  0.00     0.018 A 
HETATM    6  C   UNL     1     -10.872   4.284 -34.340  1.00  0.00     0.001 A 
HETATM    7  C   UNL     1     -11.427   3.014 -34.420  1.00  0.00     0.002 A 
HETATM    8  C   UNL     1     -10.602   1.887 -34.344  1.00  0.00     0.032 A 
HETATM    9  C   UNL     1      -9.225   1.995 -34.194  1.00  0.00     0.073 A 
HETATM   10  N   UNL     1      -8.504   0.871 -34.115  1.00  0.00    -0.228 NA
ENDROOT
BRANCH   1  11
HETATM   11  C   UNL     1      -6.337  -0.211 -33.902  1.00  0.00     0.039 A 
HETATM   12  C   UNL     1      -5.375  -0.430 -32.882  1.00  0.00     0.049 A 
HETATM   13  C   UNL     1      -4.576  -1.584 -32.922  1.00  0.00     0.030 A 
HETATM   14  C   UNL     1      -4.720  -2.530 -33.939  1.00  0.00     0.002 A 
HETATM   15  C   UNL     1      -5.662  -2.336 -34.938  1.00  0.00     0.001 A 
HETATM   16  C   UNL     1      -6.454  -1.190 -34.918  1.00  0.00     0.018 A 
BRANCH  12  17
HETATM   17  N   UNL     1      -5.247   0.513 -31.834  1.00  0.00    -0.325 N 
HETATM   18  C   UNL     1      -5.906   0.541 -30.619  1.00  0.00     0.250 C 
HETATM   19  O   UNL     1      -6.654  -0.325 -30.172  1.00  0.00    -0.271 OA
HETATM   20  H   UNL     1      -4.609   1.291 -32.008  1.00  0.00     0.169 HD
BRANCH  18  21
HETATM   21  C   UNL     1      -5.568   1.785 -29.788  1.00  0.00     0.375 C 
BRANCH  21  22
HETATM   22  N   UNL     1      -6.247   2.988 -30.310  1.00  0.00     0.097 N 
HETATM   23  C   UNL     1      -7.708   2.836 -30.325  1.00  0.00     0.273 C 
HETATM   24  C   UNL     1      -8.176   4.267 -30.510  1.00  0.00     0.032 C 
HETATM   25  C   UNL     1      -7.160   5.097 -29.737  1.00  0.00     0.032 C 
HETATM   26  C   UNL     1      -5.999   4.151 -29.451  1.00  0.00     0.273 C 
ENDBRANCH  21  22
ENDBRANCH  18  21
ENDBRANCH  12  17
ENDBRANCH   1  11
BRANCH   3  27
HETATM   27  N   UNL     1      -6.582   4.548 -33.874  1.00  0.00    -0.340 N 
HETATM   28  H   UNL     1      -7.031   5.221 -34.484  1.00  0.00     0.167 HD
BRANCH  27  29
HETATM   29  C   UNL     1      -5.177   4.726 -33.813  1.00  0.00     0.034 A 
HETATM   30  C   UNL     1      -4.423   5.008 -34.964  1.00  0.00     0.032 A 
HETATM   31  C   UNL     1      -3.031   5.162 -34.933  1.00  0.00     0.034 A 
HETATM   32  C   UNL     1      -2.409   5.001 -33.696  1.00  0.00     0.062 A 
HETATM   33  N   UNL     1      -1.095   5.088 -33.319  1.00  0.00    -0.278 N 
HETATM   34  C   UNL     1      -3.106   4.688 -32.537  1.00  0.00     0.013 A 
HETATM   35  H   UNL     1      -0.298   5.305 -33.907  1.00  0.00     0.189 HD
HETATM   36  N   UNL     1      -0.883   4.856 -32.011  1.00  0.00    -0.186 NA
HETATM   37  C   UNL     1      -2.108   4.612 -31.539  1.00  0.00     0.152 A 
HETATM   38  C   UNL     1      -4.505   4.531 -32.592  1.00  0.00     0.044 A 
ENDBRANCH  27  29
ENDBRANCH   3  27
TORSDOF 6
ENDMDL
MODEL 5
REMARK VINA RESULT:      -9.1      3.336      7.013
REMARK  6 active torsions:
REMARK  status: ('A' for Active; 'I' for Inactive)
REMARK    1  A    between atoms: C_2  and  C_3 
REMARK       I    between atoms: C_2  and  N_9 
REMARK    2  A    between atoms: C_3  and  N_4 
REMARK    3  A    between atoms: N_9  and  C_10 
REMARK    4  A    between atoms: C_15  and  C_16 
REMARK    5  A    between atoms: C_18  and  N_19 
REMARK    6  A    between atoms: N_19  and  C_20 
ROOT
HETATM    1  C   UNL     1      -6.350   1.167 -32.227  1.00  0.00     0.164 A 
HETATM    2  N   UNL     1      -5.155   1.708 -31.957  1.00  0.00    -0.210 NA
HETATM    3  C   UNL     1      -5.104   2.764 -31.131  1.00  0.00     0.143 A 
HETATM    4  C   UNL     1      -6.266   3.322 -30.575  1.00  0.00     0.039 A 
HETATM    5  C   UNL     1      -6.297   4.438 -29.698  1.00  0.00     0.018 A 
HETATM    6  C   UNL     1      -7.503   4.917 -29.197  1.00  0.00     0.001 A 
HETATM    7  C   UNL     1      -8.688   4.289 -29.559  1.00  0.00     0.002 A 
HETATM    8  C   UNL     1      -8.656   3.183 -30.413  1.00  0.00     0.032 A 
HETATM    9  C   UNL     1      -7.465   2.685 -30.926  1.00  0.00     0.073 A 
HETATM   10  N   UNL     1      -7.514   1.615 -31.726  1.00  0.00    -0.228 NA
ENDROOT
BRANCH   1  11
HETATM   11  C   UNL     1      -6.358  -0.013 -33.114  1.00  0.00     0.039 A 
HETATM   12  C   UNL     1      -7.422  -0.323 -34.000  1.00  0.00     0.049 A 
HETATM   13  C   UNL     1      -7.371  -1.509 -34.751  1.00  0.00     0.030 A 
HETATM   14  C   UNL     1      -6.286  -2.382 -34.655  1.00  0.00     0.002 A 
HETATM   15  C   UNL     1      -5.234  -2.089 -33.800  1.00  0.00     0.001 A 
HETATM   16  C   UNL     1      -5.276  -0.922 -33.039  1.00  0.00     0.018 A 
BRANCH  12  17
HETATM   17  N   UNL     1      -8.508   0.575 -34.123  1.00  0.00    -0.325 N 
HETATM   18  C   UNL     1      -9.770   0.478 -33.567  1.00  0.00     0.250 C 
HETATM   19  O   UNL     1     -10.149  -0.365 -32.757  1.00  0.00    -0.271 OA
HETATM   20  H   UNL     1      -8.353   1.385 -34.726  1.00  0.00     0.169 HD
BRANCH  18  21
HETATM   21  C   UNL     1     -10.707   1.606 -34.015  1.00  0.00     0.375 C 
BRANCH  21  22
HETATM   22  N   UNL     1     -12.089   1.383 -33.543  1.00  0.00     0.097 N 
HETATM   23  C   UNL     1     -12.742   2.633 -33.134  1.00  0.00     0.273 C 
HETATM   24  C   UNL     1     -14.202   2.226 -33.074  1.00  0.00     0.032 C 
HETATM   25  C   UNL     1     -14.357   1.219 -34.206  1.00  0.00     0.032 C 
HETATM   26  C   UNL     1     -12.936   0.851 -34.617  1.00  0.00     0.273 C 
ENDBRANCH  21  22
ENDBRANCH  18  21
ENDBRANCH  12  17
ENDBRANCH   1  11
BRANCH   3  27
HETATM   27  N   UNL     1      -3.833   3.320 -30.828  1.00  0.00    -0.340 N 
HETATM   28  H   UNL     1      -3.756   3.449 -29.826  1.00  0.00     0.167 HD
BRANCH  27  29
HETATM   29  C   UNL     1      -3.179   4.346 -31.557  1.00  0.00     0.034 A 
HETATM   30  C   UNL     1      -2.382   4.055 -32.676  1.00  0.00     0.032 A 
HETATM   31  C   UNL     1      -1.705   5.048 -33.396  1.00  0.00     0.034 A 
HETATM   32  C   UNL     1      -1.839   6.357 -32.938  1.00  0.00     0.062 A 
HETATM   33  N   UNL     1      -1.329   7.541 -33.402  1.00  0.00    -0.278 N 
HETATM   34  C   UNL     1      -2.588   6.691 -31.817  1.00  0.00     0.013 A 
HETATM   35  H   UNL     1      -0.736   7.683 -34.211  1.00  0.00     0.189 HD
HETATM   36  N   UNL     1      -1.684   8.615 -32.672  1.00  0.00    -0.186 NA
HETATM   37  C   UNL     1      -2.448   8.093 -31.709  1.00  0.00     0.152 A 
HETATM   38  C   UNL     1      -3.254   5.676 -31.104  1.00  0.00     0.044 A 
ENDBRANCH  27  29
ENDBRANCH   3  27
TORSDOF 6
ENDMDL
MODEL 6
REMARK VINA RESULT:      -8.8      3.371      7.287
REMARK  6 active torsions:
REMARK  status: ('A' for Active; 'I' for Inactive)
REMARK    1  A    between atoms: C_2  and  C_3 
REMARK       I    between atoms: C_2  and  N_9 
REMARK    2  A    between atoms: C_3  and  N_4 
REMARK    3  A    between atoms: N_9  and  C_10 
REMARK    4  A    between atoms: C_15  and  C_16 
REMARK    5  A    between atoms: C_18  and  N_19 
REMARK    6  A    between atoms: N_19  and  C_20 
ROOT
HETATM    1  C   UNL     1      -6.688   2.454 -32.060  1.00  0.00     0.164 A 
HETATM    2  N   UNL     1      -7.683   2.653 -32.934  1.00  0.00    -0.210 NA
HETATM    3  C   UNL     1      -7.942   1.692 -33.836  1.00  0.00     0.143 A 
HETATM    4  C   UNL     1      -7.182   0.513 -33.896  1.00  0.00     0.039 A 
HETATM    5  C   UNL     1      -7.390  -0.545 -34.818  1.00  0.00     0.018 A 
HETATM    6  C   UNL     1      -6.581  -1.678 -34.797  1.00  0.00     0.001 A 
HETATM    7  C   UNL     1      -5.564  -1.770 -33.856  1.00  0.00     0.002 A 
HETATM    8  C   UNL     1      -5.368  -0.733 -32.939  1.00  0.00     0.032 A 
HETATM    9  C   UNL     1      -6.162   0.408 -32.940  1.00  0.00     0.073 A 
HETATM   10  N   UNL     1      -5.921   1.352 -32.024  1.00  0.00    -0.228 NA
ENDROOT
BRANCH   1  11
HETATM   11  C   UNL     1      -6.458   3.521 -31.066  1.00  0.00     0.039 A 
HETATM   12  C   UNL     1      -5.344   4.399 -31.099  1.00  0.00     0.049 A 
HETATM   13  C   UNL     1      -5.172   5.335 -30.066  1.00  0.00     0.030 A 
HETATM   14  C   UNL     1      -6.085   5.429 -29.014  1.00  0.00     0.002 A 
HETATM   15  C   UNL     1      -7.184   4.584 -28.972  1.00  0.00     0.001 A 
HETATM   16  C   UNL     1      -7.362   3.642 -29.983  1.00  0.00     0.018 A 
BRANCH  12  17
HETATM   17  N   UNL     1      -4.433   4.326 -32.179  1.00  0.00    -0.325 N 
HETATM   18  C   UNL     1      -3.181   3.741 -32.209  1.00  0.00     0.250 C 
HETATM   19  O   UNL     1      -2.668   3.065 -31.321  1.00  0.00    -0.271 OA
HETATM   20  H   UNL     1      -4.723   4.793 -33.040  1.00  0.00     0.169 HD
BRANCH  18  21
HETATM   21  C   UNL     1      -2.455   3.957 -33.542  1.00  0.00     0.375 C 
BRANCH  21  22
HETATM   22  N   UNL     1      -1.590   5.155 -33.501  1.00  0.00     0.097 N 
HETATM   23  C   UNL     1      -2.351   6.394 -33.709  1.00  0.00     0.273 C 
HETATM   24  C   UNL     1      -1.368   7.453 -33.246  1.00  0.00     0.032 C 
HETATM   25  C   UNL     1      -0.623   6.795 -32.092  1.00  0.00     0.032 C 
HETATM   26  C   UNL     1      -0.967   5.312 -32.182  1.00  0.00     0.273 C 
ENDBRANCH  21  22
ENDBRANCH  18  21
ENDBRANCH  12  17
ENDBRANCH   1  11
BRANCH   3  27
HETATM   27  N   UNL     1      -9.013   1.895 -34.746  1.00  0.00    -0.340 N 
HETATM   28  H   UNL     1      -8.688   2.460 -35.522  1.00  0.00     0.167 HD
BRANCH  27  29
HETATM   29  C   UNL     1     -10.358   2.178 -34.398  1.00  0.00     0.034 A 
HETATM   30  C   UNL     1     -10.799   3.494 -34.185  1.00  0.00     0.032 A 
HETATM   31  C   UNL     1     -12.115   3.797 -33.815  1.00  0.00     0.034 A 
HETATM   32  C   UNL     1     -12.982   2.720 -33.643  1.00  0.00     0.062 A 
HETATM   33  N   UNL     1     -14.307   2.662 -33.298  1.00  0.00    -0.278 N 
HETATM   34  C   UNL     1     -12.586   1.399 -33.809  1.00  0.00     0.013 A 
HETATM   35  H   UNL     1     -14.928   3.439 -33.103  1.00  0.00     0.189 HD
HETATM   36  N   UNL     1     -14.801   1.413 -33.225  1.00  0.00    -0.186 NA
HETATM   37  C   UNL     1     -13.751   0.648 -33.535  1.00  0.00     0.152 A 
HETATM   38  C   UNL     1     -11.255   1.117 -34.174  1.00  0.00     0.044 A 
ENDBRANCH  27  29
ENDBRANCH   3  27
TORSDOF 6
ENDMDL
MODEL 7
REMARK VINA RESULT:      -8.8      5.057      7.577
REMARK  6 active torsions:
REMARK  status: ('A' for Active; 'I' for Inactive)
REMARK    1  A    between atoms: C_2  and  C_3 
REMARK       I    between atoms: C_2  and  N_9 
REMARK    2  A    between atoms: C_3  and  N_4 
REMARK    3  A    between atoms: N_9  and  C_10 
REMARK    4  A    between atoms: C_15  and  C_16 
REMARK    5  A    between atoms: C_18  and  N_19 
REMARK    6  A    between atoms: N_19  and  C_20 
ROOT
HETATM    1  C   UNL     1      -3.960   4.367 -32.047  1.00  0.00     0.164 A 
HETATM    2  N   UNL     1      -3.832   3.092 -31.657  1.00  0.00    -0.210 NA
HETATM    3  C   UNL     1      -4.861   2.514 -31.018  1.00  0.00     0.143 A 
HETATM    4  C   UNL     1      -6.040   3.219 -30.729  1.00  0.00     0.039 A 
HETATM    5  C   UNL     1      -7.168   2.682 -30.057  1.00  0.00     0.018 A 
HETATM    6  C   UNL     1      -8.295   3.463 -29.818  1.00  0.00     0.001 A 
HETATM    7  C   UNL     1      -8.312   4.783 -30.252  1.00  0.00     0.002 A 
HETATM    8  C   UNL     1      -7.205   5.308 -30.925  1.00  0.00     0.032 A 
HETATM    9  C   UNL     1      -6.069   4.548 -31.175  1.00  0.00     0.073 A 
HETATM   10  N   UNL     1      -5.055   5.116 -31.837  1.00  0.00    -0.228 NA
ENDROOT
BRANCH   1  11
HETATM   11  C   UNL     1      -2.817   4.955 -32.774  1.00  0.00     0.039 A 
HETATM   12  C   UNL     1      -1.872   5.830 -32.179  1.00  0.00     0.049 A 
HETATM   13  C   UNL     1      -0.862   6.397 -32.972  1.00  0.00     0.030 A 
HETATM   14  C   UNL     1      -0.759   6.105 -34.333  1.00  0.00     0.002 A 
HETATM   15  C   UNL     1      -1.669   5.245 -34.929  1.00  0.00     0.001 A 
HETATM   16  C   UNL     1      -2.685   4.683 -34.157  1.00  0.00     0.018 A 
BRANCH  12  17
HETATM   17  N   UNL     1      -1.956   6.104 -30.793  1.00  0.00    -0.325 N 
HETATM   18  C   UNL     1      -2.563   7.175 -30.165  1.00  0.00     0.250 C 
HETATM   19  O   UNL     1      -3.252   8.042 -30.698  1.00  0.00    -0.271 OA
HETATM   20  H   UNL     1      -1.480   5.443 -30.177  1.00  0.00     0.169 HD
BRANCH  18  21
HETATM   21  C   UNL     1      -2.352   7.171 -28.646  1.00  0.00     0.375 C 
BRANCH  21  22
HETATM   22  N   UNL     1      -0.926   7.009 -28.296  1.00  0.00     0.097 N 
HETATM   23  C   UNL     1      -0.161   8.245 -28.503  1.00  0.00     0.273 C 
HETATM   24  C   UNL     1       1.117   7.962 -27.736  1.00  0.00     0.032 C 
HETATM   25  C   UNL     1       0.663   7.130 -26.544  1.00  0.00     0.032 C 
HETATM   26  C   UNL     1      -0.762   6.698 -26.871  1.00  0.00     0.273 C 
ENDBRANCH  21  22
ENDBRANCH  18  21
ENDBRANCH  12  17
ENDBRANCH   1  11
BRANCH   3  27
HETATM   27  N   UNL     1      -4.731   1.155 -30.627  1.00  0.00    -0.340 N 
HETATM   28  H   UNL     1      -4.126   1.097 -29.816  1.00  0.00     0.167 HD
BRANCH  27  29
HETATM   29  C   UNL     1      -4.569   0.050 -31.501  1.00  0.00     0.034 A 
HETATM   30  C   UNL     1      -3.442  -0.783 -31.429  1.00  0.00     0.032 A 
HETATM   31  C   UNL     1      -3.247  -1.865 -32.298  1.00  0.00     0.034 A 
HETATM   32  C   UNL     1      -4.225  -2.073 -33.269  1.00  0.00     0.062 A 
HETATM   33  N   UNL     1      -4.346  -3.020 -34.251  1.00  0.00    -0.278 N 
HETATM   34  C   UNL     1      -5.340  -1.257 -33.403  1.00  0.00     0.013 A 
HETATM   35  H   UNL     1      -3.713  -3.786 -34.451  1.00  0.00     0.189 HD
HETATM   36  N   UNL     1      -5.448  -2.885 -35.011  1.00  0.00    -0.186 NA
HETATM   37  C   UNL     1      -6.049  -1.810 -34.494  1.00  0.00     0.152 A 
HETATM   38  C   UNL     1      -5.512  -0.171 -32.523  1.00  0.00     0.044 A 
ENDBRANCH  27  29
ENDBRANCH   3  27
TORSDOF 6
ENDMDL
MODEL 8
REMARK VINA RESULT:      -8.7      3.942      6.575
REMARK  6 active torsions:
REMARK  status: ('A' for Active; 'I' for Inactive)
REMARK    1  A    between atoms: C_2  and  C_3 
REMARK       I    between atoms: C_2  and  N_9 
REMARK    2  A    between atoms: C_3  and  N_4 
REMARK    3  A    between atoms: N_9  and  C_10 
REMARK    4  A    between atoms: C_15  and  C_16 
REMARK    5  A    between atoms: C_18  and  N_19 
REMARK    6  A    between atoms: N_19  and  C_20 
ROOT
HETATM    1  C   UNL     1      -4.403   4.436 -32.292  1.00  0.00     0.164 A 
HETATM    2  N   UNL     1      -4.135   3.207 -31.833  1.00  0.00    -0.210 NA
HETATM    3  C   UNL     1      -5.146   2.474 -31.342  1.00  0.00     0.143 A 
HETATM    4  C   UNL     1      -6.456   2.975 -31.274  1.00  0.00     0.039 A 
HETATM    5  C   UNL     1      -7.576   2.267 -30.767  1.00  0.00     0.018 A 
HETATM    6  C   UNL     1      -8.838   2.852 -30.743  1.00  0.00     0.001 A 
HETATM    7  C   UNL     1      -8.999   4.143 -31.229  1.00  0.00     0.002 A 
HETATM    8  C   UNL     1      -7.897   4.836 -31.740  1.00  0.00     0.032 A 
HETATM    9  C   UNL     1      -6.627   4.274 -31.775  1.00  0.00     0.073 A 
HETATM   10  N   UNL     1      -5.626   4.994 -32.291  1.00  0.00    -0.228 NA
ENDROOT
BRANCH   1  11
HETATM   11  C   UNL     1      -3.269   5.195 -32.853  1.00  0.00     0.039 A 
HETATM   12  C   UNL     1      -2.925   6.510 -32.447  1.00  0.00     0.049 A 
HETATM   13  C   UNL     1      -1.873   7.180 -33.093  1.00  0.00     0.030 A 
HETATM   14  C   UNL     1      -1.147   6.571 -34.118  1.00  0.00     0.002 A 
HETATM   15  C   UNL     1      -1.465   5.283 -34.521  1.00  0.00     0.001 A 
HETATM   16  C   UNL     1      -2.514   4.610 -33.898  1.00  0.00     0.018 A 
BRANCH  12  17
HETATM   17  N   UNL     1      -3.639   7.120 -31.388  1.00  0.00    -0.325 N 
HETATM   18  C   UNL     1      -3.299   7.188 -30.050  1.00  0.00     0.250 C 
HETATM   19  O   UNL     1      -2.240   6.824 -29.545  1.00  0.00    -0.271 OA
HETATM   20  H   UNL     1      -4.538   7.536 -31.637  1.00  0.00     0.169 HD
BRANCH  18  21
HETATM   21  C   UNL     1      -4.385   7.850 -29.193  1.00  0.00     0.375 C 
BRANCH  21  22
HETATM   22  N   UNL     1      -5.642   7.072 -29.214  1.00  0.00     0.097 N 
HETATM   23  C   UNL     1      -5.573   5.887 -28.350  1.00  0.00     0.273 C 
HETATM   24  C   UNL     1      -7.033   5.495 -28.229  1.00  0.00     0.032 C 
HETATM   25  C   UNL     1      -7.779   6.823 -28.225  1.00  0.00     0.032 C 
HETATM   26  C   UNL     1      -6.760   7.860 -28.684  1.00  0.00     0.273 C 
ENDBRANCH  21  22
ENDBRANCH  18  21
ENDBRANCH  12  17
ENDBRANCH   1  11
BRANCH   3  27
HETATM   27  N   UNL     1      -4.862   1.162 -30.878  1.00  0.00    -0.340 N 
HETATM   28  H   UNL     1      -4.200   1.215 -30.113  1.00  0.00     0.167 HD
BRANCH  27  29
HETATM   29  C   UNL     1      -4.658   0.018 -31.692  1.00  0.00     0.034 A 
HETATM   30  C   UNL     1      -3.525  -0.797 -31.540  1.00  0.00     0.032 A 
HETATM   31  C   UNL     1      -3.288  -1.916 -32.348  1.00  0.00     0.034 A 
HETATM   32  C   UNL     1      -4.228  -2.182 -33.342  1.00  0.00     0.062 A 
HETATM   33  N   UNL     1      -4.304  -3.177 -34.280  1.00  0.00    -0.278 N 
HETATM   34  C   UNL     1      -5.347  -1.387 -33.554  1.00  0.00     0.013 A 
HETATM   35  H   UNL     1      -3.656  -3.944 -34.421  1.00  0.00     0.189 HD
HETATM   36  N   UNL     1      -5.380  -3.092 -35.084  1.00  0.00    -0.186 NA
HETATM   37  C   UNL     1      -6.010  -2.001 -34.641  1.00  0.00     0.152 A 
HETATM   38  C   UNL     1      -5.561  -0.263 -32.733  1.00  0.00     0.044 A 
ENDBRANCH  27  29
ENDBRANCH   3  27
TORSDOF 6
ENDMDL
MODEL 9
REMARK VINA RESULT:      -8.7      3.273      6.557
REMARK  6 active torsions:
REMARK  status: ('A' for Active; 'I' for Inactive)
REMARK    1  A    between atoms: C_2  and  C_3 
REMARK       I    between atoms: C_2  and  N_9 
REMARK    2  A    between atoms: C_3  and  N_4 
REMARK    3  A    between atoms: N_9  and  C_10 
REMARK    4  A    between atoms: C_15  and  C_16 
REMARK    5  A    between atoms: C_18  and  N_19 
REMARK    6  A    between atoms: N_19  and  C_20 
ROOT
HETATM    1  C   UNL     1      -7.151   2.916 -31.653  1.00  0.00     0.164 A 
HETATM    2  N   UNL     1      -5.823   3.052 -31.768  1.00  0.00    -0.210 NA
HETATM    3  C   UNL     1      -5.134   2.079 -32.384  1.00  0.00     0.143 A 
HETATM    4  C   UNL     1      -5.765   0.926 -32.878  1.00  0.00     0.039 A 
HETATM    5  C   UNL     1      -5.107  -0.145 -33.536  1.00  0.00     0.018 A 
HETATM    6  C   UNL     1      -5.824  -1.248 -33.992  1.00  0.00     0.001 A 
HETATM    7  C   UNL     1      -7.199  -1.292 -33.802  1.00  0.00     0.002 A 
HETATM    8  C   UNL     1      -7.847  -0.230 -33.165  1.00  0.00     0.032 A 
HETATM    9  C   UNL     1      -7.155   0.881 -32.701  1.00  0.00     0.073 A 
HETATM   10  N   UNL     1      -7.847   1.863 -32.113  1.00  0.00    -0.228 NA
ENDROOT
BRANCH   1  11
HETATM   11  C   UNL     1      -7.875   4.023 -30.998  1.00  0.00     0.039 A 
HETATM   12  C   UNL     1      -9.059   4.606 -31.518  1.00  0.00     0.049 A 
HETATM   13  C   UNL     1      -9.634   5.705 -30.860  1.00  0.00     0.030 A 
HETATM   14  C   UNL     1      -9.072   6.228 -29.694  1.00  0.00     0.002 A 
HETATM   15  C   UNL     1      -7.920   5.664 -29.167  1.00  0.00     0.001 A 
HETATM   16  C   UNL     1      -7.331   4.580 -29.815  1.00  0.00     0.018 A 
BRANCH  12  17
HETATM   17  N   UNL     1      -9.648   4.060 -32.684  1.00  0.00    -0.325 N 
HETATM   18  C   UNL     1      -9.492   4.466 -33.995  1.00  0.00     0.250 C 
HETATM   19  O   UNL     1      -8.711   5.320 -34.410  1.00  0.00    -0.271 OA
HETATM   20  H   UNL     1     -10.297   3.285 -32.535  1.00  0.00     0.169 HD
BRANCH  18  21
HETATM   21  C   UNL     1     -10.379   3.682 -34.970  1.00  0.00     0.375 C 
BRANCH  21  22
HETATM   22  N   UNL     1     -11.445   2.945 -34.261  1.00  0.00     0.097 N 
HETATM   23  C   UNL     1     -12.770   3.193 -34.844  1.00  0.00     0.273 C 
HETATM   24  C   UNL     1     -13.599   2.077 -34.237  1.00  0.00     0.032 C 
HETATM   25  C   UNL     1     -12.636   0.901 -34.145  1.00  0.00     0.032 C 
HETATM   26  C   UNL     1     -11.251   1.495 -34.372  1.00  0.00     0.273 C 
ENDBRANCH  21  22
ENDBRANCH  18  21
ENDBRANCH  12  17
ENDBRANCH   1  11
BRANCH   3  27
HETATM   27  N   UNL     1      -3.729   2.237 -32.526  1.00  0.00    -0.340 N 
HETATM   28  H   UNL     1      -3.258   1.497 -32.019  1.00  0.00     0.167 HD
BRANCH  27  29
HETATM   29  C   UNL     1      -3.021   3.465 -32.473  1.00  0.00     0.034 A 
HETATM   30  C   UNL     1      -2.296   3.844 -31.332  1.00  0.00     0.032 A 
HETATM   31  C   UNL     1      -1.610   5.062 -31.246  1.00  0.00     0.034 A 
HETATM   32  C   UNL     1      -1.694   5.909 -32.350  1.00  0.00     0.062 A 
HETATM   33  N   UNL     1      -1.151   7.142 -32.596  1.00  0.00    -0.278 N 
HETATM   34  C   UNL     1      -2.425   5.593 -33.488  1.00  0.00     0.013 A 
HETATM   35  H   UNL     1      -0.552   7.685 -31.985  1.00  0.00     0.189 HD
HETATM   36  N   UNL     1      -1.472   7.653 -33.799  1.00  0.00    -0.186 NA
HETATM   37  C   UNL     1      -2.248   6.709 -34.337  1.00  0.00     0.152 A 
HETATM   38  C   UNL     1      -3.113   4.366 -33.550  1.00  0.00     0.044 A 
ENDBRANCH  27  29
ENDBRANCH   3  27
TORSDOF 6
ENDMDL
MODEL 10
REMARK VINA RESULT:      -8.5      2.882      5.588
REMARK  6 active torsions:
REMARK  status: ('A' for Active; 'I' for Inactive)
REMARK    1  A    between atoms: C_2  and  C_3 
REMARK       I    between atoms: C_2  and  N_9 
REMARK    2  A    between atoms: C_3  and  N_4 
REMARK    3  A    between atoms: N_9  and  C_10 
REMARK    4  A    between atoms: C_15  and  C_16 
REMARK    5  A    between atoms: C_18  and  N_19 
REMARK    6  A    between atoms: N_19  and  C_20 
ROOT
HETATM    1  C   UNL     1      -9.562   4.178 -31.751  1.00  0.00     0.164 A 
HETATM    2  N   UNL     1      -9.142   2.917 -31.589  1.00  0.00    -0.210 NA
HETATM    3  C   UNL     1      -9.658   1.965 -32.383  1.00  0.00     0.143 A 
HETATM    4  C   UNL     1     -10.636   2.258 -33.346  1.00  0.00     0.039 A 
HETATM    5  C   UNL     1     -11.232   1.311 -34.219  1.00  0.00     0.018 A 
HETATM    6  C   UNL     1     -12.196   1.702 -35.143  1.00  0.00     0.001 A 
HETATM    7  C   UNL     1     -12.570   3.037 -35.213  1.00  0.00     0.002 A 
HETATM    8  C   UNL     1     -11.974   3.972 -34.361  1.00  0.00     0.032 A 
HETATM    9  C   UNL     1     -11.010   3.607 -33.430  1.00  0.00     0.073 A 
HETATM   10  N   UNL     1     -10.476   4.560 -32.659  1.00  0.00    -0.228 NA
ENDROOT
BRANCH   1  11
HETATM   11  C   UNL     1      -8.946   5.198 -30.880  1.00  0.00     0.039 A 
HETATM   12  C   UNL     1      -7.553   5.464 -30.843  1.00  0.00     0.049 A 
HETATM   13  C   UNL     1      -7.053   6.403 -29.926  1.00  0.00     0.030 A 
HETATM   14  C   UNL     1      -7.903   7.092 -29.059  1.00  0.00     0.002 A 
HETATM   15  C   UNL     1      -9.268   6.851 -29.088  1.00  0.00     0.001 A 
HETATM   16  C   UNL     1      -9.778   5.913 -29.984  1.00  0.00     0.018 A 
BRANCH  12  17
HETATM   17  N   UNL     1      -6.693   4.788 -31.741  1.00  0.00    -0.325 N 
HETATM   18  C   UNL     1      -5.766   3.802 -31.464  1.00  0.00     0.250 C 
HETATM   19  O   UNL     1      -5.595   3.240 -30.385  1.00  0.00    -0.271 OA
HETATM   20  H   UNL     1      -6.740   5.089 -32.716  1.00  0.00     0.169 HD
BRANCH  18  21
HETATM   21  C   UNL     1      -4.952   3.387 -32.696  1.00  0.00     0.375 C 
BRANCH  21  22
HETATM   22  N   UNL     1      -3.971   4.426 -33.073  1.00  0.00     0.097 N 
HETATM   23  C   UNL     1      -2.596   3.908 -33.086  1.00  0.00     0.273 C 
HETATM   24  C   UNL     1      -1.856   4.990 -33.850  1.00  0.00     0.032 C 
HETATM   25  C   UNL     1      -2.863   5.475 -34.885  1.00  0.00     0.032 C 
HETATM   26  C   UNL     1      -4.206   4.905 -34.440  1.00  0.00     0.273 C 
ENDBRANCH  21  22
ENDBRANCH  18  21
ENDBRANCH  12  17
ENDBRANCH   1  11
BRANCH   3  27
HETATM   27  N   UNL     1      -9.192   0.633 -32.224  1.00  0.00    -0.340 N 
HETATM   28  H   UNL     1      -9.425   0.307 -31.293  1.00  0.00     0.167 HD
BRANCH  27  29
HETATM   29  C   UNL     1      -7.947   0.127 -32.679  1.00  0.00     0.034 A 
HETATM   30  C   UNL     1      -7.806  -0.430 -33.960  1.00  0.00     0.032 A 
HETATM   31  C   UNL     1      -6.594  -0.959 -34.421  1.00  0.00     0.034 A 
HETATM   32  C   UNL     1      -5.519  -0.930 -33.535  1.00  0.00     0.062 A 
HETATM   33  N   UNL     1      -4.221  -1.348 -33.664  1.00  0.00    -0.278 N 
HETATM   34  C   UNL     1      -5.617  -0.421 -32.247  1.00  0.00     0.013 A 
HETATM   35  H   UNL     1      -3.786  -1.771 -34.476  1.00  0.00     0.189 HD
HETATM   36  N   UNL     1      -3.470  -1.154 -32.564  1.00  0.00    -0.186 NA
HETATM   37  C   UNL     1      -4.323  -0.591 -31.704  1.00  0.00     0.152 A 
HETATM   38  C   UNL     1      -6.848   0.100 -31.801  1.00  0.00     0.044 A 
ENDBRANCH  27  29
ENDBRANCH   3  27
TORSDOF 6
ENDMDL
