MODEL 1
REMARK VINA RESULT:      -8.9      0.000      0.000
REMARK  9 active torsions:
REMARK  status: ('A' for Active; 'I' for Inactive)
REMARK    1  A    between atoms: C_2  and  N_3 
REMARK    2  A    between atoms: C_4  and  S_5 
REMARK    3  A    between atoms: S_5  and  C_6 
REMARK    4  A    between atoms: C_6  and  C_7 
REMARK       I    between atoms: C_7  and  N_8 
REMARK    5  A    between atoms: N_8  and  C_9 
REMARK    6  A    between atoms: C_12  and  O_13 
REMARK    7  A    between atoms: C_19  and  C_20 
REMARK    8  A    between atoms: C_23  and  S_24 
REMARK    9  A    between atoms: S_24  and  N_25 
ROOT
HETATM    1  N   UNL     1      -7.348   3.421 -33.073  1.00  0.00    -0.308 N 
HETATM    2  C   UNL     1      -8.633   3.230 -33.510  1.00  0.00     0.192 A 
HETATM    3  N   UNL     1      -9.030   4.272 -34.200  1.00  0.00    -0.122 NA
HETATM    4  N   UNL     1      -7.981   5.148 -34.269  1.00  0.00    -0.128 NA
HETATM    5  C   UNL     1      -6.955   4.633 -33.612  1.00  0.00     0.164 A 
ENDROOT
BRANCH   5   6
HETATM    6  C   UNL     1      -5.665   5.300 -33.449  1.00  0.00     0.012 A 
HETATM    7  C   UNL     1      -4.609   4.960 -34.309  1.00  0.00     0.017 A 
HETATM    8  C   UNL     1      -3.355   5.560 -34.176  1.00  0.00     0.026 A 
HETATM    9  C   UNL     1      -3.149   6.498 -33.161  1.00  0.00     0.074 A 
HETATM   10  C   UNL     1      -4.179   6.834 -32.281  1.00  0.00     0.026 A 
HETATM   11  C   UNL     1      -5.433   6.230 -32.426  1.00  0.00     0.017 A 
BRANCH   9  12
HETATM   12  S   UNL     1      -1.557   7.246 -32.984  1.00  0.00     0.243 S 
HETATM   13  O   UNL     1      -0.886   7.182 -34.260  1.00  0.00    -0.206 OA
HETATM   14  O   UNL     1      -1.692   8.494 -32.264  1.00  0.00    -0.206 OA
BRANCH  12  15
HETATM   15  N   UNL     1      -0.730   6.195 -31.911  1.00  0.00    -0.203 NA
HETATM   16  C   UNL     1      -1.575   5.489 -30.897  1.00  0.00     0.135 C 
HETATM   17  C   UNL     1      -1.907   6.368 -29.671  1.00  0.00     0.250 C 
HETATM   18  N   UNL     1      -0.647   7.002 -29.087  1.00  0.00    -0.073 N 
HETATM   19  H   UNL     1      -0.054   6.239 -28.734  1.00  0.00     0.279 HD
HETATM   20  C   UNL     1      -0.965   7.891 -27.918  1.00  0.00     0.269 C 
HETATM   21  C   UNL     1       0.155   7.747 -30.152  1.00  0.00     0.250 C 
HETATM   22  C   UNL     1       0.501   6.789 -31.302  1.00  0.00     0.135 C 
ENDBRANCH  12  15
ENDBRANCH   9  12
ENDBRANCH   5   6
BRANCH   1  23
HETATM   23  C   UNL     1      -6.625   2.612 -32.111  1.00  0.00     0.128 C 
HETATM   24  C   UNL     1      -5.469   1.830 -32.711  1.00  0.00     0.027 C 
ENDBRANCH   1  23
BRANCH   2  25
HETATM   25  S   UNL     1      -9.570   1.815 -33.188  1.00  0.00    -0.081 SA
BRANCH  25  26
HETATM   26  C   UNL     1      -8.947   0.669 -34.450  1.00  0.00     0.185 C 
BRANCH  26  27
HETATM   27  C   UNL     1      -8.022  -0.378 -33.846  1.00  0.00     0.231 C 
HETATM   28  N   UNL     1      -7.277  -1.051 -34.799  1.00  0.00    -0.327 N 
HETATM   29  H   UNL     1      -7.246  -0.621 -35.723  1.00  0.00     0.169 HD
HETATM   30  O   UNL     1      -7.990  -0.569 -32.632  1.00  0.00    -0.272 OA
BRANCH  28  31
HETATM   31  C   UNL     1      -6.442  -2.170 -34.619  1.00  0.00     0.034 A 
HETATM   32  C   UNL     1      -5.147  -1.923 -34.139  1.00  0.00     0.032 A 
HETATM   33  C   UNL     1      -4.236  -2.970 -33.969  1.00  0.00     0.039 A 
HETATM   34  C   UNL     1      -4.627  -4.267 -34.275  1.00  0.00     0.065 A 
HETATM   35  C   UNL     1      -5.908  -4.530 -34.742  1.00  0.00     0.039 A 
HETATM   36  C   UNL     1      -6.815  -3.481 -34.919  1.00  0.00     0.032 A 
BRANCH  34  37
HETATM   37  O   UNL     1      -3.771  -5.319 -34.135  1.00  0.00    -0.361 OA
HETATM   38  H   UNL     1      -2.925  -5.091 -34.553  1.00  0.00     0.217 HD
ENDBRANCH  34  37
ENDBRANCH  28  31
ENDBRANCH  26  27
ENDBRANCH  25  26
ENDBRANCH   2  25
TORSDOF 9
ENDMDL
MODEL 2
REMARK VINA RESULT:      -8.9      1.933      2.911
REMARK  9 active torsions:
REMARK  status: ('A' for Active; 'I' for Inactive)
REMARK    1  A    between atoms: C_2  and  N_3 
REMARK    2  A    between atoms: C_4  and  S_5 
REMARK    3  A    between atoms: S_5  and  C_6 
REMARK    4  A    between atoms: C_6  and  C_7 
REMARK       I    between atoms: C_7  and  N_8 
REMARK    5  A    between atoms: N_8  and  C_9 
REMARK    6  A    between atoms: C_12  and  O_13 
REMARK    7  A    between atoms: C_19  and  C_20 
REMARK    8  A    between atoms: C_23  and  S_24 
REMARK    9  A    between atoms: S_24  and  N_25 
ROOT
HETATM    1  N   UNL     1      -6.067   3.580 -32.220  1.00  0.00    -0.308 N 
HETATM    2  C   UNL     1      -6.971   3.506 -33.247  1.00  0.00     0.192 A 
HETATM    3  N   UNL     1      -6.657   4.371 -34.182  1.00  0.00    -0.122 NA
HETATM    4  N   UNL     1      -5.501   4.995 -33.799  1.00  0.00    -0.128 NA
HETATM    5  C   UNL     1      -5.125   4.507 -32.627  1.00  0.00     0.164 A 
ENDROOT
BRANCH   5   6
HETATM    6  C   UNL     1      -3.943   4.955 -31.892  1.00  0.00     0.012 A 
HETATM    7  C   UNL     1      -4.066   6.022 -30.990  1.00  0.00     0.017 A 
HETATM    8  C   UNL     1      -2.958   6.493 -30.282  1.00  0.00     0.026 A 
HETATM    9  C   UNL     1      -1.710   5.902 -30.491  1.00  0.00     0.074 A 
HETATM   10  C   UNL     1      -1.562   4.853 -31.401  1.00  0.00     0.026 A 
HETATM   11  C   UNL     1      -2.679   4.387 -32.102  1.00  0.00     0.017 A 
BRANCH   9  12
HETATM   12  S   UNL     1      -0.305   6.508 -29.606  1.00  0.00     0.243 S 
HETATM   13  O   UNL     1       0.367   5.381 -29.004  1.00  0.00    -0.206 OA
HETATM   14  O   UNL     1       0.408   7.459 -30.431  1.00  0.00    -0.206 OA
BRANCH  12  15
HETATM   15  N   UNL     1      -0.992   7.438 -28.339  1.00  0.00    -0.203 NA
HETATM   16  C   UNL     1      -0.555   8.867 -28.259  1.00  0.00     0.135 C 
HETATM   17  C   UNL     1       0.810   9.042 -27.555  1.00  0.00     0.250 C 
HETATM   18  N   UNL     1       0.838   8.314 -26.213  1.00  0.00    -0.073 N 
HETATM   19  H   UNL     1       0.147   8.767 -25.602  1.00  0.00     0.279 HD
HETATM   20  C   UNL     1       2.176   8.445 -25.540  1.00  0.00     0.269 C 
HETATM   21  C   UNL     1       0.428   6.849 -26.357  1.00  0.00     0.250 C 
HETATM   22  C   UNL     1      -0.963   6.765 -27.003  1.00  0.00     0.135 C 
ENDBRANCH  12  15
ENDBRANCH   9  12
ENDBRANCH   5   6
BRANCH   1  23
HETATM   23  C   UNL     1      -6.175   2.953 -30.917  1.00  0.00     0.128 C 
HETATM   24  C   UNL     1      -5.128   1.881 -30.661  1.00  0.00     0.027 C 
ENDBRANCH   1  23
BRANCH   2  25
HETATM   25  S   UNL     1      -8.316   2.424 -33.284  1.00  0.00    -0.081 SA
BRANCH  25  26
HETATM   26  C   UNL     1      -7.806   1.250 -34.570  1.00  0.00     0.185 C 
BRANCH  26  27
HETATM   27  C   UNL     1      -7.098   0.041 -33.973  1.00  0.00     0.231 C 
HETATM   28  N   UNL     1      -6.570  -0.802 -34.936  1.00  0.00    -0.327 N 
HETATM   29  H   UNL     1      -6.497  -0.412 -35.875  1.00  0.00     0.169 HD
HETATM   30  O   UNL     1      -7.043  -0.122 -32.756  1.00  0.00    -0.272 OA
BRANCH  28  31
HETATM   31  C   UNL     1      -5.990  -2.071 -34.756  1.00  0.00     0.034 A 
HETATM   32  C   UNL     1      -6.794  -3.183 -35.049  1.00  0.00     0.032 A 
HETATM   33  C   UNL     1      -6.315  -4.482 -34.861  1.00  0.00     0.039 A 
HETATM   34  C   UNL     1      -5.024  -4.668 -34.384  1.00  0.00     0.065 A 
HETATM   35  C   UNL     1      -4.210  -3.578 -34.098  1.00  0.00     0.039 A 
HETATM   36  C   UNL     1      -4.694  -2.280 -34.280  1.00  0.00     0.032 A 
BRANCH  34  37
HETATM   37  O   UNL     1      -4.515  -5.915 -34.175  1.00  0.00    -0.361 OA
HETATM   38  H   UNL     1      -3.981  -6.167 -34.946  1.00  0.00     0.217 HD
ENDBRANCH  34  37
ENDBRANCH  28  31
ENDBRANCH  26  27
ENDBRANCH  25  26
ENDBRANCH   2  25
TORSDOF 9
ENDMDL
MODEL 3
REMARK VINA RESULT:      -8.5      3.690     10.592
REMARK  9 active torsions:
REMARK  status: ('A' for Active; 'I' for Inactive)
REMARK    1  A    between atoms: C_2  and  N_3 
REMARK    2  A    between atoms: C_4  and  S_5 
REMARK    3  A    between atoms: S_5  and  C_6 
REMARK    4  A    between atoms: C_6  and  C_7 
REMARK       I    between atoms: C_7  and  N_8 
REMARK    5  A    between atoms: N_8  and  C_9 
REMARK    6  A    between atoms: C_12  and  O_13 
REMARK    7  A    between atoms: C_19  and  C_20 
REMARK    8  A    between atoms: C_23  and  S_24 
REMARK    9  A    between atoms: S_24  and  N_25 
ROOT
HETATM    1  N   UNL     1      -3.949   5.364 -32.774  1.00  0.00    -0.308 N 
HETATM    2  C   UNL     1      -2.887   6.013 -33.347  1.00  0.00     0.192 A 
HETATM    3  N   UNL     1      -3.031   6.044 -34.650  1.00  0.00    -0.122 NA
HETATM    4  N   UNL     1      -4.229   5.453 -34.949  1.00  0.00    -0.128 NA
HETATM    5  C   UNL     1      -4.800   5.061 -33.822  1.00  0.00     0.164 A 
ENDROOT
BRANCH   5   6
HETATM    6  C   UNL     1      -6.085   4.366 -33.750  1.00  0.00     0.012 A 
HETATM    7  C   UNL     1      -6.098   2.963 -33.717  1.00  0.00     0.017 A 
HETATM    8  C   UNL     1      -7.304   2.260 -33.668  1.00  0.00     0.026 A 
HETATM    9  C   UNL     1      -8.509   2.966 -33.670  1.00  0.00     0.074 A 
HETATM   10  C   UNL     1      -8.518   4.361 -33.725  1.00  0.00     0.026 A 
HETATM   11  C   UNL     1      -7.305   5.056 -33.770  1.00  0.00     0.017 A 
BRANCH   9  12
HETATM   12  S   UNL     1     -10.035   2.075 -33.622  1.00  0.00     0.243 S 
HETATM   13  O   UNL     1      -9.978   1.032 -34.619  1.00  0.00    -0.206 OA
HETATM   14  O   UNL     1     -10.378   1.785 -32.247  1.00  0.00    -0.206 OA
BRANCH  12  15
HETATM   15  N   UNL     1     -11.195   3.225 -34.143  1.00  0.00    -0.203 NA
HETATM   16  C   UNL     1     -11.987   3.897 -33.064  1.00  0.00     0.135 C 
HETATM   17  C   UNL     1     -13.167   3.038 -32.558  1.00  0.00     0.250 C 
HETATM   18  N   UNL     1     -14.018   2.527 -33.718  1.00  0.00    -0.073 N 
HETATM   19  H   UNL     1     -14.442   3.346 -34.173  1.00  0.00     0.279 HD
HETATM   20  C   UNL     1     -15.145   1.657 -33.237  1.00  0.00     0.269 C 
HETATM   21  C   UNL     1     -13.170   1.811 -34.767  1.00  0.00     0.250 C 
HETATM   22  C   UNL     1     -12.063   2.752 -35.266  1.00  0.00     0.135 C 
ENDBRANCH  12  15
ENDBRANCH   9  12
ENDBRANCH   5   6
BRANCH   1  23
HETATM   23  C   UNL     1      -4.067   4.934 -31.394  1.00  0.00     0.128 C 
HETATM   24  C   UNL     1      -5.072   5.735 -30.584  1.00  0.00     0.027 C 
ENDBRANCH   1  23
BRANCH   2  25
HETATM   25  S   UNL     1      -1.565   6.684 -32.462  1.00  0.00    -0.081 SA
BRANCH  25  26
HETATM   26  C   UNL     1      -0.589   5.202 -32.081  1.00  0.00     0.185 C 
BRANCH  26  27
HETATM   27  C   UNL     1       0.089   5.314 -30.722  1.00  0.00     0.231 C 
HETATM   28  N   UNL     1      -0.392   6.370 -29.966  1.00  0.00    -0.327 N 
HETATM   29  H   UNL     1      -1.272   6.777 -30.282  1.00  0.00     0.169 HD
HETATM   30  O   UNL     1       0.972   4.528 -30.389  1.00  0.00    -0.272 OA
BRANCH  28  31
HETATM   31  C   UNL     1       0.099   6.858 -28.742  1.00  0.00     0.034 A 
HETATM   32  C   UNL     1       0.971   7.956 -28.801  1.00  0.00     0.032 A 
HETATM   33  C   UNL     1       1.540   8.482 -27.638  1.00  0.00     0.039 A 
HETATM   34  C   UNL     1       1.230   7.908 -26.411  1.00  0.00     0.065 A 
HETATM   35  C   UNL     1       0.361   6.827 -26.333  1.00  0.00     0.039 A 
HETATM   36  C   UNL     1      -0.201   6.298 -27.498  1.00  0.00     0.032 A 
BRANCH  34  37
HETATM   37  O   UNL     1       1.768   8.379 -25.250  1.00  0.00    -0.361 OA
HETATM   38  H   UNL     1       1.759   9.350 -25.274  1.00  0.00     0.217 HD
ENDBRANCH  34  37
ENDBRANCH  28  31
ENDBRANCH  26  27
ENDBRANCH  25  26
ENDBRANCH   2  25
TORSDOF 9
ENDMDL
MODEL 4
REMARK VINA RESULT:      -8.4      2.154      3.276
REMARK  9 active torsions:
REMARK  status: ('A' for Active; 'I' for Inactive)
REMARK    1  A    between atoms: C_2  and  N_3 
REMARK    2  A    between atoms: C_4  and  S_5 
REMARK    3  A    between atoms: S_5  and  C_6 
REMARK    4  A    between atoms: C_6  and  C_7 
REMARK       I    between atoms: C_7  and  N_8 
REMARK    5  A    between atoms: N_8  and  C_9 
REMARK    6  A    between atoms: C_12  and  O_13 
REMARK    7  A    between atoms: C_19  and  C_20 
REMARK    8  A    between atoms: C_23  and  S_24 
REMARK    9  A    between atoms: S_24  and  N_25 
ROOT
HETATM    1  N   UNL     1      -5.087   3.802 -33.115  1.00  0.00    -0.308 N 
HETATM    2  C   UNL     1      -5.609   2.555 -33.339  1.00  0.00     0.192 A 
HETATM    3  N   UNL     1      -5.123   1.704 -32.467  1.00  0.00    -0.122 NA
HETATM    4  N   UNL     1      -4.305   2.400 -31.619  1.00  0.00    -0.128 NA
HETATM    5  C   UNL     1      -4.296   3.670 -31.988  1.00  0.00     0.164 A 
ENDROOT
BRANCH   5   6
HETATM    6  C   UNL     1      -3.511   4.711 -31.327  1.00  0.00     0.012 A 
HETATM    7  C   UNL     1      -2.117   4.723 -31.495  1.00  0.00     0.017 A 
HETATM    8  C   UNL     1      -1.329   5.689 -30.866  1.00  0.00     0.026 A 
HETATM    9  C   UNL     1      -1.937   6.642 -30.046  1.00  0.00     0.074 A 
HETATM   10  C   UNL     1      -3.319   6.634 -29.847  1.00  0.00     0.026 A 
HETATM   11  C   UNL     1      -4.100   5.665 -30.485  1.00  0.00     0.017 A 
BRANCH   9  12
HETATM   12  S   UNL     1      -0.936   7.855 -29.238  1.00  0.00     0.243 S 
HETATM   13  O   UNL     1       0.447   7.565 -29.532  1.00  0.00    -0.206 OA
HETATM   14  O   UNL     1      -1.497   9.169 -29.468  1.00  0.00    -0.206 OA
BRANCH  12  15
HETATM   15  N   UNL     1      -1.186   7.545 -27.570  1.00  0.00    -0.203 NA
HETATM   16  C   UNL     1      -1.341   8.748 -26.691  1.00  0.00     0.135 C 
HETATM   17  C   UNL     1       0.011   9.385 -26.300  1.00  0.00     0.250 C 
HETATM   18  N   UNL     1       0.978   8.341 -25.748  1.00  0.00    -0.073 N 
HETATM   19  H   UNL     1       0.574   7.979 -24.874  1.00  0.00     0.279 HD
HETATM   20  C   UNL     1       2.309   8.946 -25.402  1.00  0.00     0.269 C 
HETATM   21  C   UNL     1       1.134   7.157 -26.701  1.00  0.00     0.250 C 
HETATM   22  C   UNL     1      -0.243   6.540 -26.988  1.00  0.00     0.135 C 
ENDBRANCH  12  15
ENDBRANCH   9  12
ENDBRANCH   5   6
BRANCH   1  23
HETATM   23  C   UNL     1      -5.200   4.962 -33.977  1.00  0.00     0.128 C 
HETATM   24  C   UNL     1      -3.978   5.205 -34.847  1.00  0.00     0.027 C 
ENDBRANCH   1  23
BRANCH   2  25
HETATM   25  S   UNL     1      -6.741   2.185 -34.589  1.00  0.00    -0.081 SA
BRANCH  25  26
HETATM   26  C   UNL     1      -8.098   1.437 -33.645  1.00  0.00     0.185 C 
BRANCH  26  27
HETATM   27  C   UNL     1      -7.939  -0.074 -33.540  1.00  0.00     0.231 C 
HETATM   28  N   UNL     1      -6.710  -0.519 -33.999  1.00  0.00    -0.327 N 
HETATM   29  H   UNL     1      -5.994   0.198 -34.113  1.00  0.00     0.169 HD
HETATM   30  O   UNL     1      -8.844  -0.776 -33.096  1.00  0.00    -0.272 OA
BRANCH  28  31
HETATM   31  C   UNL     1      -6.281  -1.845 -34.189  1.00  0.00     0.034 A 
HETATM   32  C   UNL     1      -4.918  -2.105 -33.983  1.00  0.00     0.032 A 
HETATM   33  C   UNL     1      -4.395  -3.386 -34.189  1.00  0.00     0.039 A 
HETATM   34  C   UNL     1      -5.242  -4.408 -34.596  1.00  0.00     0.065 A 
HETATM   35  C   UNL     1      -6.597  -4.170 -34.795  1.00  0.00     0.039 A 
HETATM   36  C   UNL     1      -7.116  -2.887 -34.596  1.00  0.00     0.032 A 
BRANCH  34  37
HETATM   37  O   UNL     1      -4.778  -5.670 -34.819  1.00  0.00    -0.361 OA
HETATM   38  H   UNL     1      -5.041  -6.234 -34.074  1.00  0.00     0.217 HD
ENDBRANCH  34  37
ENDBRANCH  28  31
ENDBRANCH  26  27
ENDBRANCH  25  26
ENDBRANCH   2  25
TORSDOF 9
ENDMDL
MODEL 5
REMARK VINA RESULT:      -8.4      4.391      7.327
REMARK  9 active torsions:
REMARK  status: ('A' for Active; 'I' for Inactive)
REMARK    1  A    between atoms: C_2  and  N_3 
REMARK    2  A    between atoms: C_4  and  S_5 
REMARK    3  A    between atoms: S_5  and  C_6 
REMARK    4  A    between atoms: C_6  and  C_7 
REMARK       I    between atoms: C_7  and  N_8 
REMARK    5  A    between atoms: N_8  and  C_9 
REMARK    6  A    between atoms: C_12  and  O_13 
REMARK    7  A    between atoms: C_19  and  C_20 
REMARK    8  A    between atoms: C_23  and  S_24 
REMARK    9  A    between atoms: S_24  and  N_25 
ROOT
HETATM    1  N   UNL     1      -1.336   6.204 -30.321  1.00  0.00    -0.308 N 
HETATM    2  C   UNL     1      -1.133   5.061 -31.050  1.00  0.00     0.192 A 
HETATM    3  N   UNL     1      -0.014   4.487 -30.678  1.00  0.00    -0.122 NA
HETATM    4  N   UNL     1       0.512   5.226 -29.654  1.00  0.00    -0.128 NA
HETATM    5  C   UNL     1      -0.291   6.250 -29.416  1.00  0.00     0.164 A 
ENDROOT
BRANCH   5   6
HETATM    6  C   UNL     1      -0.039   7.274 -28.403  1.00  0.00     0.012 A 
HETATM    7  C   UNL     1      -0.973   7.456 -27.372  1.00  0.00     0.017 A 
HETATM    8  C   UNL     1      -0.780   8.435 -26.395  1.00  0.00     0.026 A 
HETATM    9  C   UNL     1       0.350   9.253 -26.459  1.00  0.00     0.074 A 
HETATM   10  C   UNL     1       1.281   9.103 -27.490  1.00  0.00     0.026 A 
HETATM   11  C   UNL     1       1.079   8.117 -28.461  1.00  0.00     0.017 A 
BRANCH   9  12
HETATM   12  S   UNL     1       0.587  10.502 -25.230  1.00  0.00     0.243 S 
HETATM   13  O   UNL     1       1.660  11.363 -25.666  1.00  0.00    -0.206 OA
HETATM   14  O   UNL     1      -0.699  11.037 -24.838  1.00  0.00    -0.206 OA
BRANCH  12  15
HETATM   15  N   UNL     1       1.147   9.629 -23.865  1.00  0.00    -0.203 NA
HETATM   16  C   UNL     1       1.162  10.374 -22.566  1.00  0.00     0.135 C 
HETATM   17  C   UNL     1       2.401  11.283 -22.408  1.00  0.00     0.250 C 
HETATM   18  N   UNL     1       3.691  10.517 -22.691  1.00  0.00    -0.073 N 
HETATM   19  H   UNL     1       3.781   9.789 -21.970  1.00  0.00     0.279 HD
HETATM   20  C   UNL     1       4.899  11.404 -22.578  1.00  0.00     0.269 C 
HETATM   21  C   UNL     1       3.641   9.812 -24.046  1.00  0.00     0.250 C 
HETATM   22  C   UNL     1       2.421   8.880 -24.098  1.00  0.00     0.135 C 
ENDBRANCH  12  15
ENDBRANCH   9  12
ENDBRANCH   5   6
BRANCH   1  23
HETATM   23  C   UNL     1      -2.332   7.229 -30.568  1.00  0.00     0.128 C 
HETATM   24  C   UNL     1      -1.889   8.290 -31.561  1.00  0.00     0.027 C 
ENDBRANCH   1  23
BRANCH   2  25
HETATM   25  S   UNL     1      -2.207   4.482 -32.272  1.00  0.00    -0.081 SA
BRANCH  25  26
HETATM   26  C   UNL     1      -3.267   3.356 -31.323  1.00  0.00     0.185 C 
BRANCH  26  27
HETATM   27  C   UNL     1      -4.178   2.546 -32.235  1.00  0.00     0.231 C 
HETATM   28  N   UNL     1      -4.171   1.193 -31.939  1.00  0.00    -0.327 N 
HETATM   29  H   UNL     1      -3.775   0.940 -31.035  1.00  0.00     0.169 HD
HETATM   30  O   UNL     1      -4.821   3.088 -33.131  1.00  0.00    -0.272 OA
BRANCH  28  31
HETATM   31  C   UNL     1      -4.767   0.142 -32.660  1.00  0.00     0.034 A 
HETATM   32  C   UNL     1      -3.905  -0.826 -33.197  1.00  0.00     0.032 A 
HETATM   33  C   UNL     1      -4.406  -1.884 -33.961  1.00  0.00     0.039 A 
HETATM   34  C   UNL     1      -5.773  -1.974 -34.184  1.00  0.00     0.065 A 
HETATM   35  C   UNL     1      -6.642  -1.030 -33.651  1.00  0.00     0.039 A 
HETATM   36  C   UNL     1      -6.139   0.032 -32.893  1.00  0.00     0.032 A 
BRANCH  34  37
HETATM   37  O   UNL     1      -6.308  -2.982 -34.930  1.00  0.00    -0.361 OA
HETATM   38  H   UNL     1      -6.557  -2.627 -35.799  1.00  0.00     0.217 HD
ENDBRANCH  34  37
ENDBRANCH  28  31
ENDBRANCH  26  27
ENDBRANCH  25  26
ENDBRANCH   2  25
TORSDOF 9
ENDMDL
MODEL 6
REMARK VINA RESULT:      -8.2      2.855      3.836
REMARK  9 active torsions:
REMARK  status: ('A' for Active; 'I' for Inactive)
REMARK    1  A    between atoms: C_2  and  N_3 
REMARK    2  A    between atoms: C_4  and  S_5 
REMARK    3  A    between atoms: S_5  and  C_6 
REMARK    4  A    between atoms: C_6  and  C_7 
REMARK       I    between atoms: C_7  and  N_8 
REMARK    5  A    between atoms: N_8  and  C_9 
REMARK    6  A    between atoms: C_12  and  O_13 
REMARK    7  A    between atoms: C_19  and  C_20 
REMARK    8  A    between atoms: C_23  and  S_24 
REMARK    9  A    between atoms: S_24  and  N_25 
ROOT
HETATM    1  N   UNL     1      -5.260   4.127 -31.790  1.00  0.00    -0.308 N 
HETATM    2  C   UNL     1      -6.209   4.004 -32.772  1.00  0.00     0.192 A 
HETATM    3  N   UNL     1      -6.955   5.082 -32.809  1.00  0.00    -0.122 NA
HETATM    4  N   UNL     1      -6.469   5.956 -31.875  1.00  0.00    -0.128 NA
HETATM    5  C   UNL     1      -5.432   5.398 -31.273  1.00  0.00     0.164 A 
ENDROOT
BRANCH   5   6
HETATM    6  C   UNL     1      -4.670   6.029 -30.197  1.00  0.00     0.012 A 
HETATM    7  C   UNL     1      -3.378   6.506 -30.467  1.00  0.00     0.017 A 
HETATM    8  C   UNL     1      -2.609   7.098 -29.463  1.00  0.00     0.026 A 
HETATM    9  C   UNL     1      -3.129   7.199 -28.171  1.00  0.00     0.074 A 
HETATM   10  C   UNL     1      -4.404   6.711 -27.876  1.00  0.00     0.026 A 
HETATM   11  C   UNL     1      -5.167   6.123 -28.890  1.00  0.00     0.017 A 
BRANCH   9  12
HETATM   12  S   UNL     1      -2.150   7.936 -26.897  1.00  0.00     0.243 S 
HETATM   13  O   UNL     1      -2.825   9.128 -26.443  1.00  0.00    -0.206 OA
HETATM   14  O   UNL     1      -1.721   6.912 -25.969  1.00  0.00    -0.206 OA
BRANCH  12  15
HETATM   15  N   UNL     1      -0.724   8.429 -27.713  1.00  0.00    -0.203 NA
HETATM   16  C   UNL     1       0.398   7.437 -27.737  1.00  0.00     0.135 C 
HETATM   17  C   UNL     1       1.227   7.434 -26.434  1.00  0.00     0.250 C 
HETATM   18  N   UNL     1       1.663   8.846 -26.050  1.00  0.00    -0.073 N 
HETATM   19  H   UNL     1       2.297   9.183 -26.786  1.00  0.00     0.279 HD
HETATM   20  C   UNL     1       2.436   8.856 -24.761  1.00  0.00     0.269 C 
HETATM   21  C   UNL     1       0.476   9.807 -25.996  1.00  0.00     0.250 C 
HETATM   22  C   UNL     1      -0.254   9.801 -27.347  1.00  0.00     0.135 C 
ENDBRANCH  12  15
ENDBRANCH   9  12
ENDBRANCH   5   6
BRANCH   1  23
HETATM   23  C   UNL     1      -4.386   3.084 -31.288  1.00  0.00     0.128 C 
HETATM   24  C   UNL     1      -3.003   3.085 -31.917  1.00  0.00     0.027 C 
ENDBRANCH   1  23
BRANCH   2  25
HETATM   25  S   UNL     1      -6.375   2.625 -33.798  1.00  0.00    -0.081 SA
BRANCH  25  26
HETATM   26  C   UNL     1      -7.344   1.504 -32.750  1.00  0.00     0.185 C 
BRANCH  26  27
HETATM   27  C   UNL     1      -6.675   0.143 -32.620  1.00  0.00     0.231 C 
HETATM   28  N   UNL     1      -6.440  -0.459 -33.845  1.00  0.00    -0.327 N 
HETATM   29  H   UNL     1      -6.506   0.151 -34.659  1.00  0.00     0.169 HD
HETATM   30  O   UNL     1      -6.405  -0.327 -31.517  1.00  0.00    -0.272 OA
BRANCH  28  31
HETATM   31  C   UNL     1      -5.983  -1.766 -34.098  1.00  0.00     0.034 A 
HETATM   32  C   UNL     1      -6.935  -2.695 -34.542  1.00  0.00     0.032 A 
HETATM   33  C   UNL     1      -6.579  -4.026 -34.780  1.00  0.00     0.039 A 
HETATM   34  C   UNL     1      -5.264  -4.424 -34.576  1.00  0.00     0.065 A 
HETATM   35  C   UNL     1      -4.306  -3.514 -34.146  1.00  0.00     0.039 A 
HETATM   36  C   UNL     1      -4.666  -2.186 -33.902  1.00  0.00     0.032 A 
BRANCH  34  37
HETATM   37  O   UNL     1      -4.871  -5.713 -34.785  1.00  0.00    -0.361 OA
HETATM   38  H   UNL     1      -5.170  -5.991 -35.665  1.00  0.00     0.217 HD
ENDBRANCH  34  37
ENDBRANCH  28  31
ENDBRANCH  26  27
ENDBRANCH  25  26
ENDBRANCH   2  25
TORSDOF 9
ENDMDL
MODEL 7
REMARK VINA RESULT:      -8.1      4.486      8.843
REMARK  9 active torsions:
REMARK  status: ('A' for Active; 'I' for Inactive)
REMARK    1  A    between atoms: C_2  and  N_3 
REMARK    2  A    between atoms: C_4  and  S_5 
REMARK    3  A    between atoms: S_5  and  C_6 
REMARK    4  A    between atoms: C_6  and  C_7 
REMARK       I    between atoms: C_7  and  N_8 
REMARK    5  A    between atoms: N_8  and  C_9 
REMARK    6  A    between atoms: C_12  and  O_13 
REMARK    7  A    between atoms: C_19  and  C_20 
REMARK    8  A    between atoms: C_23  and  S_24 
REMARK    9  A    between atoms: S_24  and  N_25 
ROOT
HETATM    1  N   UNL     1      -6.347   2.711 -32.648  1.00  0.00    -0.308 N 
HETATM    2  C   UNL     1      -5.266   2.634 -31.810  1.00  0.00     0.192 A 
HETATM    3  N   UNL     1      -5.633   2.910 -30.582  1.00  0.00    -0.122 NA
HETATM    4  N   UNL     1      -6.984   3.126 -30.590  1.00  0.00    -0.128 NA
HETATM    5  C   UNL     1      -7.427   2.984 -31.829  1.00  0.00     0.164 A 
ENDROOT
BRANCH   5   6
HETATM    6  C   UNL     1      -8.822   3.166 -32.228  1.00  0.00     0.012 A 
HETATM    7  C   UNL     1      -9.329   4.467 -32.359  1.00  0.00     0.017 A 
HETATM    8  C   UNL     1     -10.661   4.684 -32.720  1.00  0.00     0.026 A 
HETATM    9  C   UNL     1     -11.499   3.588 -32.935  1.00  0.00     0.074 A 
HETATM   10  C   UNL     1     -11.020   2.285 -32.788  1.00  0.00     0.026 A 
HETATM   11  C   UNL     1      -9.684   2.079 -32.430  1.00  0.00     0.017 A 
BRANCH   9  12
HETATM   12  S   UNL     1     -13.189   3.864 -33.377  1.00  0.00     0.243 S 
HETATM   13  O   UNL     1     -13.352   5.266 -33.679  1.00  0.00    -0.206 OA
HETATM   14  O   UNL     1     -13.614   2.838 -34.305  1.00  0.00    -0.206 OA
BRANCH  12  15
HETATM   15  N   UNL     1     -14.047   3.543 -31.927  1.00  0.00    -0.203 NA
HETATM   16  C   UNL     1     -14.841   2.274 -31.898  1.00  0.00     0.135 C 
HETATM   17  C   UNL     1     -16.211   2.404 -32.600  1.00  0.00     0.250 C 
HETATM   18  N   UNL     1     -16.980   3.622 -32.094  1.00  0.00    -0.073 N 
HETATM   19  H   UNL     1     -17.187   3.464 -31.099  1.00  0.00     0.279 HD
HETATM   20  C   UNL     1     -18.297   3.779 -32.800  1.00  0.00     0.269 C 
HETATM   21  C   UNL     1     -16.142   4.897 -32.187  1.00  0.00     0.250 C 
HETATM   22  C   UNL     1     -14.830   4.709 -31.411  1.00  0.00     0.135 C 
ENDBRANCH  12  15
ENDBRANCH   9  12
ENDBRANCH   5   6
BRANCH   1  23
HETATM   23  C   UNL     1      -6.329   2.687 -34.098  1.00  0.00     0.128 C 
HETATM   24  C   UNL     1      -6.778   1.364 -34.697  1.00  0.00     0.027 C 
ENDBRANCH   1  23
BRANCH   2  25
HETATM   25  S   UNL     1      -3.667   2.227 -32.319  1.00  0.00    -0.081 SA
BRANCH  25  26
HETATM   26  C   UNL     1      -3.351   0.718 -31.362  1.00  0.00     0.185 C 
BRANCH  26  27
HETATM   27  C   UNL     1      -4.347  -0.380 -31.708  1.00  0.00     0.231 C 
HETATM   28  N   UNL     1      -3.956  -1.137 -32.800  1.00  0.00    -0.327 N 
HETATM   29  H   UNL     1      -2.979  -1.042 -33.078  1.00  0.00     0.169 HD
HETATM   30  O   UNL     1      -5.379  -0.526 -31.057  1.00  0.00    -0.272 OA
BRANCH  28  31
HETATM   31  C   UNL     1      -4.691  -2.124 -33.482  1.00  0.00     0.034 A 
HETATM   32  C   UNL     1      -4.060  -3.361 -33.678  1.00  0.00     0.032 A 
HETATM   33  C   UNL     1      -4.699  -4.387 -34.381  1.00  0.00     0.039 A 
HETATM   34  C   UNL     1      -5.975  -4.173 -34.884  1.00  0.00     0.065 A 
HETATM   35  C   UNL     1      -6.619  -2.956 -34.691  1.00  0.00     0.039 A 
HETATM   36  C   UNL     1      -5.975  -1.930 -33.994  1.00  0.00     0.032 A 
BRANCH  34  37
HETATM   37  O   UNL     1      -6.635  -5.138 -35.584  1.00  0.00    -0.361 OA
HETATM   38  H   UNL     1      -6.057  -5.456 -36.296  1.00  0.00     0.217 HD
ENDBRANCH  34  37
ENDBRANCH  28  31
ENDBRANCH  26  27
ENDBRANCH  25  26
ENDBRANCH   2  25
TORSDOF 9
ENDMDL
MODEL 8
REMARK VINA RESULT:      -8.1      2.087      3.366
REMARK  9 active torsions:
REMARK  status: ('A' for Active; 'I' for Inactive)
REMARK    1  A    between atoms: C_2  and  N_3 
REMARK    2  A    between atoms: C_4  and  S_5 
REMARK    3  A    between atoms: S_5  and  C_6 
REMARK    4  A    between atoms: C_6  and  C_7 
REMARK       I    between atoms: C_7  and  N_8 
REMARK    5  A    between atoms: N_8  and  C_9 
REMARK    6  A    between atoms: C_12  and  O_13 
REMARK    7  A    between atoms: C_19  and  C_20 
REMARK    8  A    between atoms: C_23  and  S_24 
REMARK    9  A    between atoms: S_24  and  N_25 
ROOT
HETATM    1  N   UNL     1      -6.966   2.181 -32.213  1.00  0.00    -0.308 N 
HETATM    2  C   UNL     1      -7.604   0.976 -32.070  1.00  0.00     0.192 A 
HETATM    3  N   UNL     1      -6.839   0.141 -31.410  1.00  0.00    -0.122 NA
HETATM    4  N   UNL     1      -5.696   0.810 -31.063  1.00  0.00    -0.128 NA
HETATM    5  C   UNL     1      -5.775   2.048 -31.523  1.00  0.00     0.164 A 
ENDROOT
BRANCH   5   6
HETATM    6  C   UNL     1      -4.723   3.051 -31.365  1.00  0.00     0.012 A 
HETATM    7  C   UNL     1      -3.483   2.841 -31.986  1.00  0.00     0.017 A 
HETATM    8  C   UNL     1      -2.445   3.765 -31.845  1.00  0.00     0.026 A 
HETATM    9  C   UNL     1      -2.643   4.902 -31.059  1.00  0.00     0.074 A 
HETATM   10  C   UNL     1      -3.863   5.119 -30.414  1.00  0.00     0.026 A 
HETATM   11  C   UNL     1      -4.896   4.189 -30.565  1.00  0.00     0.017 A 
BRANCH   9  12
HETATM   12  S   UNL     1      -1.325   6.064 -30.868  1.00  0.00     0.243 S 
HETATM   13  O   UNL     1      -1.506   6.747 -29.609  1.00  0.00    -0.206 OA
HETATM   14  O   UNL     1      -0.071   5.426 -31.207  1.00  0.00    -0.206 OA
BRANCH  12  15
HETATM   15  N   UNL     1      -1.602   7.204 -32.119  1.00  0.00    -0.203 NA
HETATM   16  C   UNL     1      -3.032   7.567 -32.376  1.00  0.00     0.135 C 
HETATM   17  C   UNL     1      -3.769   6.529 -33.252  1.00  0.00     0.250 C 
HETATM   18  N   UNL     1      -2.978   6.211 -34.519  1.00  0.00    -0.073 N 
HETATM   19  H   UNL     1      -2.935   7.072 -35.079  1.00  0.00     0.279 HD
HETATM   20  C   UNL     1      -3.669   5.172 -35.357  1.00  0.00     0.269 C 
HETATM   21  C   UNL     1      -1.541   5.804 -34.199  1.00  0.00     0.250 C 
HETATM   22  C   UNL     1      -0.859   6.914 -33.385  1.00  0.00     0.135 C 
ENDBRANCH  12  15
ENDBRANCH   9  12
ENDBRANCH   5   6
BRANCH   1  23
HETATM   23  C   UNL     1      -7.375   3.289 -33.054  1.00  0.00     0.128 C 
HETATM   24  C   UNL     1      -8.166   4.359 -32.320  1.00  0.00     0.027 C 
ENDBRANCH   1  23
BRANCH   2  25
HETATM   25  S   UNL     1      -9.184   0.634 -32.677  1.00  0.00    -0.081 SA
BRANCH  25  26
HETATM   26  C   UNL     1      -8.904   0.676 -34.469  1.00  0.00     0.185 C 
BRANCH  26  27
HETATM   27  C   UNL     1      -7.647  -0.089 -34.856  1.00  0.00     0.231 C 
HETATM   28  N   UNL     1      -7.579  -1.343 -34.272  1.00  0.00    -0.327 N 
HETATM   29  H   UNL     1      -8.450  -1.694 -33.873  1.00  0.00     0.169 HD
HETATM   30  O   UNL     1      -6.808   0.408 -35.604  1.00  0.00    -0.272 OA
BRANCH  28  31
HETATM   31  C   UNL     1      -6.505  -2.252 -34.285  1.00  0.00     0.034 A 
HETATM   32  C   UNL     1      -6.767  -3.535 -34.787  1.00  0.00     0.032 A 
HETATM   33  C   UNL     1      -5.771  -4.515 -34.801  1.00  0.00     0.039 A 
HETATM   34  C   UNL     1      -4.507  -4.206 -34.315  1.00  0.00     0.065 A 
HETATM   35  C   UNL     1      -4.227  -2.938 -33.823  1.00  0.00     0.039 A 
HETATM   36  C   UNL     1      -5.228  -1.961 -33.803  1.00  0.00     0.032 A 
BRANCH  34  37
HETATM   37  O   UNL     1      -3.506  -5.131 -34.298  1.00  0.00    -0.361 OA
HETATM   38  H   UNL     1      -2.698  -4.722 -34.648  1.00  0.00     0.217 HD
ENDBRANCH  34  37
ENDBRANCH  28  31
ENDBRANCH  26  27
ENDBRANCH  25  26
ENDBRANCH   2  25
TORSDOF 9
ENDMDL
MODEL 9
REMARK VINA RESULT:      -7.9      3.469     10.675
REMARK  9 active torsions:
REMARK  status: ('A' for Active; 'I' for Inactive)
REMARK    1  A    between atoms: C_2  and  N_3 
REMARK    2  A    between atoms: C_4  and  S_5 
REMARK    3  A    between atoms: S_5  and  C_6 
REMARK    4  A    between atoms: C_6  and  C_7 
REMARK       I    between atoms: C_7  and  N_8 
REMARK    5  A    between atoms: N_8  and  C_9 
REMARK    6  A    between atoms: C_12  and  O_13 
REMARK    7  A    between atoms: C_19  and  C_20 
REMARK    8  A    between atoms: C_23  and  S_24 
REMARK    9  A    between atoms: S_24  and  N_25 
ROOT
HETATM    1  N   UNL     1      -2.934   5.552 -31.634  1.00  0.00    -0.308 N 
HETATM    2  C   UNL     1      -1.568   5.615 -31.535  1.00  0.00     0.192 A 
HETATM    3  N   UNL     1      -1.080   4.419 -31.311  1.00  0.00    -0.122 NA
HETATM    4  N   UNL     1      -2.126   3.537 -31.310  1.00  0.00    -0.128 NA
HETATM    5  C   UNL     1      -3.246   4.209 -31.528  1.00  0.00     0.164 A 
ENDROOT
BRANCH   5   6
HETATM    6  C   UNL     1      -4.574   3.600 -31.571  1.00  0.00     0.012 A 
HETATM    7  C   UNL     1      -5.092   3.183 -32.807  1.00  0.00     0.017 A 
HETATM    8  C   UNL     1      -6.364   2.613 -32.894  1.00  0.00     0.026 A 
HETATM    9  C   UNL     1      -7.134   2.475 -31.737  1.00  0.00     0.074 A 
HETATM   10  C   UNL     1      -6.646   2.904 -30.501  1.00  0.00     0.026 A 
HETATM   11  C   UNL     1      -5.369   3.470 -30.424  1.00  0.00     0.017 A 
BRANCH   9  12
HETATM   12  S   UNL     1      -8.750   1.768 -31.851  1.00  0.00     0.243 S 
HETATM   13  O   UNL     1      -8.607   0.338 -31.985  1.00  0.00    -0.206 OA
HETATM   14  O   UNL     1      -9.600   2.349 -30.835  1.00  0.00    -0.206 OA
BRANCH  12  15
HETATM   15  N   UNL     1      -9.354   2.368 -33.340  1.00  0.00    -0.203 NA
HETATM   16  C   UNL     1     -10.117   3.654 -33.271  1.00  0.00     0.135 C 
HETATM   17  C   UNL     1     -11.586   3.460 -32.833  1.00  0.00     0.250 C 
HETATM   18  N   UNL     1     -12.275   2.380 -33.663  1.00  0.00    -0.073 N 
HETATM   19  H   UNL     1     -12.313   2.716 -34.634  1.00  0.00     0.279 HD
HETATM   20  C   UNL     1     -13.692   2.157 -33.216  1.00  0.00     0.269 C 
HETATM   21  C   UNL     1     -11.479   1.076 -33.664  1.00  0.00     0.250 C 
HETATM   22  C   UNL     1     -10.054   1.342 -34.174  1.00  0.00     0.135 C 
ENDBRANCH  12  15
ENDBRANCH   9  12
ENDBRANCH   5   6
BRANCH   1  23
HETATM   23  C   UNL     1      -3.858   6.669 -31.665  1.00  0.00     0.128 C 
HETATM   24  C   UNL     1      -4.383   7.071 -30.297  1.00  0.00     0.027 C 
ENDBRANCH   1  23
BRANCH   2  25
HETATM   25  S   UNL     1      -0.648   7.069 -31.688  1.00  0.00    -0.081 SA
BRANCH  25  26
HETATM   26  C   UNL     1       0.034   7.248 -30.016  1.00  0.00     0.185 C 
BRANCH  26  27
HETATM   27  C   UNL     1      -0.928   7.989 -29.098  1.00  0.00     0.231 C 
HETATM   28  N   UNL     1      -1.050   7.394 -27.853  1.00  0.00    -0.327 N 
HETATM   29  H   UNL     1      -0.331   6.711 -27.616  1.00  0.00     0.169 HD
HETATM   30  O   UNL     1      -1.515   8.999 -29.479  1.00  0.00    -0.272 OA
BRANCH  28  31
HETATM   31  C   UNL     1      -1.949   7.715 -26.820  1.00  0.00     0.034 A 
HETATM   32  C   UNL     1      -3.279   7.300 -26.987  1.00  0.00     0.032 A 
HETATM   33  C   UNL     1      -4.251   7.609 -26.031  1.00  0.00     0.039 A 
HETATM   34  C   UNL     1      -3.887   8.333 -24.903  1.00  0.00     0.065 A 
HETATM   35  C   UNL     1      -2.573   8.744 -24.717  1.00  0.00     0.039 A 
HETATM   36  C   UNL     1      -1.604   8.439 -25.678  1.00  0.00     0.032 A 
BRANCH  34  37
HETATM   37  O   UNL     1      -4.800   8.667 -23.948  1.00  0.00    -0.361 OA
HETATM   38  H   UNL     1      -4.728   8.037 -23.213  1.00  0.00     0.217 HD
ENDBRANCH  34  37
ENDBRANCH  28  31
ENDBRANCH  26  27
ENDBRANCH  25  26
ENDBRANCH   2  25
TORSDOF 9
ENDMDL
MODEL 10
REMARK VINA RESULT:      -7.8      3.045      4.136
REMARK  9 active torsions:
REMARK  status: ('A' for Active; 'I' for Inactive)
REMARK    1  A    between atoms: C_2  and  N_3 
REMARK    2  A    between atoms: C_4  and  S_5 
REMARK    3  A    between atoms: S_5  and  C_6 
REMARK    4  A    between atoms: C_6  and  C_7 
REMARK       I    between atoms: C_7  and  N_8 
REMARK    5  A    between atoms: N_8  and  C_9 
REMARK    6  A    between atoms: C_12  and  O_13 
REMARK    7  A    between atoms: C_19  and  C_20 
REMARK    8  A    between atoms: C_23  and  S_24 
REMARK    9  A    between atoms: S_24  and  N_25 
ROOT
HETATM    1  N   UNL     1      -6.632   4.172 -31.508  1.00  0.00    -0.308 N 
HETATM    2  C   UNL     1      -6.905   2.859 -31.793  1.00  0.00     0.192 A 
HETATM    3  N   UNL     1      -6.288   2.079 -30.940  1.00  0.00    -0.122 NA
HETATM    4  N   UNL     1      -5.634   2.879 -30.043  1.00  0.00    -0.128 NA
HETATM    5  C   UNL     1      -5.855   4.143 -30.364  1.00  0.00     0.164 A 
ENDROOT
BRANCH   5   6
HETATM    6  C   UNL     1      -5.294   5.284 -29.643  1.00  0.00     0.012 A 
HETATM    7  C   UNL     1      -4.159   5.926 -30.161  1.00  0.00     0.017 A 
HETATM    8  C   UNL     1      -3.581   7.007 -29.493  1.00  0.00     0.026 A 
HETATM    9  C   UNL     1      -4.132   7.441 -28.285  1.00  0.00     0.074 A 
HETATM   10  C   UNL     1      -5.248   6.802 -27.741  1.00  0.00     0.026 A 
HETATM   11  C   UNL     1      -5.822   5.722 -28.420  1.00  0.00     0.017 A 
BRANCH   9  12
HETATM   12  S   UNL     1      -3.391   8.801 -27.433  1.00  0.00     0.243 S 
HETATM   13  O   UNL     1      -2.737   9.640 -28.408  1.00  0.00    -0.206 OA
HETATM   14  O   UNL     1      -4.337   9.344 -26.483  1.00  0.00    -0.206 OA
BRANCH  12  15
HETATM   15  N   UNL     1      -2.168   8.067 -26.479  1.00  0.00    -0.203 NA
HETATM   16  C   UNL     1      -2.583   7.606 -25.116  1.00  0.00     0.135 C 
HETATM   17  C   UNL     1      -2.611   8.750 -24.077  1.00  0.00     0.250 C 
HETATM   18  N   UNL     1      -1.305   9.541 -24.088  1.00  0.00    -0.073 N 
HETATM   19  H   UNL     1      -0.557   8.905 -23.786  1.00  0.00     0.279 HD
HETATM   20  C   UNL     1      -1.340  10.680 -23.109  1.00  0.00     0.269 C 
HETATM   21  C   UNL     1      -0.952  10.025 -25.494  1.00  0.00     0.250 C 
HETATM   22  C   UNL     1      -0.879   8.825 -26.450  1.00  0.00     0.135 C 
ENDBRANCH  12  15
ENDBRANCH   9  12
ENDBRANCH   5   6
BRANCH   1  23
HETATM   23  C   UNL     1      -6.943   5.325 -32.330  1.00  0.00     0.128 C 
HETATM   24  C   UNL     1      -5.908   5.610 -33.407  1.00  0.00     0.027 C 
ENDBRANCH   1  23
BRANCH   2  25
HETATM   25  S   UNL     1      -7.920   2.336 -33.090  1.00  0.00    -0.081 SA
BRANCH  25  26
HETATM   26  C   UNL     1      -6.696   1.825 -34.328  1.00  0.00     0.185 C 
BRANCH  26  27
HETATM   27  C   UNL     1      -6.847   0.353 -34.687  1.00  0.00     0.231 C 
HETATM   28  N   UNL     1      -5.986  -0.465 -33.975  1.00  0.00    -0.327 N 
HETATM   29  H   UNL     1      -5.550  -0.043 -33.155  1.00  0.00     0.169 HD
HETATM   30  O   UNL     1      -7.657  -0.011 -35.536  1.00  0.00    -0.272 OA
BRANCH  28  31
HETATM   31  C   UNL     1      -5.746  -1.840 -34.153  1.00  0.00     0.034 A 
HETATM   32  C   UNL     1      -4.450  -2.299 -33.875  1.00  0.00     0.032 A 
HETATM   33  C   UNL     1      -4.111  -3.642 -34.062  1.00  0.00     0.039 A 
HETATM   34  C   UNL     1      -5.075  -4.528 -34.525  1.00  0.00     0.065 A 
HETATM   35  C   UNL     1      -6.367  -4.093 -34.796  1.00  0.00     0.039 A 
HETATM   36  C   UNL     1      -6.701  -2.748 -34.615  1.00  0.00     0.032 A 
BRANCH  34  37
HETATM   37  O   UNL     1      -4.790  -5.845 -34.732  1.00  0.00    -0.361 OA
HETATM   38  H   UNL     1      -5.623  -6.340 -34.778  1.00  0.00     0.217 HD
ENDBRANCH  34  37
ENDBRANCH  28  31
ENDBRANCH  26  27
ENDBRANCH  25  26
ENDBRANCH   2  25
TORSDOF 9
ENDMDL
