MODEL 1
REMARK VINA RESULT:      -7.6      0.000      0.000
REMARK  5 active torsions:
REMARK  status: ('A' for Active; 'I' for Inactive)
REMARK    1  A    between atoms: C_2  and  O_3 
REMARK    2  A    between atoms: O_3  and  C_4 
REMARK    3  A    between atoms: C_8  and  N_9 
REMARK       I    between atoms: N_9  and  C_10 
REMARK       I    between atoms: C_10  and  N_11 
REMARK    4  A    between atoms: N_11  and  C_12 
REMARK    5  A    between atoms: C_12  and  C_13 
ROOT
HETATM    1  N   UNL     1      -5.917   4.211 -33.625  1.00  0.00    -0.309 N 
HETATM    2  C   UNL     1      -6.733   3.135 -33.767  1.00  0.00     0.321 C 
HETATM    3  N   UNL     1      -6.182   1.901 -33.820  1.00  0.00    -0.337 N 
HETATM    4  O   UNL     1      -7.944   3.321 -33.874  1.00  0.00    -0.247 OA
HETATM    5  H   UNL     1      -6.451   5.062 -33.753  1.00  0.00     0.170 HD
HETATM    6  H   UNL     1      -5.252   1.825 -34.207  1.00  0.00     0.164 HD
ENDROOT
BRANCH   1   7
HETATM    7  C   UNL     1      -4.556   4.374 -33.312  1.00  0.00     0.038 A 
HETATM    8  C   UNL     1      -3.563   4.762 -34.210  1.00  0.00     0.056 A 
HETATM    9  C   UNL     1      -2.236   4.904 -33.776  1.00  0.00     0.069 A 
HETATM   10  C   UNL     1      -1.871   4.641 -32.445  1.00  0.00     0.090 A 
HETATM   11 CL   UNL     1      -1.057   5.414 -34.939  1.00  0.00    -0.081 Cl
HETATM   12  C   UNL     1      -2.861   4.211 -31.562  1.00  0.00     0.041 A 
HETATM   13  C   UNL     1      -4.186   4.078 -31.994  1.00  0.00     0.032 A 
BRANCH  10  14
HETATM   14  O   UNL     1      -0.555   4.815 -32.108  1.00  0.00    -0.350 OA
BRANCH  14  15
HETATM   15  C   UNL     1      -0.263   5.355 -30.822  1.00  0.00     0.171 C 
HETATM   16  C   UNL     1       0.327   6.741 -31.013  1.00  0.00     0.034 C 
ENDBRANCH  14  15
ENDBRANCH  10  14
ENDBRANCH   1   7
BRANCH   3  17
HETATM   17  C   UNL     1      -7.017   0.743 -34.054  1.00  0.00     0.183 C 
BRANCH  17  18
HETATM   18  C   UNL     1      -6.222  -0.544 -34.113  1.00  0.00     0.053 A 
HETATM   19  N   UNL     1      -4.925  -0.522 -33.700  1.00  0.00    -0.264 NA
HETATM   20  C   UNL     1      -4.232  -1.682 -33.750  1.00  0.00     0.118 A 
HETATM   21  C   UNL     1      -4.758  -2.870 -34.216  1.00  0.00     0.043 A 
HETATM   22  C   UNL     1      -6.073  -2.860 -34.657  1.00  0.00     0.037 A 
HETATM   23 CL   UNL     1      -6.782  -4.307 -35.263  1.00  0.00    -0.084 Cl
HETATM   24  C   UNL     1      -6.825  -1.694 -34.610  1.00  0.00     0.052 A 
ENDBRANCH  17  18
ENDBRANCH   3  17
TORSDOF 5
ENDMDL
MODEL 2
REMARK VINA RESULT:      -7.4      4.895      7.306
REMARK  5 active torsions:
REMARK  status: ('A' for Active; 'I' for Inactive)
REMARK    1  A    between atoms: C_2  and  O_3 
REMARK    2  A    between atoms: O_3  and  C_4 
REMARK    3  A    between atoms: C_8  and  N_9 
REMARK       I    between atoms: N_9  and  C_10 
REMARK       I    between atoms: C_10  and  N_11 
REMARK    4  A    between atoms: N_11  and  C_12 
REMARK    5  A    between atoms: C_12  and  C_13 
ROOT
HETATM    1  N   UNL     1      -7.706   0.474 -31.243  1.00  0.00    -0.309 N 
HETATM    2  C   UNL     1      -6.431   0.165 -31.591  1.00  0.00     0.321 C 
HETATM    3  N   UNL     1      -6.124   0.043 -32.902  1.00  0.00    -0.337 N 
HETATM    4  O   UNL     1      -5.604  -0.026 -30.700  1.00  0.00    -0.247 OA
HETATM    5  H   UNL     1      -7.817   0.382 -30.240  1.00  0.00     0.170 HD
HETATM    6  H   UNL     1      -6.856  -0.269 -33.523  1.00  0.00     0.164 HD
ENDROOT
BRANCH   1   7
HETATM    7  C   UNL     1      -8.836   0.915 -31.954  1.00  0.00     0.038 A 
HETATM    8  C   UNL     1      -9.202   2.246 -32.142  1.00  0.00     0.056 A 
HETATM    9  C   UNL     1     -10.351   2.564 -32.884  1.00  0.00     0.069 A 
HETATM   10  C   UNL     1     -11.166   1.560 -33.432  1.00  0.00     0.090 A 
HETATM   11 CL   UNL     1     -10.733   4.240 -33.100  1.00  0.00    -0.081 Cl
HETATM   12  C   UNL     1     -10.819   0.229 -33.204  1.00  0.00     0.041 A 
HETATM   13  C   UNL     1      -9.669  -0.086 -32.471  1.00  0.00     0.032 A 
BRANCH  10  14
HETATM   14  O   UNL     1     -12.261   1.963 -34.150  1.00  0.00    -0.350 OA
BRANCH  14  15
HETATM   15  C   UNL     1     -13.538   1.873 -33.521  1.00  0.00     0.171 C 
HETATM   16  C   UNL     1     -14.391   0.903 -34.319  1.00  0.00     0.034 C 
ENDBRANCH  14  15
ENDBRANCH  10  14
ENDBRANCH   1   7
BRANCH   3  17
HETATM   17  C   UNL     1      -4.795  -0.368 -33.301  1.00  0.00     0.183 C 
BRANCH  17  18
HETATM   18  C   UNL     1      -4.708  -1.851 -33.591  1.00  0.00     0.053 A 
HETATM   19  N   UNL     1      -3.674  -2.556 -33.055  1.00  0.00    -0.264 NA
HETATM   20  C   UNL     1      -3.617  -3.881 -33.315  1.00  0.00     0.118 A 
HETATM   21  C   UNL     1      -4.530  -4.547 -34.108  1.00  0.00     0.043 A 
HETATM   22  C   UNL     1      -5.560  -3.802 -34.664  1.00  0.00     0.037 A 
HETATM   23 CL   UNL     1      -6.723  -4.572 -35.673  1.00  0.00    -0.084 Cl
HETATM   24  C   UNL     1      -5.664  -2.441 -34.411  1.00  0.00     0.052 A 
ENDBRANCH  17  18
ENDBRANCH   3  17
TORSDOF 5
ENDMDL
MODEL 3
REMARK VINA RESULT:      -7.2      2.644      7.892
REMARK  5 active torsions:
REMARK  status: ('A' for Active; 'I' for Inactive)
REMARK    1  A    between atoms: C_2  and  O_3 
REMARK    2  A    between atoms: O_3  and  C_4 
REMARK    3  A    between atoms: C_8  and  N_9 
REMARK       I    between atoms: N_9  and  C_10 
REMARK       I    between atoms: C_10  and  N_11 
REMARK    4  A    between atoms: N_11  and  C_12 
REMARK    5  A    between atoms: C_12  and  C_13 
ROOT
HETATM    1  N   UNL     1      -5.069   0.994 -30.841  1.00  0.00    -0.309 N 
HETATM    2  C   UNL     1      -5.055   2.351 -30.808  1.00  0.00     0.321 C 
HETATM    3  N   UNL     1      -4.793   3.029 -31.948  1.00  0.00    -0.337 N 
HETATM    4  O   UNL     1      -5.251   2.918 -29.734  1.00  0.00    -0.247 OA
HETATM    5  H   UNL     1      -5.128   0.631 -29.896  1.00  0.00     0.170 HD
HETATM    6  H   UNL     1      -4.192   2.581 -32.625  1.00  0.00     0.164 HD
ENDROOT
BRANCH   1   7
HETATM    7  C   UNL     1      -5.060   0.039 -31.872  1.00  0.00     0.038 A 
HETATM    8  C   UNL     1      -6.040  -0.098 -32.853  1.00  0.00     0.056 A 
HETATM    9  C   UNL     1      -5.915  -1.086 -33.843  1.00  0.00     0.069 A 
HETATM   10  C   UNL     1      -4.822  -1.967 -33.860  1.00  0.00     0.090 A 
HETATM   11 CL   UNL     1      -7.158  -1.184 -35.046  1.00  0.00    -0.081 Cl
HETATM   12  C   UNL     1      -3.866  -1.854 -32.850  1.00  0.00     0.041 A 
HETATM   13  C   UNL     1      -3.988  -0.863 -31.869  1.00  0.00     0.032 A 
BRANCH  10  14
HETATM   14  O   UNL     1      -4.777  -2.893 -34.868  1.00  0.00    -0.350 OA
BRANCH  14  15
HETATM   15  C   UNL     1      -5.110  -4.242 -34.549  1.00  0.00     0.171 C 
HETATM   16  C   UNL     1      -6.415  -4.585 -35.246  1.00  0.00     0.034 C 
ENDBRANCH  14  15
ENDBRANCH  10  14
ENDBRANCH   1   7
BRANCH   3  17
HETATM   17  C   UNL     1      -4.688   4.472 -31.927  1.00  0.00     0.183 C 
BRANCH  17  18
HETATM   18  C   UNL     1      -3.463   4.976 -32.659  1.00  0.00     0.053 A 
HETATM   19  N   UNL     1      -3.414   4.834 -34.012  1.00  0.00    -0.264 NA
HETATM   20  C   UNL     1      -2.317   5.298 -34.652  1.00  0.00     0.118 A 
HETATM   21  C   UNL     1      -1.243   5.881 -34.009  1.00  0.00     0.043 A 
HETATM   22  C   UNL     1      -1.305   5.990 -32.627  1.00  0.00     0.037 A 
HETATM   23 CL   UNL     1       0.008   6.694 -31.765  1.00  0.00    -0.084 Cl
HETATM   24  C   UNL     1      -2.419   5.538 -31.932  1.00  0.00     0.052 A 
ENDBRANCH  17  18
ENDBRANCH   3  17
TORSDOF 5
ENDMDL
MODEL 4
REMARK VINA RESULT:      -7.2      2.398      7.584
REMARK  5 active torsions:
REMARK  status: ('A' for Active; 'I' for Inactive)
REMARK    1  A    between atoms: C_2  and  O_3 
REMARK    2  A    between atoms: O_3  and  C_4 
REMARK    3  A    between atoms: C_8  and  N_9 
REMARK       I    between atoms: N_9  and  C_10 
REMARK       I    between atoms: C_10  and  N_11 
REMARK    4  A    between atoms: N_11  and  C_12 
REMARK    5  A    between atoms: C_12  and  C_13 
ROOT
HETATM    1  N   UNL     1      -7.080   1.086 -32.132  1.00  0.00    -0.309 N 
HETATM    2  C   UNL     1      -6.872   2.426 -32.089  1.00  0.00     0.321 C 
HETATM    3  N   UNL     1      -5.713   2.922 -32.578  1.00  0.00    -0.337 N 
HETATM    4  O   UNL     1      -7.731   3.143 -31.578  1.00  0.00    -0.247 OA
HETATM    5  H   UNL     1      -7.911   0.853 -31.600  1.00  0.00     0.170 HD
HETATM    6  H   UNL     1      -4.896   2.330 -32.525  1.00  0.00     0.164 HD
ENDROOT
BRANCH   1   7
HETATM    7  C   UNL     1      -6.431   0.013 -32.768  1.00  0.00     0.038 A 
HETATM    8  C   UNL     1      -5.318  -0.664 -32.273  1.00  0.00     0.056 A 
HETATM    9  C   UNL     1      -4.763  -1.732 -32.995  1.00  0.00     0.069 A 
HETATM   10  C   UNL     1      -5.294  -2.130 -34.232  1.00  0.00     0.090 A 
HETATM   11 CL   UNL     1      -3.395  -2.545 -32.308  1.00  0.00    -0.081 Cl
HETATM   12  C   UNL     1      -6.380  -1.422 -34.744  1.00  0.00     0.041 A 
HETATM   13  C   UNL     1      -6.938  -0.362 -34.019  1.00  0.00     0.032 A 
BRANCH  10  14
HETATM   14  O   UNL     1      -4.694  -3.189 -34.862  1.00  0.00    -0.350 OA
BRANCH  14  15
HETATM   15  C   UNL     1      -5.194  -4.495 -34.589  1.00  0.00     0.171 C 
HETATM   16  C   UNL     1      -6.438  -4.711 -35.433  1.00  0.00     0.034 C 
ENDBRANCH  14  15
ENDBRANCH  10  14
ENDBRANCH   1   7
BRANCH   3  17
HETATM   17  C   UNL     1      -5.425   4.336 -32.470  1.00  0.00     0.183 C 
BRANCH  17  18
HETATM   18  C   UNL     1      -3.940   4.628 -32.457  1.00  0.00     0.053 A 
HETATM   19  N   UNL     1      -3.311   4.725 -31.253  1.00  0.00    -0.264 NA
HETATM   20  C   UNL     1      -1.983   4.976 -31.259  1.00  0.00     0.118 A 
HETATM   21  C   UNL     1      -1.242   5.161 -32.409  1.00  0.00     0.043 A 
HETATM   22  C   UNL     1      -1.911   5.083 -33.622  1.00  0.00     0.037 A 
HETATM   23 CL   UNL     1      -1.046   5.319 -35.091  1.00  0.00    -0.084 Cl
HETATM   24  C   UNL     1      -3.272   4.814 -33.662  1.00  0.00     0.052 A 
ENDBRANCH  17  18
ENDBRANCH   3  17
TORSDOF 5
ENDMDL
MODEL 5
REMARK VINA RESULT:      -7.2      5.275      7.374
REMARK  5 active torsions:
REMARK  status: ('A' for Active; 'I' for Inactive)
REMARK    1  A    between atoms: C_2  and  O_3 
REMARK    2  A    between atoms: O_3  and  C_4 
REMARK    3  A    between atoms: C_8  and  N_9 
REMARK       I    between atoms: N_9  and  C_10 
REMARK       I    between atoms: C_10  and  N_11 
REMARK    4  A    between atoms: N_11  and  C_12 
REMARK    5  A    between atoms: C_12  and  C_13 
ROOT
HETATM    1  N   UNL     1      -8.348   0.491 -31.557  1.00  0.00    -0.309 N 
HETATM    2  C   UNL     1      -7.125   0.112 -32.010  1.00  0.00     0.321 C 
HETATM    3  N   UNL     1      -6.891   0.120 -33.341  1.00  0.00    -0.337 N 
HETATM    4  O   UNL     1      -6.281  -0.256 -31.194  1.00  0.00    -0.247 OA
HETATM    5  H   UNL     1      -8.421   0.291 -30.566  1.00  0.00     0.170 HD
HETATM    6  H   UNL     1      -7.678  -0.050 -33.951  1.00  0.00     0.164 HD
ENDROOT
BRANCH   1   7
HETATM    7  C   UNL     1      -9.462   1.112 -32.148  1.00  0.00     0.038 A 
HETATM    8  C   UNL     1     -10.477   0.456 -32.842  1.00  0.00     0.056 A 
HETATM    9  C   UNL     1     -11.550   1.185 -33.379  1.00  0.00     0.069 A 
HETATM   10  C   UNL     1     -11.618   2.582 -33.253  1.00  0.00     0.090 A 
HETATM   11 CL   UNL     1     -12.790   0.302 -34.207  1.00  0.00    -0.081 Cl
HETATM   12  C   UNL     1     -10.578   3.238 -32.596  1.00  0.00     0.041 A 
HETATM   13  C   UNL     1      -9.513   2.509 -32.053  1.00  0.00     0.032 A 
BRANCH  10  14
HETATM   14  O   UNL     1     -12.707   3.209 -33.799  1.00  0.00    -0.350 OA
BRANCH  14  15
HETATM   15  C   UNL     1     -12.474   4.173 -34.824  1.00  0.00     0.171 C 
HETATM   16  C   UNL     1     -12.328   3.435 -36.143  1.00  0.00     0.034 C 
ENDBRANCH  14  15
ENDBRANCH  10  14
ENDBRANCH   1   7
BRANCH   3  17
HETATM   17  C   UNL     1      -5.628  -0.358 -33.859  1.00  0.00     0.183 C 
BRANCH  17  18
HETATM   18  C   UNL     1      -5.649  -1.841 -34.164  1.00  0.00     0.053 A 
HETATM   19  N   UNL     1      -6.804  -2.390 -34.628  1.00  0.00    -0.264 NA
HETATM   20  C   UNL     1      -6.804  -3.713 -34.904  1.00  0.00     0.118 A 
HETATM   21  C   UNL     1      -5.710  -4.535 -34.718  1.00  0.00     0.043 A 
HETATM   22  C   UNL     1      -4.551  -3.957 -34.219  1.00  0.00     0.037 A 
HETATM   23 CL   UNL     1      -3.157  -4.931 -33.951  1.00  0.00    -0.084 Cl
HETATM   24  C   UNL     1      -4.505  -2.599 -33.935  1.00  0.00     0.052 A 
ENDBRANCH  17  18
ENDBRANCH   3  17
TORSDOF 5
ENDMDL
MODEL 6
REMARK VINA RESULT:      -7.1      1.737      2.119
REMARK  5 active torsions:
REMARK  status: ('A' for Active; 'I' for Inactive)
REMARK    1  A    between atoms: C_2  and  O_3 
REMARK    2  A    between atoms: O_3  and  C_4 
REMARK    3  A    between atoms: C_8  and  N_9 
REMARK       I    between atoms: N_9  and  C_10 
REMARK       I    between atoms: C_10  and  N_11 
REMARK    4  A    between atoms: N_11  and  C_12 
REMARK    5  A    between atoms: C_12  and  C_13 
ROOT
HETATM    1  N   UNL     1      -6.799   3.364 -31.998  1.00  0.00    -0.309 N 
HETATM    2  C   UNL     1      -7.363   2.133 -32.098  1.00  0.00     0.321 C 
HETATM    3  N   UNL     1      -6.798   1.223 -32.923  1.00  0.00    -0.337 N 
HETATM    4  O   UNL     1      -8.387   1.898 -31.460  1.00  0.00    -0.247 OA
HETATM    5  H   UNL     1      -7.411   3.976 -31.469  1.00  0.00     0.170 HD
HETATM    6  H   UNL     1      -6.313   1.572 -33.737  1.00  0.00     0.164 HD
ENDROOT
BRANCH   1   7
HETATM    7  C   UNL     1      -5.581   3.922 -32.423  1.00  0.00     0.038 A 
HETATM    8  C   UNL     1      -4.388   3.896 -31.705  1.00  0.00     0.056 A 
HETATM    9  C   UNL     1      -3.228   4.479 -32.240  1.00  0.00     0.069 A 
HETATM   10  C   UNL     1      -3.243   5.116 -33.492  1.00  0.00     0.090 A 
HETATM   11 CL   UNL     1      -1.773   4.388 -31.303  1.00  0.00    -0.081 Cl
HETATM   12  C   UNL     1      -4.450   5.177 -34.187  1.00  0.00     0.041 A 
HETATM   13  C   UNL     1      -5.604   4.588 -33.656  1.00  0.00     0.032 A 
BRANCH  10  14
HETATM   14  O   UNL     1      -2.063   5.648 -33.940  1.00  0.00    -0.350 OA
BRANCH  14  15
HETATM   15  C   UNL     1      -1.987   7.063 -34.094  1.00  0.00     0.171 C 
HETATM   16  C   UNL     1      -1.641   7.668 -32.745  1.00  0.00     0.034 C 
ENDBRANCH  14  15
ENDBRANCH  10  14
ENDBRANCH   1   7
BRANCH   3  17
HETATM   17  C   UNL     1      -7.422  -0.068 -33.116  1.00  0.00     0.183 C 
BRANCH  17  18
HETATM   18  C   UNL     1      -6.447  -1.117 -33.609  1.00  0.00     0.053 A 
HETATM   19  N   UNL     1      -5.117  -0.907 -33.411  1.00  0.00    -0.264 NA
HETATM   20  C   UNL     1      -4.261  -1.857 -33.849  1.00  0.00     0.118 A 
HETATM   21  C   UNL     1      -4.659  -3.007 -34.501  1.00  0.00     0.043 A 
HETATM   22  C   UNL     1      -6.019  -3.185 -34.714  1.00  0.00     0.037 A 
HETATM   23 CL   UNL     1      -6.578  -4.591 -35.535  1.00  0.00    -0.084 Cl
HETATM   24  C   UNL     1      -6.933  -2.240 -34.269  1.00  0.00     0.052 A 
ENDBRANCH  17  18
ENDBRANCH   3  17
TORSDOF 5
ENDMDL
MODEL 7
REMARK VINA RESULT:      -7.0      2.289      2.655
REMARK  5 active torsions:
REMARK  status: ('A' for Active; 'I' for Inactive)
REMARK    1  A    between atoms: C_2  and  O_3 
REMARK    2  A    between atoms: O_3  and  C_4 
REMARK    3  A    between atoms: C_8  and  N_9 
REMARK       I    between atoms: N_9  and  C_10 
REMARK       I    between atoms: C_10  and  N_11 
REMARK    4  A    between atoms: N_11  and  C_12 
REMARK    5  A    between atoms: C_12  and  C_13 
ROOT
HETATM    1  N   UNL     1      -5.649   1.901 -30.512  1.00  0.00    -0.309 N 
HETATM    2  C   UNL     1      -6.300   0.843 -31.061  1.00  0.00     0.321 C 
HETATM    3  N   UNL     1      -6.455   0.799 -32.403  1.00  0.00    -0.337 N 
HETATM    4  O   UNL     1      -6.754  -0.024 -30.316  1.00  0.00    -0.247 OA
HETATM    5  H   UNL     1      -5.743   1.871 -29.503  1.00  0.00     0.170 HD
HETATM    6  H   UNL     1      -6.520   1.680 -32.892  1.00  0.00     0.164 HD
ENDROOT
BRANCH   1   7
HETATM    7  C   UNL     1      -4.876   2.953 -31.032  1.00  0.00     0.038 A 
HETATM    8  C   UNL     1      -5.362   4.205 -31.403  1.00  0.00     0.056 A 
HETATM    9  C   UNL     1      -4.487   5.183 -31.900  1.00  0.00     0.069 A 
HETATM   10  C   UNL     1      -3.116   4.924 -32.056  1.00  0.00     0.090 A 
HETATM   11 CL   UNL     1      -5.157   6.726 -32.318  1.00  0.00    -0.081 Cl
HETATM   12  C   UNL     1      -2.641   3.655 -31.725  1.00  0.00     0.041 A 
HETATM   13  C   UNL     1      -3.514   2.683 -31.221  1.00  0.00     0.032 A 
BRANCH  10  14
HETATM   14  O   UNL     1      -2.335   5.941 -32.539  1.00  0.00    -0.350 OA
BRANCH  14  15
HETATM   15  C   UNL     1      -1.333   5.612 -33.498  1.00  0.00     0.171 C 
HETATM   16  C   UNL     1      -2.021   5.299 -34.815  1.00  0.00     0.034 C 
ENDBRANCH  14  15
ENDBRANCH  10  14
ENDBRANCH   1   7
BRANCH   3  17
HETATM   17  C   UNL     1      -7.216  -0.272 -33.011  1.00  0.00     0.183 C 
BRANCH  17  18
HETATM   18  C   UNL     1      -6.333  -1.354 -33.593  1.00  0.00     0.053 A 
HETATM   19  N   UNL     1      -4.985  -1.246 -33.433  1.00  0.00    -0.264 NA
HETATM   20  C   UNL     1      -4.211  -2.225 -33.950  1.00  0.00     0.118 A 
HETATM   21  C   UNL     1      -4.709  -3.308 -34.648  1.00  0.00     0.043 A 
HETATM   22  C   UNL     1      -6.083  -3.383 -34.821  1.00  0.00     0.037 A 
HETATM   23 CL   UNL     1      -6.765  -4.701 -35.693  1.00  0.00    -0.084 Cl
HETATM   24  C   UNL     1      -6.916  -2.404 -34.294  1.00  0.00     0.052 A 
ENDBRANCH  17  18
ENDBRANCH   3  17
TORSDOF 5
ENDMDL
MODEL 8
REMARK VINA RESULT:      -6.9      4.940      7.076
REMARK  5 active torsions:
REMARK  status: ('A' for Active; 'I' for Inactive)
REMARK    1  A    between atoms: C_2  and  O_3 
REMARK    2  A    between atoms: O_3  and  C_4 
REMARK    3  A    between atoms: C_8  and  N_9 
REMARK       I    between atoms: N_9  and  C_10 
REMARK       I    between atoms: C_10  and  N_11 
REMARK    4  A    between atoms: N_11  and  C_12 
REMARK    5  A    between atoms: C_12  and  C_13 
ROOT
HETATM    1  N   UNL     1      -7.563   0.992 -31.160  1.00  0.00    -0.309 N 
HETATM    2  C   UNL     1      -8.512   1.906 -31.490  1.00  0.00     0.321 C 
HETATM    3  N   UNL     1      -8.599   2.321 -32.773  1.00  0.00    -0.337 N 
HETATM    4  O   UNL     1      -9.239   2.349 -30.603  1.00  0.00    -0.247 OA
HETATM    5  H   UNL     1      -7.521   0.894 -30.152  1.00  0.00     0.170 HD
HETATM    6  H   UNL     1      -7.748   2.328 -33.317  1.00  0.00     0.164 HD
ENDROOT
BRANCH   1   7
HETATM    7  C   UNL     1      -6.700   0.165 -31.900  1.00  0.00     0.038 A 
HETATM    8  C   UNL     1      -5.362  -0.078 -31.599  1.00  0.00     0.056 A 
HETATM    9  C   UNL     1      -4.600  -0.935 -32.409  1.00  0.00     0.069 A 
HETATM   10  C   UNL     1      -5.154  -1.548 -33.545  1.00  0.00     0.090 A 
HETATM   11 CL   UNL     1      -2.949  -1.212 -31.962  1.00  0.00    -0.081 Cl
HETATM   12  C   UNL     1      -6.482  -1.267 -33.866  1.00  0.00     0.041 A 
HETATM   13  C   UNL     1      -7.242  -0.419 -33.053  1.00  0.00     0.032 A 
BRANCH  10  14
HETATM   14  O   UNL     1      -4.340  -2.378 -34.270  1.00  0.00    -0.350 OA
BRANCH  14  15
HETATM   15  C   UNL     1      -4.693  -3.757 -34.345  1.00  0.00     0.171 C 
HETATM   16  C   UNL     1      -3.654  -4.554 -33.576  1.00  0.00     0.034 C 
ENDBRANCH  14  15
ENDBRANCH  10  14
ENDBRANCH   1   7
BRANCH   3  17
HETATM   17  C   UNL     1      -9.543   3.356 -33.139  1.00  0.00     0.183 C 
BRANCH  17  18
HETATM   18  C   UNL     1     -10.738   2.811 -33.892  1.00  0.00     0.053 A 
HETATM   19  N   UNL     1     -11.226   3.532 -34.938  1.00  0.00    -0.264 NA
HETATM   20  C   UNL     1     -12.288   3.027 -35.606  1.00  0.00     0.118 A 
HETATM   21  C   UNL     1     -12.911   1.842 -35.272  1.00  0.00     0.043 A 
HETATM   22  C   UNL     1     -12.411   1.138 -34.185  1.00  0.00     0.037 A 
HETATM   23 CL   UNL     1     -13.154  -0.339 -33.709  1.00  0.00    -0.084 Cl
HETATM   24  C   UNL     1     -11.314   1.615 -33.480  1.00  0.00     0.052 A 
ENDBRANCH  17  18
ENDBRANCH   3  17
TORSDOF 5
ENDMDL
MODEL 9
REMARK VINA RESULT:      -6.8      2.539      3.669
REMARK  5 active torsions:
REMARK  status: ('A' for Active; 'I' for Inactive)
REMARK    1  A    between atoms: C_2  and  O_3 
REMARK    2  A    between atoms: O_3  and  C_4 
REMARK    3  A    between atoms: C_8  and  N_9 
REMARK       I    between atoms: N_9  and  C_10 
REMARK       I    between atoms: C_10  and  N_11 
REMARK    4  A    between atoms: N_11  and  C_12 
REMARK    5  A    between atoms: C_12  and  C_13 
ROOT
HETATM    1  N   UNL     1      -2.557   5.721 -34.144  1.00  0.00    -0.309 N 
HETATM    2  C   UNL     1      -3.830   5.265 -34.255  1.00  0.00     0.321 C 
HETATM    3  N   UNL     1      -4.480   4.867 -33.137  1.00  0.00    -0.337 N 
HETATM    4  O   UNL     1      -4.341   5.199 -35.372  1.00  0.00    -0.247 OA
HETATM    5  H   UNL     1      -2.156   5.837 -35.068  1.00  0.00     0.170 HD
HETATM    6  H   UNL     1      -3.921   4.488 -32.387  1.00  0.00     0.164 HD
ENDROOT
BRANCH   1   7
HETATM    7  C   UNL     1      -1.737   6.087 -33.063  1.00  0.00     0.038 A 
HETATM    8  C   UNL     1      -0.813   5.255 -32.434  1.00  0.00     0.056 A 
HETATM    9  C   UNL     1      -0.039   5.739 -31.367  1.00  0.00     0.069 A 
HETATM   10  C   UNL     1      -0.188   7.053 -30.895  1.00  0.00     0.090 A 
HETATM   11 CL   UNL     1       1.108   4.657 -30.648  1.00  0.00    -0.081 Cl
HETATM   12  C   UNL     1      -1.145   7.868 -31.499  1.00  0.00     0.041 A 
HETATM   13  C   UNL     1      -1.910   7.387 -32.569  1.00  0.00     0.032 A 
BRANCH  10  14
HETATM   14  O   UNL     1       0.616   7.442 -29.856  1.00  0.00    -0.350 OA
BRANCH  14  15
HETATM   15  C   UNL     1      -0.009   7.764 -28.616  1.00  0.00     0.171 C 
HETATM   16  C   UNL     1       1.046   7.705 -27.525  1.00  0.00     0.034 C 
ENDBRANCH  14  15
ENDBRANCH  10  14
ENDBRANCH   1   7
BRANCH   3  17
HETATM   17  C   UNL     1      -5.807   4.298 -33.233  1.00  0.00     0.183 C 
BRANCH  17  18
HETATM   18  C   UNL     1      -5.786   2.786 -33.304  1.00  0.00     0.053 A 
HETATM   19  N   UNL     1      -4.948   2.110 -32.471  1.00  0.00    -0.264 NA
HETATM   20  C   UNL     1      -4.949   0.760 -32.541  1.00  0.00     0.118 A 
HETATM   21  C   UNL     1      -5.729   0.038 -33.422  1.00  0.00     0.043 A 
HETATM   22  C   UNL     1      -6.555   0.751 -34.279  1.00  0.00     0.037 A 
HETATM   23 CL   UNL     1      -7.542  -0.091 -35.411  1.00  0.00    -0.084 Cl
HETATM   24  C   UNL     1      -6.595   2.138 -34.231  1.00  0.00     0.052 A 
ENDBRANCH  17  18
ENDBRANCH   3  17
TORSDOF 5
ENDMDL
MODEL 10
REMARK VINA RESULT:      -6.5      4.441      7.270
REMARK  5 active torsions:
REMARK  status: ('A' for Active; 'I' for Inactive)
REMARK    1  A    between atoms: C_2  and  O_3 
REMARK    2  A    between atoms: O_3  and  C_4 
REMARK    3  A    between atoms: C_8  and  N_9 
REMARK       I    between atoms: N_9  and  C_10 
REMARK       I    between atoms: C_10  and  N_11 
REMARK    4  A    between atoms: N_11  and  C_12 
REMARK    5  A    between atoms: C_12  and  C_13 
ROOT
HETATM    1  N   UNL     1      -8.443   0.824 -34.885  1.00  0.00    -0.309 N 
HETATM    2  C   UNL     1      -9.197   1.697 -34.170  1.00  0.00     0.321 C 
HETATM    3  N   UNL     1      -9.119   1.673 -32.820  1.00  0.00    -0.337 N 
HETATM    4  O   UNL     1      -9.949   2.462 -34.773  1.00  0.00    -0.247 OA
HETATM    5  H   UNL     1      -8.718   0.857 -35.861  1.00  0.00     0.170 HD
HETATM    6  H   UNL     1      -8.908   0.787 -32.384  1.00  0.00     0.164 HD
ENDROOT
BRANCH   1   7
HETATM    7  C   UNL     1      -7.385  -0.045 -34.569  1.00  0.00     0.038 A 
HETATM    8  C   UNL     1      -7.378  -1.421 -34.786  1.00  0.00     0.056 A 
HETATM    9  C   UNL     1      -6.253  -2.186 -34.438  1.00  0.00     0.069 A 
HETATM   10  C   UNL     1      -5.124  -1.595 -33.848  1.00  0.00     0.090 A 
HETATM   11 CL   UNL     1      -6.305  -3.888 -34.759  1.00  0.00    -0.081 Cl
HETATM   12  C   UNL     1      -5.153  -0.224 -33.594  1.00  0.00     0.041 A 
HETATM   13  C   UNL     1      -6.272   0.538 -33.949  1.00  0.00     0.032 A 
BRANCH  10  14
HETATM   14  O   UNL     1      -4.068  -2.416 -33.551  1.00  0.00    -0.350 OA
BRANCH  14  15
HETATM   15  C   UNL     1      -3.424  -2.242 -32.291  1.00  0.00     0.171 C 
HETATM   16  C   UNL     1      -2.954  -3.603 -31.809  1.00  0.00     0.034 C 
ENDBRANCH  14  15
ENDBRANCH  10  14
ENDBRANCH   1   7
BRANCH   3  17
HETATM   17  C   UNL     1      -9.971   2.533 -32.028  1.00  0.00     0.183 C 
BRANCH  17  18
HETATM   18  C   UNL     1      -9.183   3.466 -31.134  1.00  0.00     0.053 A 
HETATM   19  N   UNL     1      -9.809   4.569 -30.638  1.00  0.00    -0.264 NA
HETATM   20  C   UNL     1      -9.094   5.386 -29.832  1.00  0.00     0.118 A 
HETATM   21  C   UNL     1      -7.768   5.177 -29.510  1.00  0.00     0.043 A 
HETATM   22  C   UNL     1      -7.145   4.060 -30.049  1.00  0.00     0.037 A 
HETATM   23 CL   UNL     1      -5.489   3.752 -29.695  1.00  0.00    -0.084 Cl
HETATM   24  C   UNL     1      -7.847   3.188 -30.870  1.00  0.00     0.052 A 
ENDBRANCH  17  18
ENDBRANCH   3  17
TORSDOF 5
ENDMDL
