MODEL 1
REMARK VINA RESULT:      -9.3      0.000      0.000
REMARK  5 active torsions:
REMARK  status: ('A' for Active; 'I' for Inactive)
REMARK    1  A    between atoms: C_2  and  C_3 
REMARK    2  A    between atoms: N_12  and  N_13 
REMARK       I    between atoms: N_13  and  C_14 
REMARK    3  A    between atoms: C_14  and  C_15 
REMARK    4  A    between atoms: C_15  and  N_16 
REMARK       I    between atoms: N_16  and  C_17 
REMARK    5  A    between atoms: C_17  and  C_18 
ROOT
HETATM    1  N   UNL     1      -3.184   2.619 -32.492  1.00  0.00    -0.255 N 
HETATM    2  C   UNL     1      -3.467   3.800 -31.834  1.00  0.00     0.254 C 
HETATM    3  O   UNL     1      -4.205   3.888 -30.855  1.00  0.00    -0.270 OA
HETATM    4  H   UNL     1      -2.854   2.668 -33.460  1.00  0.00     0.191 HD
ENDROOT
BRANCH   1   5
HETATM    5  N   UNL     1      -3.904   1.493 -32.137  1.00  0.00    -0.167 N 
HETATM    6  C   UNL     1      -3.411   0.496 -31.341  1.00  0.00     0.345 A 
HETATM    7  N   UNL     1      -4.363  -0.502 -31.280  1.00  0.00    -0.319 N 
HETATM    8  O   UNL     1      -2.332   0.446 -30.772  1.00  0.00    -0.245 OA
HETATM    9  C   UNL     1      -5.481  -0.254 -32.178  1.00  0.00     0.141 A 
HETATM   10  H   UNL     1      -4.132  -1.400 -30.878  1.00  0.00     0.166 HD
HETATM   11  C   UNL     1      -6.784  -0.097 -31.382  1.00  0.00     0.055 C 
HETATM   12  C   UNL     1      -5.103   1.151 -32.713  1.00  0.00     0.279 A 
HETATM   13  O   UNL     1      -5.767   1.825 -33.492  1.00  0.00    -0.268 OA
BRANCH   9  14
HETATM   14  C   UNL     1      -5.545  -1.357 -33.230  1.00  0.00    -0.021 A 
HETATM   15  C   UNL     1      -6.774  -1.687 -33.836  1.00  0.00     0.010 A 
HETATM   16  C   UNL     1      -6.864  -2.705 -34.787  1.00  0.00     0.001 A 
HETATM   17  C   UNL     1      -5.730  -3.424 -35.147  1.00  0.00     0.000 A 
HETATM   18  C   UNL     1      -4.508  -3.130 -34.550  1.00  0.00     0.001 A 
HETATM   19  C   UNL     1      -4.417  -2.111 -33.596  1.00  0.00     0.010 A 
ENDBRANCH   9  14
ENDBRANCH   1   5
BRANCH   2  20
HETATM   20  C   UNL     1      -2.743   5.010 -32.426  1.00  0.00     0.227 C 
BRANCH  20  21
HETATM   21  N   UNL     1      -2.167   5.879 -31.410  1.00  0.00    -0.348 N 
HETATM   22  C   UNL     1      -0.894   5.666 -30.930  1.00  0.00     0.252 C 
HETATM   23  O   UNL     1      -0.142   4.835 -31.435  1.00  0.00    -0.268 OA
HETATM   24  H   UNL     1      -2.805   6.480 -30.907  1.00  0.00     0.163 HD
BRANCH  22  25
HETATM   25  C   UNL     1      -0.461   6.466 -29.751  1.00  0.00     0.033 A 
HETATM   26  C   UNL     1      -1.095   7.695 -29.526  1.00  0.00     0.036 A 
HETATM   27  C   UNL     1      -0.710   8.488 -28.445  1.00  0.00     0.012 A 
HETATM   28 BR   UNL     1      -1.560  10.151 -28.150  1.00  0.00    -0.051 Br
HETATM   29  C   UNL     1       0.298   8.065 -27.580  1.00  0.00     0.019 A 
HETATM   30  C   UNL     1       0.919   6.833 -27.790  1.00  0.00     0.002 A 
HETATM   31  C   UNL     1       0.539   6.031 -28.870  1.00  0.00     0.017 A 
ENDBRANCH  22  25
ENDBRANCH  20  21
ENDBRANCH   2  20
TORSDOF 5
ENDMDL
MODEL 2
REMARK VINA RESULT:      -8.9      1.773      2.219
REMARK  5 active torsions:
REMARK  status: ('A' for Active; 'I' for Inactive)
REMARK    1  A    between atoms: C_2  and  C_3 
REMARK    2  A    between atoms: N_12  and  N_13 
REMARK       I    between atoms: N_13  and  C_14 
REMARK    3  A    between atoms: C_14  and  C_15 
REMARK    4  A    between atoms: C_15  and  N_16 
REMARK       I    between atoms: N_16  and  C_17 
REMARK    5  A    between atoms: C_17  and  C_18 
ROOT
HETATM    1  N   UNL     1      -5.018   2.820 -33.459  1.00  0.00    -0.255 N 
HETATM    2  C   UNL     1      -5.664   4.015 -33.211  1.00  0.00     0.254 C 
HETATM    3  O   UNL     1      -6.700   4.119 -32.557  1.00  0.00    -0.270 OA
HETATM    4  H   UNL     1      -4.383   2.768 -34.261  1.00  0.00     0.191 HD
ENDROOT
BRANCH   1   5
HETATM    5  N   UNL     1      -5.661   1.650 -33.098  1.00  0.00    -0.167 N 
HETATM    6  C   UNL     1      -5.441   0.997 -31.917  1.00  0.00     0.345 A 
HETATM    7  N   UNL     1      -6.176  -0.172 -31.940  1.00  0.00    -0.319 N 
HETATM    8  O   UNL     1      -4.730   1.338 -30.984  1.00  0.00    -0.245 OA
HETATM    9  C   UNL     1      -6.803  -0.403 -33.232  1.00  0.00     0.141 A 
HETATM   10  H   UNL     1      -6.028  -0.879 -31.233  1.00  0.00     0.166 HD
HETATM   11  C   UNL     1      -8.332  -0.413 -33.094  1.00  0.00     0.055 C 
HETATM   12  C   UNL     1      -6.421   0.908 -33.967  1.00  0.00     0.279 A 
HETATM   13  O   UNL     1      -6.757   1.217 -35.105  1.00  0.00    -0.268 OA
BRANCH   9  14
HETATM   14  C   UNL     1      -6.244  -1.682 -33.848  1.00  0.00    -0.021 A 
HETATM   15  C   UNL     1      -7.116  -2.648 -34.388  1.00  0.00     0.010 A 
HETATM   16  C   UNL     1      -6.632  -3.836 -34.940  1.00  0.00     0.001 A 
HETATM   17  C   UNL     1      -5.266  -4.091 -34.956  1.00  0.00     0.000 A 
HETATM   18  C   UNL     1      -4.385  -3.162 -34.412  1.00  0.00     0.001 A 
HETATM   19  C   UNL     1      -4.868  -1.972 -33.858  1.00  0.00     0.010 A 
ENDBRANCH   9  14
ENDBRANCH   1   5
BRANCH   2  20
HETATM   20  C   UNL     1      -4.947   5.227 -33.809  1.00  0.00     0.227 C 
BRANCH  20  21
HETATM   21  N   UNL     1      -3.905   5.753 -32.940  1.00  0.00    -0.348 N 
HETATM   22  C   UNL     1      -2.618   5.264 -32.995  1.00  0.00     0.252 C 
HETATM   23  O   UNL     1      -2.263   4.475 -33.868  1.00  0.00    -0.268 OA
HETATM   24  H   UNL     1      -4.204   6.306 -32.149  1.00  0.00     0.163 HD
BRANCH  22  25
HETATM   25  C   UNL     1      -1.668   5.707 -31.937  1.00  0.00     0.033 A 
HETATM   26  C   UNL     1      -2.118   6.658 -31.011  1.00  0.00     0.036 A 
HETATM   27  C   UNL     1      -1.257   7.117 -30.015  1.00  0.00     0.012 A 
HETATM   28 BR   UNL     1      -1.863   8.408 -28.773  1.00  0.00    -0.051 Br
HETATM   29  C   UNL     1       0.047   6.633 -29.926  1.00  0.00     0.019 A 
HETATM   30  C   UNL     1       0.492   5.672 -30.835  1.00  0.00     0.002 A 
HETATM   31  C   UNL     1      -0.364   5.204 -31.836  1.00  0.00     0.017 A 
ENDBRANCH  22  25
ENDBRANCH  20  21
ENDBRANCH   2  20
TORSDOF 5
ENDMDL
MODEL 3
REMARK VINA RESULT:      -8.9      3.955      9.331
REMARK  5 active torsions:
REMARK  status: ('A' for Active; 'I' for Inactive)
REMARK    1  A    between atoms: C_2  and  C_3 
REMARK    2  A    between atoms: N_12  and  N_13 
REMARK       I    between atoms: N_13  and  C_14 
REMARK    3  A    between atoms: C_14  and  C_15 
REMARK    4  A    between atoms: C_15  and  N_16 
REMARK       I    between atoms: N_16  and  C_17 
REMARK    5  A    between atoms: C_17  and  C_18 
ROOT
HETATM    1  N   UNL     1      -5.058   4.108 -33.430  1.00  0.00    -0.255 N 
HETATM    2  C   UNL     1      -6.380   4.334 -33.762  1.00  0.00     0.254 C 
HETATM    3  O   UNL     1      -6.873   5.449 -33.920  1.00  0.00    -0.270 OA
HETATM    4  H   UNL     1      -4.811   3.214 -32.997  1.00  0.00     0.191 HD
ENDROOT
BRANCH   1   5
HETATM    5  N   UNL     1      -4.282   5.200 -33.087  1.00  0.00    -0.167 N 
HETATM    6  C   UNL     1      -3.438   5.834 -33.956  1.00  0.00     0.345 A 
HETATM    7  N   UNL     1      -2.761   6.809 -33.249  1.00  0.00    -0.319 N 
HETATM    8  O   UNL     1      -3.270   5.614 -35.146  1.00  0.00    -0.245 OA
HETATM    9  C   UNL     1      -3.038   6.747 -31.822  1.00  0.00     0.141 A 
HETATM   10  H   UNL     1      -1.972   7.283 -33.666  1.00  0.00     0.166 HD
HETATM   11  C   UNL     1      -3.718   8.038 -31.350  1.00  0.00     0.055 C 
HETATM   12  C   UNL     1      -4.113   5.629 -31.794  1.00  0.00     0.279 A 
HETATM   13  O   UNL     1      -4.703   5.226 -30.798  1.00  0.00    -0.268 OA
BRANCH   9  14
HETATM   14  C   UNL     1      -1.750   6.431 -31.067  1.00  0.00    -0.021 A 
HETATM   15  C   UNL     1      -0.750   5.644 -31.672  1.00  0.00     0.010 A 
HETATM   16  C   UNL     1       0.430   5.324 -30.997  1.00  0.00     0.001 A 
HETATM   17  C   UNL     1       0.633   5.774 -29.697  1.00  0.00     0.000 A 
HETATM   18  C   UNL     1      -0.347   6.537 -29.071  1.00  0.00     0.001 A 
HETATM   19  C   UNL     1      -1.530   6.857 -29.745  1.00  0.00     0.010 A 
ENDBRANCH   9  14
ENDBRANCH   1   5
BRANCH   2  20
HETATM   20  C   UNL     1      -7.185   3.047 -33.949  1.00  0.00     0.227 C 
BRANCH  20  21
HETATM   21  N   UNL     1      -6.351   1.855 -33.970  1.00  0.00    -0.348 N 
HETATM   22  C   UNL     1      -6.831   0.659 -34.456  1.00  0.00     0.252 C 
HETATM   23  O   UNL     1      -7.919   0.581 -35.022  1.00  0.00    -0.268 OA
HETATM   24  H   UNL     1      -5.511   1.874 -33.408  1.00  0.00     0.163 HD
BRANCH  22  25
HETATM   25  C   UNL     1      -5.990  -0.553 -34.252  1.00  0.00     0.033 A 
HETATM   26  C   UNL     1      -6.444  -1.763 -34.793  1.00  0.00     0.036 A 
HETATM   27  C   UNL     1      -5.699  -2.928 -34.611  1.00  0.00     0.012 A 
HETATM   28 BR   UNL     1      -6.318  -4.561 -35.333  1.00  0.00    -0.051 Br
HETATM   29  C   UNL     1      -4.501  -2.898 -33.899  1.00  0.00     0.019 A 
HETATM   30  C   UNL     1      -4.036  -1.692 -33.374  1.00  0.00     0.002 A 
HETATM   31  C   UNL     1      -4.775  -0.518 -33.554  1.00  0.00     0.017 A 
ENDBRANCH  22  25
ENDBRANCH  20  21
ENDBRANCH   2  20
TORSDOF 5
ENDMDL
MODEL 4
REMARK VINA RESULT:      -8.9      5.935      9.081
REMARK  5 active torsions:
REMARK  status: ('A' for Active; 'I' for Inactive)
REMARK    1  A    between atoms: C_2  and  C_3 
REMARK    2  A    between atoms: N_12  and  N_13 
REMARK       I    between atoms: N_13  and  C_14 
REMARK    3  A    between atoms: C_14  and  C_15 
REMARK    4  A    between atoms: C_15  and  N_16 
REMARK       I    between atoms: N_16  and  C_17 
REMARK    5  A    between atoms: C_17  and  C_18 
ROOT
HETATM    1  N   UNL     1      -8.199   2.595 -32.334  1.00  0.00    -0.255 N 
HETATM    2  C   UNL     1      -8.397   3.380 -31.215  1.00  0.00     0.254 C 
HETATM    3  O   UNL     1      -7.537   3.606 -30.366  1.00  0.00    -0.270 OA
HETATM    4  H   UNL     1      -9.019   2.188 -32.795  1.00  0.00     0.191 HD
ENDROOT
BRANCH   1   5
HETATM    5  N   UNL     1      -7.018   1.881 -32.422  1.00  0.00    -0.167 N 
HETATM    6  C   UNL     1      -5.983   2.225 -33.246  1.00  0.00     0.345 A 
HETATM    7  N   UNL     1      -5.020   1.241 -33.143  1.00  0.00    -0.319 N 
HETATM    8  O   UNL     1      -5.883   3.206 -33.966  1.00  0.00    -0.245 OA
HETATM    9  C   UNL     1      -5.466   0.114 -32.339  1.00  0.00     0.141 A 
HETATM   10  H   UNL     1      -4.245   1.219 -33.792  1.00  0.00     0.166 HD
HETATM   11  C   UNL     1      -4.583  -0.042 -31.093  1.00  0.00     0.055 C 
HETATM   12  C   UNL     1      -6.843   0.641 -31.858  1.00  0.00     0.279 A 
HETATM   13  O   UNL     1      -7.612   0.057 -31.104  1.00  0.00    -0.268 OA
BRANCH   9  14
HETATM   14  C   UNL     1      -5.516  -1.141 -33.205  1.00  0.00    -0.021 A 
HETATM   15  C   UNL     1      -4.372  -1.953 -33.341  1.00  0.00     0.010 A 
HETATM   16  C   UNL     1      -4.383  -3.097 -34.142  1.00  0.00     0.001 A 
HETATM   17  C   UNL     1      -5.536  -3.449 -34.835  1.00  0.00     0.000 A 
HETATM   18  C   UNL     1      -6.673  -2.655 -34.733  1.00  0.00     0.001 A 
HETATM   19  C   UNL     1      -6.662  -1.508 -33.931  1.00  0.00     0.010 A 
ENDBRANCH   9  14
ENDBRANCH   1   5
BRANCH   2  20
HETATM   20  C   UNL     1      -9.802   3.980 -31.138  1.00  0.00     0.227 C 
BRANCH  20  21
HETATM   21  N   UNL     1     -10.836   3.062 -31.592  1.00  0.00    -0.348 N 
HETATM   22  C   UNL     1     -11.326   3.123 -32.878  1.00  0.00     0.252 C 
HETATM   23  O   UNL     1     -10.817   3.847 -33.731  1.00  0.00    -0.268 OA
HETATM   24  H   UNL     1     -11.340   2.552 -30.881  1.00  0.00     0.163 HD
BRANCH  22  25
HETATM   25  C   UNL     1     -12.520   2.292 -33.198  1.00  0.00     0.033 A 
HETATM   26  C   UNL     1     -13.756   2.694 -32.676  1.00  0.00     0.036 A 
HETATM   27  C   UNL     1     -14.898   1.937 -32.934  1.00  0.00     0.012 A 
HETATM   28 BR   UNL     1     -16.564   2.476 -32.219  1.00  0.00    -0.051 Br
HETATM   29  C   UNL     1     -14.823   0.784 -33.714  1.00  0.00     0.019 A 
HETATM   30  C   UNL     1     -13.597   0.391 -34.252  1.00  0.00     0.002 A 
HETATM   31  C   UNL     1     -12.446   1.144 -34.000  1.00  0.00     0.017 A 
ENDBRANCH  22  25
ENDBRANCH  20  21
ENDBRANCH   2  20
TORSDOF 5
ENDMDL
MODEL 5
REMARK VINA RESULT:      -8.4      4.040      5.531
REMARK  5 active torsions:
REMARK  status: ('A' for Active; 'I' for Inactive)
REMARK    1  A    between atoms: C_2  and  C_3 
REMARK    2  A    between atoms: N_12  and  N_13 
REMARK       I    between atoms: N_13  and  C_14 
REMARK    3  A    between atoms: C_14  and  C_15 
REMARK    4  A    between atoms: C_15  and  N_16 
REMARK       I    between atoms: N_16  and  C_17 
REMARK    5  A    between atoms: C_17  and  C_18 
ROOT
HETATM    1  N   UNL     1      -6.705   2.317 -31.936  1.00  0.00    -0.255 N 
HETATM    2  C   UNL     1      -6.152   1.666 -30.850  1.00  0.00     0.254 C 
HETATM    3  O   UNL     1      -6.363   0.488 -30.568  1.00  0.00    -0.270 OA
HETATM    4  H   UNL     1      -6.758   3.340 -31.916  1.00  0.00     0.191 HD
ENDROOT
BRANCH   1   5
HETATM    5  N   UNL     1      -7.685   1.658 -32.655  1.00  0.00    -0.167 N 
HETATM    6  C   UNL     1      -7.461   1.037 -33.852  1.00  0.00     0.345 A 
HETATM    7  N   UNL     1      -8.676   0.575 -34.319  1.00  0.00    -0.319 N 
HETATM    8  O   UNL     1      -6.403   0.896 -34.445  1.00  0.00    -0.245 OA
HETATM    9  C   UNL     1      -9.789   1.019 -33.494  1.00  0.00     0.141 A 
HETATM   10  H   UNL     1      -8.758   0.231 -35.266  1.00  0.00     0.166 HD
HETATM   11  C   UNL     1     -10.505  -0.184 -32.866  1.00  0.00     0.055 C 
HETATM   12  C   UNL     1      -9.023   1.738 -32.355  1.00  0.00     0.279 A 
HETATM   13  O   UNL     1      -9.529   2.262 -31.369  1.00  0.00    -0.268 OA
BRANCH   9  14
HETATM   14  C   UNL     1     -10.713   1.908 -34.321  1.00  0.00    -0.021 A 
HETATM   15  C   UNL     1     -10.306   3.208 -34.684  1.00  0.00     0.010 A 
HETATM   16  C   UNL     1     -11.139   4.050 -35.424  1.00  0.00     0.001 A 
HETATM   17  C   UNL     1     -12.403   3.617 -35.808  1.00  0.00     0.000 A 
HETATM   18  C   UNL     1     -12.835   2.345 -35.447  1.00  0.00     0.001 A 
HETATM   19  C   UNL     1     -12.003   1.501 -34.705  1.00  0.00     0.010 A 
ENDBRANCH   9  14
ENDBRANCH   1   5
BRANCH   2  20
HETATM   20  C   UNL     1      -5.213   2.550 -30.028  1.00  0.00     0.227 C 
BRANCH  20  21
HETATM   21  N   UNL     1      -4.435   3.466 -30.849  1.00  0.00    -0.348 N 
HETATM   22  C   UNL     1      -3.246   3.071 -31.424  1.00  0.00     0.252 C 
HETATM   23  O   UNL     1      -2.869   1.903 -31.392  1.00  0.00    -0.268 OA
HETATM   24  H   UNL     1      -4.667   4.447 -30.786  1.00  0.00     0.163 HD
BRANCH  22  25
HETATM   25  C   UNL     1      -2.414   4.123 -32.072  1.00  0.00     0.033 A 
HETATM   26  C   UNL     1      -1.562   4.878 -31.255  1.00  0.00     0.036 A 
HETATM   27  C   UNL     1      -0.778   5.886 -31.815  1.00  0.00     0.012 A 
HETATM   28 BR   UNL     1       0.364   6.911 -30.710  1.00  0.00    -0.051 Br
HETATM   29  C   UNL     1      -0.829   6.146 -33.184  1.00  0.00     0.019 A 
HETATM   30  C   UNL     1      -1.662   5.384 -34.003  1.00  0.00     0.002 A 
HETATM   31  C   UNL     1      -2.451   4.370 -33.451  1.00  0.00     0.017 A 
ENDBRANCH  22  25
ENDBRANCH  20  21
ENDBRANCH   2  20
TORSDOF 5
ENDMDL
MODEL 6
REMARK VINA RESULT:      -8.4      1.561      1.739
REMARK  5 active torsions:
REMARK  status: ('A' for Active; 'I' for Inactive)
REMARK    1  A    between atoms: C_2  and  C_3 
REMARK    2  A    between atoms: N_12  and  N_13 
REMARK       I    between atoms: N_13  and  C_14 
REMARK    3  A    between atoms: C_14  and  C_15 
REMARK    4  A    between atoms: C_15  and  N_16 
REMARK       I    between atoms: N_16  and  C_17 
REMARK    5  A    between atoms: C_17  and  C_18 
ROOT
HETATM    1  N   UNL     1      -5.462   3.562 -32.585  1.00  0.00    -0.255 N 
HETATM    2  C   UNL     1      -4.085   3.606 -32.687  1.00  0.00     0.254 C 
HETATM    3  O   UNL     1      -3.365   2.613 -32.771  1.00  0.00    -0.270 OA
HETATM    4  H   UNL     1      -5.948   4.372 -32.190  1.00  0.00     0.191 HD
ENDROOT
BRANCH   1   5
HETATM    5  N   UNL     1      -6.057   2.328 -32.395  1.00  0.00    -0.167 N 
HETATM    6  C   UNL     1      -5.984   1.622 -31.227  1.00  0.00     0.345 A 
HETATM    7  N   UNL     1      -6.605   0.405 -31.431  1.00  0.00    -0.319 N 
HETATM    8  O   UNL     1      -5.471   1.957 -30.171  1.00  0.00    -0.245 OA
HETATM    9  C   UNL     1      -6.986   0.207 -32.822  1.00  0.00     0.141 A 
HETATM   10  H   UNL     1      -6.519  -0.331 -30.744  1.00  0.00     0.166 HD
HETATM   11  C   UNL     1      -8.510   0.076 -32.948  1.00  0.00     0.055 C 
HETATM   12  C   UNL     1      -6.597   1.585 -33.417  1.00  0.00     0.279 A 
HETATM   13  O   UNL     1      -6.762   1.937 -34.579  1.00  0.00    -0.268 OA
BRANCH   9  14
HETATM   14  C   UNL     1      -6.227  -0.986 -33.392  1.00  0.00    -0.021 A 
HETATM   15  C   UNL     1      -6.892  -1.924 -34.208  1.00  0.00     0.010 A 
HETATM   16  C   UNL     1      -6.226  -3.036 -34.728  1.00  0.00     0.001 A 
HETATM   17  C   UNL     1      -4.883  -3.243 -34.435  1.00  0.00     0.000 A 
HETATM   18  C   UNL     1      -4.209  -2.343 -33.617  1.00  0.00     0.001 A 
HETATM   19  C   UNL     1      -4.875  -1.229 -33.094  1.00  0.00     0.010 A 
ENDBRANCH   9  14
ENDBRANCH   1   5
BRANCH   2  20
HETATM   20  C   UNL     1      -3.526   5.029 -32.716  1.00  0.00     0.227 C 
BRANCH  20  21
HETATM   21  N   UNL     1      -2.769   5.364 -31.520  1.00  0.00    -0.348 N 
HETATM   22  C   UNL     1      -1.630   6.136 -31.591  1.00  0.00     0.252 C 
HETATM   23  O   UNL     1      -1.288   6.690 -32.633  1.00  0.00    -0.268 OA
HETATM   24  H   UNL     1      -2.965   4.825 -30.688  1.00  0.00     0.163 HD
BRANCH  22  25
HETATM   25  C   UNL     1      -0.804   6.258 -30.357  1.00  0.00     0.033 A 
HETATM   26  C   UNL     1      -0.911   7.440 -29.613  1.00  0.00     0.036 A 
HETATM   27  C   UNL     1      -0.144   7.607 -28.461  1.00  0.00     0.012 A 
HETATM   28 BR   UNL     1      -0.282   9.207 -27.463  1.00  0.00    -0.051 Br
HETATM   29  C   UNL     1       0.727   6.603 -28.038  1.00  0.00     0.019 A 
HETATM   30  C   UNL     1       0.823   5.417 -28.766  1.00  0.00     0.002 A 
HETATM   31  C   UNL     1       0.056   5.240 -29.922  1.00  0.00     0.017 A 
ENDBRANCH  22  25
ENDBRANCH  20  21
ENDBRANCH   2  20
TORSDOF 5
ENDMDL
MODEL 7
REMARK VINA RESULT:      -8.4      2.830      3.710
REMARK  5 active torsions:
REMARK  status: ('A' for Active; 'I' for Inactive)
REMARK    1  A    between atoms: C_2  and  C_3 
REMARK    2  A    between atoms: N_12  and  N_13 
REMARK       I    between atoms: N_13  and  C_14 
REMARK    3  A    between atoms: C_14  and  C_15 
REMARK    4  A    between atoms: C_15  and  N_16 
REMARK       I    between atoms: N_16  and  C_17 
REMARK    5  A    between atoms: C_17  and  C_18 
ROOT
HETATM    1  N   UNL     1      -6.919   2.825 -31.674  1.00  0.00    -0.255 N 
HETATM    2  C   UNL     1      -5.952   2.648 -30.704  1.00  0.00     0.254 C 
HETATM    3  O   UNL     1      -5.282   1.625 -30.572  1.00  0.00    -0.270 OA
HETATM    4  H   UNL     1      -7.642   3.533 -31.517  1.00  0.00     0.191 HD
ENDROOT
BRANCH   1   5
HETATM    5  N   UNL     1      -7.278   1.728 -32.437  1.00  0.00    -0.167 N 
HETATM    6  C   UNL     1      -8.146   0.761 -32.014  1.00  0.00     0.345 A 
HETATM    7  N   UNL     1      -8.191  -0.218 -32.987  1.00  0.00    -0.319 N 
HETATM    8  O   UNL     1      -8.784   0.718 -30.974  1.00  0.00    -0.245 OA
HETATM    9  C   UNL     1      -7.214   0.008 -34.042  1.00  0.00     0.141 A 
HETATM   10  H   UNL     1      -8.646  -1.101 -32.800  1.00  0.00     0.166 HD
HETATM   11  C   UNL     1      -7.918   0.222 -35.389  1.00  0.00     0.055 C 
HETATM   12  C   UNL     1      -6.642   1.381 -33.604  1.00  0.00     0.279 A 
HETATM   13  O   UNL     1      -5.794   2.030 -34.205  1.00  0.00    -0.268 OA
BRANCH   9  14
HETATM   14  C   UNL     1      -6.210  -1.140 -34.061  1.00  0.00    -0.021 A 
HETATM   15  C   UNL     1      -6.477  -2.302 -34.813  1.00  0.00     0.010 A 
HETATM   16  C   UNL     1      -5.585  -3.376 -34.833  1.00  0.00     0.001 A 
HETATM   17  C   UNL     1      -4.410  -3.318 -34.093  1.00  0.00     0.000 A 
HETATM   18  C   UNL     1      -4.131  -2.190 -33.328  1.00  0.00     0.001 A 
HETATM   19  C   UNL     1      -5.025  -1.114 -33.306  1.00  0.00     0.010 A 
ENDBRANCH   9  14
ENDBRANCH   1   5
BRANCH   2  20
HETATM   20  C   UNL     1      -5.763   3.872 -29.808  1.00  0.00     0.227 C 
BRANCH  20  21
HETATM   21  N   UNL     1      -4.558   4.625 -30.124  1.00  0.00    -0.348 N 
HETATM   22  C   UNL     1      -4.533   5.525 -31.167  1.00  0.00     0.252 C 
HETATM   23  O   UNL     1      -5.554   5.837 -31.776  1.00  0.00    -0.268 OA
HETATM   24  H   UNL     1      -3.693   4.296 -29.717  1.00  0.00     0.163 HD
BRANCH  22  25
HETATM   25  C   UNL     1      -3.212   6.095 -31.552  1.00  0.00     0.033 A 
HETATM   26  C   UNL     1      -2.061   5.488 -31.033  1.00  0.00     0.036 A 
HETATM   27  C   UNL     1      -0.803   5.998 -31.351  1.00  0.00     0.012 A 
HETATM   28 BR   UNL     1       0.748   5.183 -30.642  1.00  0.00    -0.051 Br
HETATM   29  C   UNL     1      -0.680   7.107 -32.187  1.00  0.00     0.019 A 
HETATM   30  C   UNL     1      -1.823   7.703 -32.721  1.00  0.00     0.002 A 
HETATM   31  C   UNL     1      -3.088   7.197 -32.409  1.00  0.00     0.017 A 
ENDBRANCH  22  25
ENDBRANCH  20  21
ENDBRANCH   2  20
TORSDOF 5
ENDMDL
MODEL 8
REMARK VINA RESULT:      -8.3      1.966      2.425
REMARK  5 active torsions:
REMARK  status: ('A' for Active; 'I' for Inactive)
REMARK    1  A    between atoms: C_2  and  C_3 
REMARK    2  A    between atoms: N_12  and  N_13 
REMARK       I    between atoms: N_13  and  C_14 
REMARK    3  A    between atoms: C_14  and  C_15 
REMARK    4  A    between atoms: C_15  and  N_16 
REMARK       I    between atoms: N_16  and  C_17 
REMARK    5  A    between atoms: C_17  and  C_18 
ROOT
HETATM    1  N   UNL     1      -4.722   4.693 -31.066  1.00  0.00    -0.255 N 
HETATM    2  C   UNL     1      -4.695   5.371 -32.270  1.00  0.00     0.254 C 
HETATM    3  O   UNL     1      -4.907   4.850 -33.363  1.00  0.00    -0.270 OA
HETATM    4  H   UNL     1      -4.221   5.096 -30.269  1.00  0.00     0.191 HD
ENDROOT
BRANCH   1   5
HETATM    5  N   UNL     1      -4.827   3.315 -31.103  1.00  0.00    -0.167 N 
HETATM    6  C   UNL     1      -3.764   2.478 -31.301  1.00  0.00     0.345 A 
HETATM    7  N   UNL     1      -4.252   1.189 -31.374  1.00  0.00    -0.319 N 
HETATM    8  O   UNL     1      -2.582   2.768 -31.407  1.00  0.00    -0.245 OA
HETATM    9  C   UNL     1      -5.707   1.149 -31.374  1.00  0.00     0.141 A 
HETATM   10  H   UNL     1      -3.652   0.435 -31.679  1.00  0.00     0.166 HD
HETATM   11  C   UNL     1      -6.224   0.397 -30.141  1.00  0.00     0.055 C 
HETATM   12  C   UNL     1      -6.027   2.651 -31.161  1.00  0.00     0.279 A 
HETATM   13  O   UNL     1      -7.147   3.137 -31.050  1.00  0.00    -0.268 OA
BRANCH   9  14
HETATM   14  C   UNL     1      -6.199   0.559 -32.692  1.00  0.00    -0.021 A 
HETATM   15  C   UNL     1      -6.324  -0.838 -32.840  1.00  0.00     0.010 A 
HETATM   16  C   UNL     1      -6.753  -1.406 -34.041  1.00  0.00     0.001 A 
HETATM   17  C   UNL     1      -7.058  -0.592 -35.126  1.00  0.00     0.000 A 
HETATM   18  C   UNL     1      -6.925   0.788 -35.012  1.00  0.00     0.001 A 
HETATM   19  C   UNL     1      -6.493   1.358 -33.810  1.00  0.00     0.010 A 
ENDBRANCH   9  14
ENDBRANCH   1   5
BRANCH   2  20
HETATM   20  C   UNL     1      -4.400   6.864 -32.117  1.00  0.00     0.227 C 
BRANCH  20  21
HETATM   21  N   UNL     1      -3.455   7.147 -31.047  1.00  0.00    -0.348 N 
HETATM   22  C   UNL     1      -2.351   7.943 -31.265  1.00  0.00     0.252 C 
HETATM   23  O   UNL     1      -2.195   8.559 -32.316  1.00  0.00    -0.268 OA
HETATM   24  H   UNL     1      -3.504   6.561 -30.226  1.00  0.00     0.163 HD
BRANCH  22  25
HETATM   25  C   UNL     1      -1.330   8.013 -30.182  1.00  0.00     0.033 A 
HETATM   26  C   UNL     1      -1.540   8.930 -29.144  1.00  0.00     0.036 A 
HETATM   27  C   UNL     1      -0.602   9.044 -28.119  1.00  0.00     0.012 A 
HETATM   28 BR   UNL     1      -0.882  10.290 -26.724  1.00  0.00    -0.051 Br
HETATM   29  C   UNL     1       0.542   8.248 -28.113  1.00  0.00     0.019 A 
HETATM   30  C   UNL     1       0.745   7.320 -29.135  1.00  0.00     0.002 A 
HETATM   31  C   UNL     1      -0.191   7.197 -30.167  1.00  0.00     0.017 A 
ENDBRANCH  22  25
ENDBRANCH  20  21
ENDBRANCH   2  20
TORSDOF 5
ENDMDL
MODEL 9
REMARK VINA RESULT:      -8.3      3.249      9.241
REMARK  5 active torsions:
REMARK  status: ('A' for Active; 'I' for Inactive)
REMARK    1  A    between atoms: C_2  and  C_3 
REMARK    2  A    between atoms: N_12  and  N_13 
REMARK       I    between atoms: N_13  and  C_14 
REMARK    3  A    between atoms: C_14  and  C_15 
REMARK    4  A    between atoms: C_15  and  N_16 
REMARK       I    between atoms: N_16  and  C_17 
REMARK    5  A    between atoms: C_17  and  C_18 
ROOT
HETATM    1  N   UNL     1      -4.937   5.633 -33.114  1.00  0.00    -0.255 N 
HETATM    2  C   UNL     1      -4.954   4.294 -32.774  1.00  0.00     0.254 C 
HETATM    3  O   UNL     1      -4.073   3.734 -32.125  1.00  0.00    -0.270 OA
HETATM    4  H   UNL     1      -5.502   5.940 -33.911  1.00  0.00     0.191 HD
ENDROOT
BRANCH   1   5
HETATM    5  N   UNL     1      -3.783   6.350 -32.857  1.00  0.00    -0.167 N 
HETATM    6  C   UNL     1      -2.709   6.389 -33.702  1.00  0.00     0.345 A 
HETATM    7  N   UNL     1      -1.712   7.116 -33.082  1.00  0.00    -0.319 N 
HETATM    8  O   UNL     1      -2.598   5.884 -34.808  1.00  0.00    -0.245 OA
HETATM    9  C   UNL     1      -2.054   7.463 -31.711  1.00  0.00     0.141 A 
HETATM   10  H   UNL     1      -0.777   7.127 -33.466  1.00  0.00     0.166 HD
HETATM   11  C   UNL     1      -2.133   8.987 -31.546  1.00  0.00     0.055 C 
HETATM   12  C   UNL     1      -3.505   6.922 -31.640  1.00  0.00     0.279 A 
HETATM   13  O   UNL     1      -4.257   7.009 -30.675  1.00  0.00    -0.268 OA
BRANCH   9  14
HETATM   14  C   UNL     1      -1.065   6.802 -30.756  1.00  0.00    -0.021 A 
HETATM   15  C   UNL     1      -0.621   5.486 -30.996  1.00  0.00     0.010 A 
HETATM   16  C   UNL     1       0.270   4.850 -30.129  1.00  0.00     0.001 A 
HETATM   17  C   UNL     1       0.729   5.511 -28.995  1.00  0.00     0.000 A 
HETATM   18  C   UNL     1       0.292   6.803 -28.726  1.00  0.00     0.001 A 
HETATM   19  C   UNL     1      -0.601   7.442 -29.593  1.00  0.00     0.010 A 
ENDBRANCH   9  14
ENDBRANCH   1   5
BRANCH   2  20
HETATM   20  C   UNL     1      -6.205   3.562 -33.263  1.00  0.00     0.227 C 
BRANCH  20  21
HETATM   21  N   UNL     1      -5.926   2.210 -33.722  1.00  0.00    -0.348 N 
HETATM   22  C   UNL     1      -6.484   1.116 -33.097  1.00  0.00     0.252 C 
HETATM   23  O   UNL     1      -7.346   1.237 -32.229  1.00  0.00    -0.268 OA
HETATM   24  H   UNL     1      -5.139   2.091 -34.345  1.00  0.00     0.163 HD
BRANCH  22  25
HETATM   25  C   UNL     1      -5.987  -0.230 -33.494  1.00  0.00     0.033 A 
HETATM   26  C   UNL     1      -4.970  -0.807 -32.722  1.00  0.00     0.036 A 
HETATM   27  C   UNL     1      -4.461  -2.058 -33.067  1.00  0.00     0.012 A 
HETATM   28 BR   UNL     1      -3.082  -2.829 -32.029  1.00  0.00    -0.051 Br
HETATM   29  C   UNL     1      -4.960  -2.746 -34.172  1.00  0.00     0.019 A 
HETATM   30  C   UNL     1      -5.985  -2.183 -34.933  1.00  0.00     0.002 A 
HETATM   31  C   UNL     1      -6.504  -0.930 -34.594  1.00  0.00     0.017 A 
ENDBRANCH  22  25
ENDBRANCH  20  21
ENDBRANCH   2  20
TORSDOF 5
ENDMDL
MODEL 10
REMARK VINA RESULT:      -8.1      1.994      2.670
REMARK  5 active torsions:
REMARK  status: ('A' for Active; 'I' for Inactive)
REMARK    1  A    between atoms: C_2  and  C_3 
REMARK    2  A    between atoms: N_12  and  N_13 
REMARK       I    between atoms: N_13  and  C_14 
REMARK    3  A    between atoms: C_14  and  C_15 
REMARK    4  A    between atoms: C_15  and  N_16 
REMARK       I    between atoms: N_16  and  C_17 
REMARK    5  A    between atoms: C_17  and  C_18 
ROOT
HETATM    1  N   UNL     1      -5.396   4.304 -32.914  1.00  0.00    -0.255 N 
HETATM    2  C   UNL     1      -4.040   4.453 -33.129  1.00  0.00     0.254 C 
HETATM    3  O   UNL     1      -3.225   3.534 -33.075  1.00  0.00    -0.270 OA
HETATM    4  H   UNL     1      -5.940   5.129 -32.647  1.00  0.00     0.191 HD
ENDROOT
BRANCH   1   5
HETATM    5  N   UNL     1      -5.846   3.084 -32.444  1.00  0.00    -0.167 N 
HETATM    6  C   UNL     1      -5.619   2.629 -31.175  1.00  0.00     0.345 A 
HETATM    7  N   UNL     1      -6.124   1.347 -31.091  1.00  0.00    -0.319 N 
HETATM    8  O   UNL     1      -5.069   3.208 -30.250  1.00  0.00    -0.245 OA
HETATM    9  C   UNL     1      -6.580   0.848 -32.380  1.00  0.00     0.141 A 
HETATM   10  H   UNL     1      -5.915   0.769 -30.288  1.00  0.00     0.166 HD
HETATM   11  C   UNL     1      -8.087   0.562 -32.343  1.00  0.00     0.055 C 
HETATM   12  C   UNL     1      -6.377   2.112 -33.255  1.00  0.00     0.279 A 
HETATM   13  O   UNL     1      -6.659   2.214 -34.444  1.00  0.00    -0.268 OA
BRANCH   9  14
HETATM   14  C   UNL     1      -5.744  -0.363 -32.782  1.00  0.00    -0.021 A 
HETATM   15  C   UNL     1      -4.600  -0.713 -32.036  1.00  0.00     0.010 A 
HETATM   16  C   UNL     1      -3.806  -1.805 -32.393  1.00  0.00     0.001 A 
HETATM   17  C   UNL     1      -4.131  -2.567 -33.509  1.00  0.00     0.000 A 
HETATM   18  C   UNL     1      -5.244  -2.232 -34.272  1.00  0.00     0.001 A 
HETATM   19  C   UNL     1      -6.040  -1.137 -33.917  1.00  0.00     0.010 A 
ENDBRANCH   9  14
ENDBRANCH   1   5
BRANCH   2  20
HETATM   20  C   UNL     1      -3.636   5.887 -33.476  1.00  0.00     0.227 C 
BRANCH  20  21
HETATM   21  N   UNL     1      -3.328   6.688 -32.301  1.00  0.00    -0.348 N 
HETATM   22  C   UNL     1      -2.278   7.579 -32.302  1.00  0.00     0.252 C 
HETATM   23  O   UNL     1      -1.653   7.841 -33.327  1.00  0.00    -0.268 OA
HETATM   24  H   UNL     1      -3.749   6.401 -31.428  1.00  0.00     0.163 HD
BRANCH  22  25
HETATM   25  C   UNL     1      -1.904   8.203 -31.002  1.00  0.00     0.033 A 
HETATM   26  C   UNL     1      -0.958   7.544 -30.208  1.00  0.00     0.036 A 
HETATM   27  C   UNL     1      -0.591   8.081 -28.974  1.00  0.00     0.012 A 
HETATM   28 BR   UNL     1       0.679   7.184 -27.899  1.00  0.00    -0.051 Br
HETATM   29  C   UNL     1      -1.154   9.274 -28.526  1.00  0.00     0.019 A 
HETATM   30  C   UNL     1      -2.083   9.944 -29.323  1.00  0.00     0.002 A 
HETATM   31  C   UNL     1      -2.456   9.414 -30.562  1.00  0.00     0.017 A 
ENDBRANCH  22  25
ENDBRANCH  20  21
ENDBRANCH   2  20
TORSDOF 5
ENDMDL
