MODEL 1
REMARK VINA RESULT:      -8.6      0.000      0.000
REMARK  4 active torsions:
REMARK  status: ('A' for Active; 'I' for Inactive)
REMARK    1  A    between atoms: C_5  and  N_6 
REMARK       I    between atoms: N_6  and  C_7 
REMARK       I    between atoms: C_7  and  N_8 
REMARK    2  A    between atoms: N_8  and  C_9 
REMARK    3  A    between atoms: C_9  and  C_10 
REMARK    4  A    between atoms: C_13  and  C_14 
ROOT
HETATM    1  N   UNL     1      -4.326   4.941 -32.959  1.00  0.00    -0.309 N 
HETATM    2  C   UNL     1      -4.827   4.821 -34.223  1.00  0.00     0.321 C 
HETATM    3  N   UNL     1      -6.024   4.170 -34.334  1.00  0.00    -0.335 N 
HETATM    4  O   UNL     1      -4.313   5.228 -35.260  1.00  0.00    -0.247 OA
HETATM    5  H   UNL     1      -4.992   4.810 -32.207  1.00  0.00     0.170 HD
HETATM    6  H   UNL     1      -6.307   4.090 -35.302  1.00  0.00     0.164 HD
ENDROOT
BRANCH   3   7
HETATM    7  C   UNL     1      -6.669   3.292 -33.371  1.00  0.00     0.213 C 
BRANCH   7   8
HETATM    8  C   UNL     1      -6.041   1.947 -33.364  1.00  0.00     0.190 A 
HETATM    9  O   UNL     1      -4.858   1.804 -32.706  1.00  0.00    -0.194 OA
HETATM   10  N   UNL     1      -4.498   0.462 -32.831  1.00  0.00    -0.106 NA
HETATM   11  C   UNL     1      -5.490  -0.072 -33.564  1.00  0.00     0.189 A 
HETATM   12  N   UNL     1      -6.487   0.826 -33.888  1.00  0.00    -0.202 NA
BRANCH  11  13
HETATM   13  C   UNL     1      -5.546  -1.468 -33.983  1.00  0.00     0.014 A 
HETATM   14  C   UNL     1      -4.403  -2.279 -33.960  1.00  0.00     0.015 A 
HETATM   15  C   UNL     1      -4.476  -3.618 -34.354  1.00  0.00     0.001 A 
HETATM   16  C   UNL     1      -5.689  -4.158 -34.779  1.00  0.00     0.000 A 
HETATM   17  C   UNL     1      -6.831  -3.361 -34.814  1.00  0.00     0.001 A 
HETATM   18  C   UNL     1      -6.759  -2.023 -34.419  1.00  0.00     0.015 A 
ENDBRANCH  11  13
ENDBRANCH   7   8
ENDBRANCH   3   7
BRANCH   1  19
HETATM   19  C   UNL     1      -3.097   5.505 -32.561  1.00  0.00     0.036 A 
HETATM   20  C   UNL     1      -2.830   6.874 -32.547  1.00  0.00     0.030 A 
HETATM   21  C   UNL     1      -1.587   7.348 -32.112  1.00  0.00     0.009 A 
HETATM   22  C   UNL     1      -0.585   6.462 -31.705  1.00  0.00    -0.062 A 
HETATM   23  C   UNL     1       0.729   6.972 -31.195  1.00  0.00     0.048 C 
HETATM   24  C   UNL     1      -0.850   5.090 -31.724  1.00  0.00     0.009 A 
HETATM   25  C   UNL     1      -2.092   4.617 -32.156  1.00  0.00     0.030 A 
ENDBRANCH   1  19
TORSDOF 4
ENDMDL
MODEL 2
REMARK VINA RESULT:      -8.6      3.046      4.197
REMARK  4 active torsions:
REMARK  status: ('A' for Active; 'I' for Inactive)
REMARK    1  A    between atoms: C_5  and  N_6 
REMARK       I    between atoms: N_6  and  C_7 
REMARK       I    between atoms: C_7  and  N_8 
REMARK    2  A    between atoms: N_8  and  C_9 
REMARK    3  A    between atoms: C_9  and  C_10 
REMARK    4  A    between atoms: C_13  and  C_14 
ROOT
HETATM    1  N   UNL     1      -1.044   5.880 -29.908  1.00  0.00    -0.309 N 
HETATM    2  C   UNL     1      -0.571   5.152 -30.962  1.00  0.00     0.321 C 
HETATM    3  N   UNL     1      -1.516   4.598 -31.780  1.00  0.00    -0.335 N 
HETATM    4  O   UNL     1       0.605   4.941 -31.241  1.00  0.00    -0.247 OA
HETATM    5  H   UNL     1      -2.006   6.189 -29.984  1.00  0.00     0.170 HD
HETATM    6  H   UNL     1      -1.087   4.046 -32.511  1.00  0.00     0.164 HD
ENDROOT
BRANCH   3   7
HETATM    7  C   UNL     1      -2.927   4.375 -31.512  1.00  0.00     0.213 C 
BRANCH   7   8
HETATM    8  C   UNL     1      -3.295   2.952 -31.716  1.00  0.00     0.190 A 
HETATM    9  O   UNL     1      -2.617   2.013 -31.000  1.00  0.00    -0.194 OA
HETATM   10  N   UNL     1      -3.161   0.779 -31.355  1.00  0.00    -0.106 NA
HETATM   11  C   UNL     1      -4.103   1.089 -32.262  1.00  0.00     0.189 A 
HETATM   12  N   UNL     1      -4.232   2.445 -32.487  1.00  0.00    -0.202 NA
BRANCH  11  13
HETATM   13  C   UNL     1      -4.938   0.112 -32.951  1.00  0.00     0.014 A 
HETATM   14  C   UNL     1      -4.377  -1.014 -33.571  1.00  0.00     0.015 A 
HETATM   15  C   UNL     1      -5.193  -1.947 -34.217  1.00  0.00     0.001 A 
HETATM   16  C   UNL     1      -6.574  -1.763 -34.255  1.00  0.00     0.000 A 
HETATM   17  C   UNL     1      -7.144  -0.645 -33.650  1.00  0.00     0.001 A 
HETATM   18  C   UNL     1      -6.330   0.288 -33.002  1.00  0.00     0.015 A 
ENDBRANCH  11  13
ENDBRANCH   7   8
ENDBRANCH   3   7
BRANCH   1  19
HETATM   19  C   UNL     1      -0.307   6.505 -28.883  1.00  0.00     0.036 A 
HETATM   20  C   UNL     1      -0.317   6.098 -27.549  1.00  0.00     0.030 A 
HETATM   21  C   UNL     1       0.468   6.763 -26.600  1.00  0.00     0.009 A 
HETATM   22  C   UNL     1       1.258   7.859 -26.964  1.00  0.00    -0.062 A 
HETATM   23  C   UNL     1       2.134   8.540 -25.957  1.00  0.00     0.048 C 
HETATM   24  C   UNL     1       1.264   8.271 -28.300  1.00  0.00     0.009 A 
HETATM   25  C   UNL     1       0.483   7.604 -29.247  1.00  0.00     0.030 A 
ENDBRANCH   1  19
TORSDOF 4
ENDMDL
MODEL 3
REMARK VINA RESULT:      -8.6      2.313      3.118
REMARK  4 active torsions:
REMARK  status: ('A' for Active; 'I' for Inactive)
REMARK    1  A    between atoms: C_5  and  N_6 
REMARK       I    between atoms: N_6  and  C_7 
REMARK       I    between atoms: C_7  and  N_8 
REMARK    2  A    between atoms: N_8  and  C_9 
REMARK    3  A    between atoms: C_9  and  C_10 
REMARK    4  A    between atoms: C_13  and  C_14 
ROOT
HETATM    1  N   UNL     1      -1.968   5.272 -30.499  1.00  0.00    -0.309 N 
HETATM    2  C   UNL     1      -1.795   4.732 -31.741  1.00  0.00     0.321 C 
HETATM    3  N   UNL     1      -2.728   3.811 -32.129  1.00  0.00    -0.335 N 
HETATM    4  O   UNL     1      -0.891   4.982 -32.532  1.00  0.00    -0.247 OA
HETATM    5  H   UNL     1      -2.896   5.176 -30.103  1.00  0.00     0.170 HD
HETATM    6  H   UNL     1      -2.509   3.433 -33.041  1.00  0.00     0.164 HD
ENDROOT
BRANCH   3   7
HETATM    7  C   UNL     1      -3.667   3.069 -31.303  1.00  0.00     0.213 C 
BRANCH   7   8
HETATM    8  C   UNL     1      -3.747   1.648 -31.724  1.00  0.00     0.190 A 
HETATM    9  O   UNL     1      -2.840   0.780 -31.198  1.00  0.00    -0.194 OA
HETATM   10  N   UNL     1      -3.141  -0.474 -31.730  1.00  0.00    -0.106 NA
HETATM   11  C   UNL     1      -4.190  -0.239 -32.537  1.00  0.00     0.189 A 
HETATM   12  N   UNL     1      -4.612   1.075 -32.531  1.00  0.00    -0.202 NA
BRANCH  11  13
HETATM   13  C   UNL     1      -4.853  -1.257 -33.345  1.00  0.00     0.014 A 
HETATM   14  C   UNL     1      -6.153  -1.061 -33.833  1.00  0.00     0.015 A 
HETATM   15  C   UNL     1      -6.771  -2.041 -34.616  1.00  0.00     0.001 A 
HETATM   16  C   UNL     1      -6.099  -3.226 -34.913  1.00  0.00     0.000 A 
HETATM   17  C   UNL     1      -4.810  -3.436 -34.428  1.00  0.00     0.001 A 
HETATM   18  C   UNL     1      -4.192  -2.457 -33.647  1.00  0.00     0.015 A 
ENDBRANCH  11  13
ENDBRANCH   7   8
ENDBRANCH   3   7
BRANCH   1  19
HETATM   19  C   UNL     1      -1.136   6.188 -29.826  1.00  0.00     0.036 A 
HETATM   20  C   UNL     1      -1.402   7.552 -29.710  1.00  0.00     0.030 A 
HETATM   21  C   UNL     1      -0.531   8.386 -29.000  1.00  0.00     0.009 A 
HETATM   22  C   UNL     1       0.632   7.875 -28.414  1.00  0.00    -0.062 A 
HETATM   23  C   UNL     1       1.540   8.759 -27.614  1.00  0.00     0.048 C 
HETATM   24  C   UNL     1       0.902   6.509 -28.535  1.00  0.00     0.009 A 
HETATM   25  C   UNL     1       0.030   5.676 -29.241  1.00  0.00     0.030 A 
ENDBRANCH   1  19
TORSDOF 4
ENDMDL
MODEL 4
REMARK VINA RESULT:      -8.5      4.186      7.476
REMARK  4 active torsions:
REMARK  status: ('A' for Active; 'I' for Inactive)
REMARK    1  A    between atoms: C_5  and  N_6 
REMARK       I    between atoms: N_6  and  C_7 
REMARK       I    between atoms: C_7  and  N_8 
REMARK    2  A    between atoms: N_8  and  C_9 
REMARK    3  A    between atoms: C_9  and  C_10 
REMARK    4  A    between atoms: C_13  and  C_14 
ROOT
HETATM    1  N   UNL     1      -9.569   2.322 -33.360  1.00  0.00    -0.309 N 
HETATM    2  C   UNL     1      -8.879   2.391 -32.183  1.00  0.00     0.321 C 
HETATM    3  N   UNL     1      -7.540   2.648 -32.287  1.00  0.00    -0.335 N 
HETATM    4  O   UNL     1      -9.334   2.239 -31.053  1.00  0.00    -0.247 OA
HETATM    5  H   UNL     1      -9.115   2.745 -34.161  1.00  0.00     0.170 HD
HETATM    6  H   UNL     1      -7.097   2.645 -31.378  1.00  0.00     0.164 HD
ENDROOT
BRANCH   3   7
HETATM    7  C   UNL     1      -6.681   2.518 -33.453  1.00  0.00     0.213 C 
BRANCH   7   8
HETATM    8  C   UNL     1      -6.728   1.141 -34.004  1.00  0.00     0.190 A 
HETATM    9  O   UNL     1      -7.630   0.883 -34.991  1.00  0.00    -0.194 OA
HETATM   10  N   UNL     1      -7.457  -0.456 -35.342  1.00  0.00    -0.106 NA
HETATM   11  C   UNL     1      -6.479  -0.881 -34.524  1.00  0.00     0.189 A 
HETATM   12  N   UNL     1      -5.981   0.103 -33.695  1.00  0.00    -0.202 NA
BRANCH  11  13
HETATM   13  C   UNL     1      -5.960  -2.244 -34.499  1.00  0.00     0.014 A 
HETATM   14  C   UNL     1      -6.762  -3.334 -34.866  1.00  0.00     0.015 A 
HETATM   15  C   UNL     1      -6.246  -4.632 -34.848  1.00  0.00     0.001 A 
HETATM   16  C   UNL     1      -4.926  -4.856 -34.457  1.00  0.00     0.000 A 
HETATM   17  C   UNL     1      -4.120  -3.783 -34.081  1.00  0.00     0.001 A 
HETATM   18  C   UNL     1      -4.635  -2.485 -34.101  1.00  0.00     0.015 A 
ENDBRANCH  11  13
ENDBRANCH   7   8
ENDBRANCH   3   7
BRANCH   1  19
HETATM   19  C   UNL     1     -10.930   2.015 -33.552  1.00  0.00     0.036 A 
HETATM   20  C   UNL     1     -11.923   2.965 -33.791  1.00  0.00     0.030 A 
HETATM   21  C   UNL     1     -13.249   2.567 -33.996  1.00  0.00     0.009 A 
HETATM   22  C   UNL     1     -13.608   1.216 -33.945  1.00  0.00    -0.062 A 
HETATM   23  C   UNL     1     -15.019   0.787 -34.211  1.00  0.00     0.048 C 
HETATM   24  C   UNL     1     -12.614   0.264 -33.700  1.00  0.00     0.009 A 
HETATM   25  C   UNL     1     -11.290   0.662 -33.498  1.00  0.00     0.030 A 
ENDBRANCH   1  19
TORSDOF 4
ENDMDL
MODEL 5
REMARK VINA RESULT:      -8.5      1.067      8.244
REMARK  4 active torsions:
REMARK  status: ('A' for Active; 'I' for Inactive)
REMARK    1  A    between atoms: C_5  and  N_6 
REMARK       I    between atoms: N_6  and  C_7 
REMARK       I    between atoms: C_7  and  N_8 
REMARK    2  A    between atoms: N_8  and  C_9 
REMARK    3  A    between atoms: C_9  and  C_10 
REMARK    4  A    between atoms: C_13  and  C_14 
ROOT
HETATM    1  N   UNL     1      -6.264   0.685 -33.888  1.00  0.00    -0.309 N 
HETATM    2  C   UNL     1      -6.364   1.374 -32.713  1.00  0.00     0.321 C 
HETATM    3  N   UNL     1      -6.624   2.712 -32.823  1.00  0.00    -0.335 N 
HETATM    4  O   UNL     1      -6.238   0.919 -31.580  1.00  0.00    -0.247 OA
HETATM    5  H   UNL     1      -6.668   1.138 -34.699  1.00  0.00     0.170 HD
HETATM    6  H   UNL     1      -6.645   3.155 -31.914  1.00  0.00     0.164 HD
ENDROOT
BRANCH   3   7
HETATM    7  C   UNL     1      -6.469   3.572 -33.985  1.00  0.00     0.213 C 
BRANCH   7   8
HETATM    8  C   UNL     1      -5.184   4.313 -33.937  1.00  0.00     0.190 A 
HETATM    9  O   UNL     1      -4.800   4.989 -35.055  1.00  0.00    -0.194 OA
HETATM   10  N   UNL     1      -3.589   5.607 -34.745  1.00  0.00    -0.106 NA
HETATM   11  C   UNL     1      -3.350   5.233 -33.476  1.00  0.00     0.189 A 
HETATM   12  N   UNL     1      -4.346   4.446 -32.932  1.00  0.00    -0.202 NA
BRANCH  11  13
HETATM   13  C   UNL     1      -2.168   5.615 -32.712  1.00  0.00     0.014 A 
HETATM   14  C   UNL     1      -1.478   6.803 -32.989  1.00  0.00     0.015 A 
HETATM   15  C   UNL     1      -0.353   7.161 -32.240  1.00  0.00     0.001 A 
HETATM   16  C   UNL     1       0.095   6.334 -31.211  1.00  0.00     0.000 A 
HETATM   17  C   UNL     1      -0.577   5.146 -30.930  1.00  0.00     0.001 A 
HETATM   18  C   UNL     1      -1.702   4.789 -31.677  1.00  0.00     0.015 A 
ENDBRANCH  11  13
ENDBRANCH   7   8
ENDBRANCH   3   7
BRANCH   1  19
HETATM   19  C   UNL     1      -5.946  -0.675 -34.073  1.00  0.00     0.036 A 
HETATM   20  C   UNL     1      -4.697  -1.233 -33.802  1.00  0.00     0.030 A 
HETATM   21  C   UNL     1      -4.477  -2.602 -33.992  1.00  0.00     0.009 A 
HETATM   22  C   UNL     1      -5.494  -3.431 -34.476  1.00  0.00    -0.062 A 
HETATM   23  C   UNL     1      -5.272  -4.905 -34.635  1.00  0.00     0.048 C 
HETATM   24  C   UNL     1      -6.744  -2.871 -34.754  1.00  0.00     0.009 A 
HETATM   25  C   UNL     1      -6.964  -1.505 -34.561  1.00  0.00     0.030 A 
ENDBRANCH   1  19
TORSDOF 4
ENDMDL
MODEL 6
REMARK VINA RESULT:      -8.4      3.485      5.983
REMARK  4 active torsions:
REMARK  status: ('A' for Active; 'I' for Inactive)
REMARK    1  A    between atoms: C_5  and  N_6 
REMARK       I    between atoms: N_6  and  C_7 
REMARK       I    between atoms: C_7  and  N_8 
REMARK    2  A    between atoms: N_8  and  C_9 
REMARK    3  A    between atoms: C_9  and  C_10 
REMARK    4  A    between atoms: C_13  and  C_14 
ROOT
HETATM    1  N   UNL     1      -6.362   1.972 -32.143  1.00  0.00    -0.309 N 
HETATM    2  C   UNL     1      -5.826   2.176 -30.903  1.00  0.00     0.321 C 
HETATM    3  N   UNL     1      -4.470   2.342 -30.857  1.00  0.00    -0.335 N 
HETATM    4  O   UNL     1      -6.433   2.216 -29.837  1.00  0.00    -0.247 OA
HETATM    5  H   UNL     1      -5.779   2.247 -32.925  1.00  0.00     0.170 HD
HETATM    6  H   UNL     1      -4.149   2.449 -29.903  1.00  0.00     0.164 HD
ENDROOT
BRANCH   3   7
HETATM    7  C   UNL     1      -3.480   1.995 -31.863  1.00  0.00     0.213 C 
BRANCH   7   8
HETATM    8  C   UNL     1      -3.490   0.539 -32.147  1.00  0.00     0.190 A 
HETATM    9  O   UNL     1      -2.569  -0.237 -31.512  1.00  0.00    -0.194 OA
HETATM   10  N   UNL     1      -2.802  -1.547 -31.931  1.00  0.00    -0.106 NA
HETATM   11  C   UNL     1      -3.830  -1.435 -32.789  1.00  0.00     0.189 A 
HETATM   12  N   UNL     1      -4.303  -0.145 -32.923  1.00  0.00    -0.202 NA
BRANCH  11  13
HETATM   13  C   UNL     1      -4.424  -2.551 -33.516  1.00  0.00     0.014 A 
HETATM   14  C   UNL     1      -3.831  -3.821 -33.505  1.00  0.00     0.015 A 
HETATM   15  C   UNL     1      -4.419  -4.884 -34.197  1.00  0.00     0.001 A 
HETATM   16  C   UNL     1      -5.601  -4.686 -34.910  1.00  0.00     0.000 A 
HETATM   17  C   UNL     1      -6.196  -3.427 -34.936  1.00  0.00     0.001 A 
HETATM   18  C   UNL     1      -5.611  -2.365 -34.243  1.00  0.00     0.015 A 
ENDBRANCH  11  13
ENDBRANCH   7   8
ENDBRANCH   3   7
BRANCH   1  19
HETATM   19  C   UNL     1      -7.707   1.714 -32.476  1.00  0.00     0.036 A 
HETATM   20  C   UNL     1      -8.667   2.704 -32.688  1.00  0.00     0.030 A 
HETATM   21  C   UNL     1      -9.975   2.356 -33.041  1.00  0.00     0.009 A 
HETATM   22  C   UNL     1     -10.351   1.015 -33.168  1.00  0.00    -0.062 A 
HETATM   23  C   UNL     1     -11.740   0.644 -33.593  1.00  0.00     0.048 C 
HETATM   24  C   UNL     1      -9.391   0.023 -32.951  1.00  0.00     0.009 A 
HETATM   25  C   UNL     1      -8.084   0.370 -32.601  1.00  0.00     0.030 A 
ENDBRANCH   1  19
TORSDOF 4
ENDMDL
MODEL 7
REMARK VINA RESULT:      -8.3      2.073      9.103
REMARK  4 active torsions:
REMARK  status: ('A' for Active; 'I' for Inactive)
REMARK    1  A    between atoms: C_5  and  N_6 
REMARK       I    between atoms: N_6  and  C_7 
REMARK       I    between atoms: C_7  and  N_8 
REMARK    2  A    between atoms: N_8  and  C_9 
REMARK    3  A    between atoms: C_9  and  C_10 
REMARK    4  A    between atoms: C_13  and  C_14 
ROOT
HETATM    1  N   UNL     1      -5.290   0.790 -33.116  1.00  0.00    -0.309 N 
HETATM    2  C   UNL     1      -5.184   1.168 -31.808  1.00  0.00     0.321 C 
HETATM    3  N   UNL     1      -4.946   2.496 -31.586  1.00  0.00    -0.335 N 
HETATM    4  O   UNL     1      -5.274   0.442 -30.823  1.00  0.00    -0.247 OA
HETATM    5  H   UNL     1      -5.474   1.536 -33.776  1.00  0.00     0.170 HD
HETATM    6  H   UNL     1      -4.844   2.687 -30.597  1.00  0.00     0.164 HD
ENDROOT
BRANCH   3   7
HETATM    7  C   UNL     1      -4.448   3.495 -32.517  1.00  0.00     0.213 C 
BRANCH   7   8
HETATM    8  C   UNL     1      -3.257   4.193 -31.971  1.00  0.00     0.190 A 
HETATM    9  O   UNL     1      -2.031   3.782 -32.397  1.00  0.00    -0.194 OA
HETATM   10  N   UNL     1      -1.099   4.600 -31.760  1.00  0.00    -0.106 NA
HETATM   11  C   UNL     1      -1.850   5.416 -31.001  1.00  0.00     0.189 A 
HETATM   12  N   UNL     1      -3.207   5.206 -31.134  1.00  0.00    -0.202 NA
BRANCH  11  13
HETATM   13  C   UNL     1      -1.314   6.447 -30.118  1.00  0.00     0.014 A 
HETATM   14  C   UNL     1       0.068   6.604 -29.941  1.00  0.00     0.015 A 
HETATM   15  C   UNL     1       0.565   7.604 -29.101  1.00  0.00     0.001 A 
HETATM   16  C   UNL     1      -0.312   8.453 -28.426  1.00  0.00     0.000 A 
HETATM   17  C   UNL     1      -1.687   8.302 -28.588  1.00  0.00     0.001 A 
HETATM   18  C   UNL     1      -2.185   7.304 -29.428  1.00  0.00     0.015 A 
ENDBRANCH  11  13
ENDBRANCH   7   8
ENDBRANCH   3   7
BRANCH   1  19
HETATM   19  C   UNL     1      -5.471  -0.508 -33.633  1.00  0.00     0.036 A 
HETATM   20  C   UNL     1      -4.462  -1.468 -33.716  1.00  0.00     0.030 A 
HETATM   21  C   UNL     1      -4.738  -2.743 -34.222  1.00  0.00     0.009 A 
HETATM   22  C   UNL     1      -6.020  -3.073 -34.672  1.00  0.00    -0.062 A 
HETATM   23  C   UNL     1      -6.326  -4.454 -35.170  1.00  0.00     0.048 C 
HETATM   24  C   UNL     1      -7.030  -2.111 -34.595  1.00  0.00     0.009 A 
HETATM   25  C   UNL     1      -6.755  -0.838 -34.087  1.00  0.00     0.030 A 
ENDBRANCH   1  19
TORSDOF 4
ENDMDL
MODEL 8
REMARK VINA RESULT:      -8.1      1.471      2.146
REMARK  4 active torsions:
REMARK  status: ('A' for Active; 'I' for Inactive)
REMARK    1  A    between atoms: C_5  and  N_6 
REMARK       I    between atoms: N_6  and  C_7 
REMARK       I    between atoms: C_7  and  N_8 
REMARK    2  A    between atoms: N_8  and  C_9 
REMARK    3  A    between atoms: C_9  and  C_10 
REMARK    4  A    between atoms: C_13  and  C_14 
ROOT
HETATM    1  N   UNL     1      -5.344   3.928 -32.412  1.00  0.00    -0.309 N 
HETATM    2  C   UNL     1      -6.333   4.143 -33.329  1.00  0.00     0.321 C 
HETATM    3  N   UNL     1      -7.431   3.335 -33.226  1.00  0.00    -0.335 N 
HETATM    4  O   UNL     1      -6.332   4.976 -34.231  1.00  0.00    -0.247 OA
HETATM    5  H   UNL     1      -5.617   3.414 -31.583  1.00  0.00     0.170 HD
HETATM    6  H   UNL     1      -8.098   3.532 -33.961  1.00  0.00     0.164 HD
ENDROOT
BRANCH   3   7
HETATM    7  C   UNL     1      -7.562   2.070 -32.523  1.00  0.00     0.213 C 
BRANCH   7   8
HETATM    8  C   UNL     1      -7.179   0.930 -33.393  1.00  0.00     0.190 A 
HETATM    9  O   UNL     1      -7.313   1.086 -34.739  1.00  0.00    -0.194 OA
HETATM   10  N   UNL     1      -6.872  -0.103 -35.319  1.00  0.00    -0.106 NA
HETATM   11  C   UNL     1      -6.529  -0.868 -34.268  1.00  0.00     0.189 A 
HETATM   12  N   UNL     1      -6.681  -0.238 -33.049  1.00  0.00    -0.202 NA
BRANCH  11  13
HETATM   13  C   UNL     1      -6.027  -2.234 -34.371  1.00  0.00     0.014 A 
HETATM   14  C   UNL     1      -6.863  -3.286 -34.770  1.00  0.00     0.015 A 
HETATM   15  C   UNL     1      -6.363  -4.588 -34.875  1.00  0.00     0.001 A 
HETATM   16  C   UNL     1      -5.026  -4.850 -34.577  1.00  0.00     0.000 A 
HETATM   17  C   UNL     1      -4.187  -3.815 -34.172  1.00  0.00     0.001 A 
HETATM   18  C   UNL     1      -4.685  -2.514 -34.069  1.00  0.00     0.015 A 
ENDBRANCH  11  13
ENDBRANCH   7   8
ENDBRANCH   3   7
BRANCH   1  19
HETATM   19  C   UNL     1      -4.090   4.565 -32.321  1.00  0.00     0.036 A 
HETATM   20  C   UNL     1      -2.910   4.053 -32.860  1.00  0.00     0.030 A 
HETATM   21  C   UNL     1      -1.712   4.767 -32.744  1.00  0.00     0.009 A 
HETATM   22  C   UNL     1      -1.669   5.992 -32.070  1.00  0.00    -0.062 A 
HETATM   23  C   UNL     1      -0.396   6.778 -31.987  1.00  0.00     0.048 C 
HETATM   24  C   UNL     1      -2.851   6.502 -31.525  1.00  0.00     0.009 A 
HETATM   25  C   UNL     1      -4.048   5.790 -31.644  1.00  0.00     0.030 A 
ENDBRANCH   1  19
TORSDOF 4
ENDMDL
MODEL 9
REMARK VINA RESULT:      -8.0      3.268      7.602
REMARK  4 active torsions:
REMARK  status: ('A' for Active; 'I' for Inactive)
REMARK    1  A    between atoms: C_5  and  N_6 
REMARK       I    between atoms: N_6  and  C_7 
REMARK       I    between atoms: C_7  and  N_8 
REMARK    2  A    between atoms: N_8  and  C_9 
REMARK    3  A    between atoms: C_9  and  C_10 
REMARK    4  A    between atoms: C_13  and  C_14 
ROOT
HETATM    1  N   UNL     1      -5.949   0.729 -33.263  1.00  0.00    -0.309 N 
HETATM    2  C   UNL     1      -5.705   1.198 -32.003  1.00  0.00     0.321 C 
HETATM    3  N   UNL     1      -5.807   2.551 -31.837  1.00  0.00    -0.335 N 
HETATM    4  O   UNL     1      -5.400   0.533 -31.017  1.00  0.00    -0.247 OA
HETATM    5  H   UNL     1      -6.455   1.358 -33.876  1.00  0.00     0.170 HD
HETATM    6  H   UNL     1      -5.575   2.819 -30.889  1.00  0.00     0.164 HD
ENDROOT
BRANCH   3   7
HETATM    7  C   UNL     1      -5.792   3.591 -32.852  1.00  0.00     0.213 C 
BRANCH   7   8
HETATM    8  C   UNL     1      -7.135   3.771 -33.458  1.00  0.00     0.190 A 
HETATM    9  O   UNL     1      -7.401   4.957 -34.071  1.00  0.00    -0.194 OA
HETATM   10  N   UNL     1      -8.701   4.861 -34.566  1.00  0.00    -0.106 NA
HETATM   11  C   UNL     1      -9.100   3.634 -34.193  1.00  0.00     0.189 A 
HETATM   12  N   UNL     1      -8.131   2.914 -33.523  1.00  0.00    -0.202 NA
BRANCH  11  13
HETATM   13  C   UNL     1     -10.420   3.077 -34.465  1.00  0.00     0.014 A 
HETATM   14  C   UNL     1     -11.324   3.734 -35.313  1.00  0.00     0.015 A 
HETATM   15  C   UNL     1     -12.581   3.181 -35.574  1.00  0.00     0.001 A 
HETATM   16  C   UNL     1     -12.950   1.972 -34.986  1.00  0.00     0.000 A 
HETATM   17  C   UNL     1     -12.065   1.313 -34.136  1.00  0.00     0.001 A 
HETATM   18  C   UNL     1     -10.808   1.863 -33.876  1.00  0.00     0.015 A 
ENDBRANCH  11  13
ENDBRANCH   7   8
ENDBRANCH   3   7
BRANCH   1  19
HETATM   19  C   UNL     1      -5.858  -0.597 -33.729  1.00  0.00     0.036 A 
HETATM   20  C   UNL     1      -4.667  -1.318 -33.817  1.00  0.00     0.030 A 
HETATM   21  C   UNL     1      -4.673  -2.642 -34.270  1.00  0.00     0.009 A 
HETATM   22  C   UNL     1      -5.865  -3.260 -34.662  1.00  0.00    -0.062 A 
HETATM   23  C   UNL     1      -5.877  -4.693 -35.101  1.00  0.00     0.048 C 
HETATM   24  C   UNL     1      -7.058  -2.536 -34.579  1.00  0.00     0.009 A 
HETATM   25  C   UNL     1      -7.051  -1.215 -34.124  1.00  0.00     0.030 A 
ENDBRANCH   1  19
TORSDOF 4
ENDMDL
MODEL 10
REMARK VINA RESULT:      -8.0      2.161      3.134
REMARK  4 active torsions:
REMARK  status: ('A' for Active; 'I' for Inactive)
REMARK    1  A    between atoms: C_5  and  N_6 
REMARK       I    between atoms: N_6  and  C_7 
REMARK       I    between atoms: C_7  and  N_8 
REMARK    2  A    between atoms: N_8  and  C_9 
REMARK    3  A    between atoms: C_9  and  C_10 
REMARK    4  A    between atoms: C_13  and  C_14 
ROOT
HETATM    1  N   UNL     1      -2.304   5.558 -30.625  1.00  0.00    -0.309 N 
HETATM    2  C   UNL     1      -2.125   4.839 -31.773  1.00  0.00     0.321 C 
HETATM    3  N   UNL     1      -3.232   4.204 -32.261  1.00  0.00    -0.335 N 
HETATM    4  O   UNL     1      -1.078   4.703 -32.400  1.00  0.00    -0.247 OA
HETATM    5  H   UNL     1      -3.262   5.798 -30.402  1.00  0.00     0.170 HD
HETATM    6  H   UNL     1      -3.009   3.666 -33.088  1.00  0.00     0.164 HD
ENDROOT
BRANCH   3   7
HETATM    7  C   UNL     1      -4.473   3.891 -31.572  1.00  0.00     0.213 C 
BRANCH   7   8
HETATM    8  C   UNL     1      -5.168   2.744 -32.209  1.00  0.00     0.190 A 
HETATM    9  O   UNL     1      -6.493   2.882 -32.489  1.00  0.00    -0.194 OA
HETATM   10  N   UNL     1      -6.894   1.691 -33.093  1.00  0.00    -0.106 NA
HETATM   11  C   UNL     1      -5.777   0.943 -33.107  1.00  0.00     0.189 A 
HETATM   12  N   UNL     1      -4.671   1.587 -32.588  1.00  0.00    -0.202 NA
BRANCH  11  13
HETATM   13  C   UNL     1      -5.701  -0.417 -33.627  1.00  0.00     0.014 A 
HETATM   14  C   UNL     1      -6.819  -1.037 -34.203  1.00  0.00     0.015 A 
HETATM   15  C   UNL     1      -6.726  -2.338 -34.707  1.00  0.00     0.001 A 
HETATM   16  C   UNL     1      -5.520  -3.032 -34.637  1.00  0.00     0.000 A 
HETATM   17  C   UNL     1      -4.403  -2.431 -34.059  1.00  0.00     0.001 A 
HETATM   18  C   UNL     1      -4.494  -1.131 -33.556  1.00  0.00     0.015 A 
ENDBRANCH  11  13
ENDBRANCH   7   8
ENDBRANCH   3   7
BRANCH   1  19
HETATM   19  C   UNL     1      -1.335   6.255 -29.877  1.00  0.00     0.036 A 
HETATM   20  C   UNL     1      -0.163   5.682 -29.383  1.00  0.00     0.030 A 
HETATM   21  C   UNL     1       0.758   6.457 -28.669  1.00  0.00     0.009 A 
HETATM   22  C   UNL     1       0.513   7.812 -28.419  1.00  0.00    -0.062 A 
HETATM   23  C   UNL     1       1.521   8.653 -27.696  1.00  0.00     0.048 C 
HETATM   24  C   UNL     1      -0.664   8.385 -28.909  1.00  0.00     0.009 A 
HETATM   25  C   UNL     1      -1.581   7.611 -29.624  1.00  0.00     0.030 A 
ENDBRANCH   1  19
TORSDOF 4
ENDMDL
