MODEL 1
REMARK VINA RESULT:      -9.0      0.000      0.000
REMARK  7 active torsions:
REMARK  status: ('A' for Active; 'I' for Inactive)
REMARK    1  A    between atoms: C_2  and  N_3 
REMARK       I    between atoms: N_3  and  C_4 
REMARK    2  A    between atoms: C_4  and  C_5 
REMARK    3  A    between atoms: N_8  and  C_10 
REMARK    4  A    between atoms: C_10  and  N_11 
REMARK    5  A    between atoms: C_13  and  C_14 
REMARK    6  A    between atoms: C_14  and  N_15 
REMARK    7  A    between atoms: N_22  and  C_23 
ROOT
HETATM    1  N   UNL     1      -5.468   1.832 -32.026  1.00  0.00    -0.216 N 
HETATM    2  N   UNL     1      -6.397   2.147 -32.998  1.00  0.00    -0.153 NA
HETATM    3  C   UNL     1      -6.508   1.058 -33.714  1.00  0.00     0.160 A 
HETATM    4  N   UNL     1      -5.743   0.021 -33.289  1.00  0.00    -0.272 N 
HETATM    5  C   UNL     1      -5.029   0.505 -32.196  1.00  0.00     0.204 A 
HETATM    6  S   UNL     1      -3.969  -0.261 -31.164  1.00  0.00    -0.038 SA
ENDROOT
BRANCH   1   7
HETATM    7  C   UNL     1      -4.936   2.842 -31.123  1.00  0.00     0.388 C 
BRANCH   7   8
HETATM    8  N   UNL     1      -4.188   3.917 -31.861  1.00  0.00    -0.053 N 
HETATM    9  C   UNL     1      -4.098   5.151 -30.994  1.00  0.00     0.237 C 
HETATM   10  C   UNL     1      -3.367   6.269 -31.724  1.00  0.00     0.042 C 
HETATM   11  C   UNL     1      -1.973   5.833 -32.174  1.00  0.00     0.081 C 
HETATM   12  C   UNL     1      -2.077   4.567 -33.029  1.00  0.00     0.042 C 
HETATM   13  C   UNL     1      -2.852   3.435 -32.365  1.00  0.00     0.237 C 
HETATM   14  H   UNL     1      -4.769   4.152 -32.680  1.00  0.00     0.281 HD
BRANCH  11  15
HETATM   15  C   UNL     1      -1.090   5.611 -30.951  1.00  0.00     0.221 C 
HETATM   16  N   UNL     1      -1.155   6.605 -30.010  1.00  0.00    -0.361 N 
HETATM   17  H   UNL     1      -1.548   7.507 -30.257  1.00  0.00     0.162 HD
HETATM   18  O   UNL     1      -0.473   4.561 -30.792  1.00  0.00    -0.273 OA
BRANCH  16  19
HETATM   19  C   UNL     1      -0.372   6.549 -28.787  1.00  0.00     0.118 C 
HETATM   20  C   UNL     1       0.677   7.645 -28.738  1.00  0.00     0.026 C 
ENDBRANCH  16  19
ENDBRANCH  11  15
ENDBRANCH   7   8
ENDBRANCH   1   7
BRANCH   3  21
HETATM   21  C   UNL     1      -7.383   1.014 -34.964  1.00  0.00     0.315 C 
BRANCH  21  22
HETATM   22  N   UNL     1      -8.876   1.174 -34.651  1.00  0.00    -0.064 N 
HETATM   23  H   UNL     1      -9.375   0.787 -35.466  1.00  0.00     0.280 HD
HETATM   24  C   UNL     1      -9.313   0.373 -33.443  1.00  0.00     0.235 C 
HETATM   25  C   UNL     1     -10.827   0.457 -33.311  1.00  0.00     0.028 C 
HETATM   26  C   UNL     1     -11.303   1.902 -33.214  1.00  0.00     0.003 C 
HETATM   27  C   UNL     1     -10.779   2.738 -34.376  1.00  0.00     0.028 C 
HETATM   28  C   UNL     1      -9.268   2.631 -34.518  1.00  0.00     0.235 C 
ENDBRANCH  21  22
ENDBRANCH   3  21
BRANCH   4  29
HETATM   29  C   UNL     1      -5.708  -1.283 -33.834  1.00  0.00     0.043 A 
HETATM   30  C   UNL     1      -4.491  -1.896 -34.158  1.00  0.00     0.030 A 
HETATM   31  C   UNL     1      -4.466  -3.178 -34.712  1.00  0.00     0.002 A 
HETATM   32  C   UNL     1      -5.654  -3.862 -34.946  1.00  0.00     0.000 A 
HETATM   33  C   UNL     1      -6.870  -3.271 -34.621  1.00  0.00     0.002 A 
HETATM   34  C   UNL     1      -6.899  -1.988 -34.068  1.00  0.00     0.030 A 
ENDBRANCH   4  29
TORSDOF 7
ENDMDL
MODEL 2
REMARK VINA RESULT:      -8.7      3.675      8.816
REMARK  7 active torsions:
REMARK  status: ('A' for Active; 'I' for Inactive)
REMARK    1  A    between atoms: C_2  and  N_3 
REMARK       I    between atoms: N_3  and  C_4 
REMARK    2  A    between atoms: C_4  and  C_5 
REMARK    3  A    between atoms: N_8  and  C_10 
REMARK    4  A    between atoms: C_10  and  N_11 
REMARK    5  A    between atoms: C_13  and  C_14 
REMARK    6  A    between atoms: C_14  and  N_15 
REMARK    7  A    between atoms: N_22  and  C_23 
ROOT
HETATM    1  N   UNL     1      -8.671   0.172 -32.622  1.00  0.00    -0.216 N 
HETATM    2  N   UNL     1      -7.928  -0.655 -33.442  1.00  0.00    -0.153 NA
HETATM    3  C   UNL     1      -6.727  -0.137 -33.433  1.00  0.00     0.160 A 
HETATM    4  N   UNL     1      -6.592   0.964 -32.653  1.00  0.00    -0.272 N 
HETATM    5  C   UNL     1      -7.857   1.209 -32.125  1.00  0.00     0.204 A 
HETATM    6  S   UNL     1      -8.378   2.357 -31.037  1.00  0.00    -0.038 SA
ENDROOT
BRANCH   1   7
HETATM    7  C   UNL     1     -10.115   0.033 -32.504  1.00  0.00     0.388 C 
BRANCH   7   8
HETATM    8  N   UNL     1     -10.837   0.690 -33.647  1.00  0.00    -0.053 N 
HETATM    9  C   UNL     1     -12.309   0.360 -33.566  1.00  0.00     0.237 C 
HETATM   10  C   UNL     1     -13.067   0.991 -34.726  1.00  0.00     0.042 C 
HETATM   11  C   UNL     1     -12.865   2.505 -34.775  1.00  0.00     0.081 C 
HETATM   12  C   UNL     1     -11.369   2.826 -34.830  1.00  0.00     0.042 C 
HETATM   13  C   UNL     1     -10.555   2.169 -33.721  1.00  0.00     0.237 C 
HETATM   14  H   UNL     1     -10.465   0.254 -34.503  1.00  0.00     0.281 HD
BRANCH  11  15
HETATM   15  C   UNL     1     -13.532   3.146 -33.562  1.00  0.00     0.221 C 
HETATM   16  N   UNL     1     -14.759   2.627 -33.243  1.00  0.00    -0.361 N 
HETATM   17  H   UNL     1     -15.261   2.066 -33.923  1.00  0.00     0.162 HD
HETATM   18  O   UNL     1     -12.942   3.976 -32.875  1.00  0.00    -0.273 OA
BRANCH  16  19
HETATM   19  C   UNL     1     -15.530   3.130 -32.119  1.00  0.00     0.118 C 
HETATM   20  C   UNL     1     -16.957   2.614 -32.135  1.00  0.00     0.026 C 
ENDBRANCH  16  19
ENDBRANCH  11  15
ENDBRANCH   7   8
ENDBRANCH   1   7
BRANCH   3  21
HETATM   21  C   UNL     1      -5.608  -0.711 -34.299  1.00  0.00     0.315 C 
BRANCH  21  22
HETATM   22  N   UNL     1      -5.165  -2.108 -33.850  1.00  0.00    -0.064 N 
HETATM   23  H   UNL     1      -5.872  -2.419 -33.166  1.00  0.00     0.280 HD
HETATM   24  C   UNL     1      -5.165  -3.117 -34.978  1.00  0.00     0.235 C 
HETATM   25  C   UNL     1      -4.879  -4.500 -34.410  1.00  0.00     0.028 C 
HETATM   26  C   UNL     1      -3.559  -4.531 -33.646  1.00  0.00     0.003 C 
HETATM   27  C   UNL     1      -3.514  -3.447 -32.575  1.00  0.00     0.028 C 
HETATM   28  C   UNL     1      -3.825  -2.071 -33.144  1.00  0.00     0.235 C 
ENDBRANCH  21  22
ENDBRANCH   3  21
BRANCH   4  29
HETATM   29  C   UNL     1      -5.402   1.689 -32.411  1.00  0.00     0.043 A 
HETATM   30  C   UNL     1      -4.447   1.223 -31.499  1.00  0.00     0.030 A 
HETATM   31  C   UNL     1      -3.282   1.953 -31.253  1.00  0.00     0.002 A 
HETATM   32  C   UNL     1      -3.056   3.155 -31.918  1.00  0.00     0.000 A 
HETATM   33  C   UNL     1      -3.990   3.626 -32.834  1.00  0.00     0.002 A 
HETATM   34  C   UNL     1      -5.158   2.898 -33.081  1.00  0.00     0.030 A 
ENDBRANCH   4  29
TORSDOF 7
ENDMDL
MODEL 3
REMARK VINA RESULT:      -8.6      1.693      2.303
REMARK  7 active torsions:
REMARK  status: ('A' for Active; 'I' for Inactive)
REMARK    1  A    between atoms: C_2  and  N_3 
REMARK       I    between atoms: N_3  and  C_4 
REMARK    2  A    between atoms: C_4  and  C_5 
REMARK    3  A    between atoms: N_8  and  C_10 
REMARK    4  A    between atoms: C_10  and  N_11 
REMARK    5  A    between atoms: C_13  and  C_14 
REMARK    6  A    between atoms: C_14  and  N_15 
REMARK    7  A    between atoms: N_22  and  C_23 
ROOT
HETATM    1  N   UNL     1      -4.768   2.557 -32.051  1.00  0.00    -0.216 N 
HETATM    2  N   UNL     1      -5.869   2.893 -32.815  1.00  0.00    -0.153 NA
HETATM    3  C   UNL     1      -6.185   1.789 -33.443  1.00  0.00     0.160 A 
HETATM    4  N   UNL     1      -5.397   0.725 -33.147  1.00  0.00    -0.272 N 
HETATM    5  C   UNL     1      -4.441   1.202 -32.254  1.00  0.00     0.204 A 
HETATM    6  S   UNL     1      -3.222   0.410 -31.440  1.00  0.00    -0.038 SA
ENDROOT
BRANCH   1   7
HETATM    7  C   UNL     1      -4.006   3.563 -31.328  1.00  0.00     0.388 C 
BRANCH   7   8
HETATM    8  N   UNL     1      -2.738   3.931 -32.047  1.00  0.00    -0.053 N 
HETATM    9  C   UNL     1      -3.082   4.605 -33.355  1.00  0.00     0.237 C 
HETATM   10  C   UNL     1      -1.817   4.968 -34.122  1.00  0.00     0.042 C 
HETATM   11  C   UNL     1      -0.891   5.858 -33.294  1.00  0.00     0.081 C 
HETATM   12  C   UNL     1      -0.572   5.174 -31.961  1.00  0.00     0.042 C 
HETATM   13  C   UNL     1      -1.806   4.738 -31.180  1.00  0.00     0.237 C 
HETATM   14  H   UNL     1      -2.271   3.039 -32.268  1.00  0.00     0.281 HD
BRANCH  11  15
HETATM   15  C   UNL     1      -1.546   7.218 -33.083  1.00  0.00     0.221 C 
HETATM   16  N   UNL     1      -1.632   7.615 -31.773  1.00  0.00    -0.361 N 
HETATM   17  H   UNL     1      -1.513   6.933 -31.032  1.00  0.00     0.162 HD
HETATM   18  O   UNL     1      -1.853   7.932 -34.034  1.00  0.00    -0.273 OA
BRANCH  16  19
HETATM   19  C   UNL     1      -2.234   8.883 -31.400  1.00  0.00     0.118 C 
HETATM   20  C   UNL     1      -3.532   8.690 -30.637  1.00  0.00     0.026 C 
ENDBRANCH  16  19
ENDBRANCH  11  15
ENDBRANCH   7   8
ENDBRANCH   1   7
BRANCH   3  21
HETATM   21  C   UNL     1      -7.311   1.755 -34.473  1.00  0.00     0.315 C 
BRANCH  21  22
HETATM   22  N   UNL     1      -8.693   1.982 -33.851  1.00  0.00    -0.064 N 
HETATM   23  H   UNL     1      -8.558   1.902 -32.831  1.00  0.00     0.280 HD
HETATM   24  C   UNL     1      -9.239   3.368 -34.117  1.00  0.00     0.235 C 
HETATM   25  C   UNL     1     -10.526   3.558 -33.326  1.00  0.00     0.028 C 
HETATM   26  C   UNL     1     -11.557   2.488 -33.667  1.00  0.00     0.003 C 
HETATM   27  C   UNL     1     -10.978   1.088 -33.497  1.00  0.00     0.028 C 
HETATM   28  C   UNL     1      -9.679   0.912 -34.270  1.00  0.00     0.235 C 
ENDBRANCH  21  22
ENDBRANCH   3  21
BRANCH   4  29
HETATM   29  C   UNL     1      -5.544  -0.596 -33.630  1.00  0.00     0.043 A 
HETATM   30  C   UNL     1      -6.809  -1.185 -33.744  1.00  0.00     0.030 A 
HETATM   31  C   UNL     1      -6.944  -2.497 -34.205  1.00  0.00     0.002 A 
HETATM   32  C   UNL     1      -5.818  -3.233 -34.561  1.00  0.00     0.000 A 
HETATM   33  C   UNL     1      -4.555  -2.659 -34.462  1.00  0.00     0.002 A 
HETATM   34  C   UNL     1      -4.417  -1.347 -33.999  1.00  0.00     0.030 A 
ENDBRANCH   4  29
TORSDOF 7
ENDMDL
MODEL 4
REMARK VINA RESULT:      -8.5      1.388      4.150
REMARK  7 active torsions:
REMARK  status: ('A' for Active; 'I' for Inactive)
REMARK    1  A    between atoms: C_2  and  N_3 
REMARK       I    between atoms: N_3  and  C_4 
REMARK    2  A    between atoms: C_4  and  C_5 
REMARK    3  A    between atoms: N_8  and  C_10 
REMARK    4  A    between atoms: C_10  and  N_11 
REMARK    5  A    between atoms: C_13  and  C_14 
REMARK    6  A    between atoms: C_14  and  N_15 
REMARK    7  A    between atoms: N_22  and  C_23 
ROOT
HETATM    1  N   UNL     1      -5.778   2.725 -31.790  1.00  0.00    -0.216 N 
HETATM    2  N   UNL     1      -5.366   1.995 -32.889  1.00  0.00    -0.153 NA
HETATM    3  C   UNL     1      -6.467   1.480 -33.374  1.00  0.00     0.160 A 
HETATM    4  N   UNL     1      -7.595   1.822 -32.703  1.00  0.00    -0.272 N 
HETATM    5  C   UNL     1      -7.174   2.620 -31.642  1.00  0.00     0.204 A 
HETATM    6  S   UNL     1      -8.047   3.430 -30.478  1.00  0.00    -0.038 SA
ENDROOT
BRANCH   1   7
HETATM    7  C   UNL     1      -4.822   3.320 -30.868  1.00  0.00     0.388 C 
BRANCH   7   8
HETATM    8  N   UNL     1      -3.943   4.333 -31.548  1.00  0.00    -0.053 N 
HETATM    9  C   UNL     1      -3.811   5.553 -30.667  1.00  0.00     0.237 C 
HETATM   10  C   UNL     1      -2.947   6.612 -31.338  1.00  0.00     0.042 C 
HETATM   11  C   UNL     1      -1.566   6.066 -31.700  1.00  0.00     0.081 C 
HETATM   12  C   UNL     1      -1.715   4.816 -32.571  1.00  0.00     0.042 C 
HETATM   13  C   UNL     1      -2.620   3.747 -31.968  1.00  0.00     0.237 C 
HETATM   14  H   UNL     1      -4.448   4.616 -32.400  1.00  0.00     0.281 HD
BRANCH  11  15
HETATM   15  C   UNL     1      -0.786   5.770 -30.424  1.00  0.00     0.221 C 
HETATM   16  N   UNL     1      -0.958   6.689 -29.421  1.00  0.00    -0.361 N 
HETATM   17  H   UNL     1      -1.352   7.599 -29.635  1.00  0.00     0.162 HD
HETATM   18  O   UNL     1      -0.157   4.724 -30.289  1.00  0.00    -0.273 OA
BRANCH  16  19
HETATM   19  C   UNL     1      -0.282   6.557 -28.143  1.00  0.00     0.118 C 
HETATM   20  C   UNL     1       0.916   7.484 -28.039  1.00  0.00     0.026 C 
ENDBRANCH  16  19
ENDBRANCH  11  15
ENDBRANCH   7   8
ENDBRANCH   1   7
BRANCH   3  21
HETATM   21  C   UNL     1      -6.439   0.518 -34.559  1.00  0.00     0.315 C 
BRANCH  21  22
HETATM   22  N   UNL     1      -6.039  -0.907 -34.159  1.00  0.00    -0.064 N 
HETATM   23  H   UNL     1      -6.506  -1.085 -33.257  1.00  0.00     0.280 HD
HETATM   24  C   UNL     1      -6.538  -1.953 -35.132  1.00  0.00     0.235 C 
HETATM   25  C   UNL     1      -6.243  -3.337 -34.570  1.00  0.00     0.028 C 
HETATM   26  C   UNL     1      -4.757  -3.520 -34.281  1.00  0.00     0.003 C 
HETATM   27  C   UNL     1      -4.227  -2.409 -33.383  1.00  0.00     0.028 C 
HETATM   28  C   UNL     1      -4.546  -1.028 -33.937  1.00  0.00     0.235 C 
ENDBRANCH  21  22
ENDBRANCH   3  21
BRANCH   4  29
HETATM   29  C   UNL     1      -8.920   1.460 -33.038  1.00  0.00     0.043 A 
HETATM   30  C   UNL     1      -9.723   2.303 -33.816  1.00  0.00     0.030 A 
HETATM   31  C   UNL     1     -11.037   1.947 -34.127  1.00  0.00     0.002 A 
HETATM   32  C   UNL     1     -11.563   0.743 -33.668  1.00  0.00     0.000 A 
HETATM   33  C   UNL     1     -10.776  -0.109 -32.902  1.00  0.00     0.002 A 
HETATM   34  C   UNL     1      -9.461   0.245 -32.586  1.00  0.00     0.030 A 
ENDBRANCH   4  29
TORSDOF 7
ENDMDL
MODEL 5
REMARK VINA RESULT:      -8.5      2.274      4.802
REMARK  7 active torsions:
REMARK  status: ('A' for Active; 'I' for Inactive)
REMARK    1  A    between atoms: C_2  and  N_3 
REMARK       I    between atoms: N_3  and  C_4 
REMARK    2  A    between atoms: C_4  and  C_5 
REMARK    3  A    between atoms: N_8  and  C_10 
REMARK    4  A    between atoms: C_10  and  N_11 
REMARK    5  A    between atoms: C_13  and  C_14 
REMARK    6  A    between atoms: C_14  and  N_15 
REMARK    7  A    between atoms: N_22  and  C_23 
ROOT
HETATM    1  N   UNL     1      -6.848   3.667 -33.661  1.00  0.00    -0.216 N 
HETATM    2  N   UNL     1      -6.348   2.521 -34.249  1.00  0.00    -0.153 NA
HETATM    3  C   UNL     1      -7.371   1.708 -34.312  1.00  0.00     0.160 A 
HETATM    4  N   UNL     1      -8.532   2.222 -33.833  1.00  0.00    -0.272 N 
HETATM    5  C   UNL     1      -8.216   3.499 -33.375  1.00  0.00     0.204 A 
HETATM    6  S   UNL     1      -9.185   4.696 -32.738  1.00  0.00    -0.038 SA
ENDROOT
BRANCH   1   7
HETATM    7  C   UNL     1      -5.976   4.759 -33.256  1.00  0.00     0.388 C 
BRANCH   7   8
HETATM    8  N   UNL     1      -4.532   4.465 -33.556  1.00  0.00    -0.053 N 
HETATM    9  C   UNL     1      -4.060   5.362 -34.676  1.00  0.00     0.237 C 
HETATM   10  C   UNL     1      -2.606   5.071 -35.023  1.00  0.00     0.042 C 
HETATM   11  C   UNL     1      -1.695   5.220 -33.804  1.00  0.00     0.081 C 
HETATM   12  C   UNL     1      -2.200   4.325 -32.669  1.00  0.00     0.042 C 
HETATM   13  C   UNL     1      -3.670   4.537 -32.322  1.00  0.00     0.237 C 
HETATM   14  H   UNL     1      -4.509   3.495 -33.902  1.00  0.00     0.281 HD
BRANCH  11  15
HETATM   15  C   UNL     1      -1.643   6.684 -33.383  1.00  0.00     0.221 C 
HETATM   16  N   UNL     1      -1.572   6.887 -32.029  1.00  0.00    -0.361 N 
HETATM   17  H   UNL     1      -1.807   6.133 -31.394  1.00  0.00     0.162 HD
HETATM   18  O   UNL     1      -1.553   7.583 -34.214  1.00  0.00    -0.273 OA
BRANCH  16  19
HETATM   19  C   UNL     1      -1.521   8.224 -31.462  1.00  0.00     0.118 C 
HETATM   20  C   UNL     1      -2.903   8.743 -31.114  1.00  0.00     0.026 C 
ENDBRANCH  16  19
ENDBRANCH  11  15
ENDBRANCH   7   8
ENDBRANCH   1   7
BRANCH   3  21
HETATM   21  C   UNL     1      -7.220   0.278 -34.824  1.00  0.00     0.315 C 
BRANCH  21  22
HETATM   22  N   UNL     1      -5.950  -0.407 -34.308  1.00  0.00    -0.064 N 
HETATM   23  H   UNL     1      -5.163   0.102 -34.738  1.00  0.00     0.280 HD
HETATM   24  C   UNL     1      -5.786  -0.292 -32.808  1.00  0.00     0.235 C 
HETATM   25  C   UNL     1      -4.426  -0.848 -32.411  1.00  0.00     0.028 C 
HETATM   26  C   UNL     1      -4.253  -2.291 -32.872  1.00  0.00     0.003 C 
HETATM   27  C   UNL     1      -4.518  -2.430 -34.367  1.00  0.00     0.028 C 
HETATM   28  C   UNL     1      -5.868  -1.850 -34.762  1.00  0.00     0.235 C 
ENDBRANCH  21  22
ENDBRANCH   3  21
BRANCH   4  29
HETATM   29  C   UNL     1      -9.798   1.593 -33.831  1.00  0.00     0.043 A 
HETATM   30  C   UNL     1     -10.845   2.079 -34.624  1.00  0.00     0.030 A 
HETATM   31  C   UNL     1     -12.098   1.463 -34.602  1.00  0.00     0.002 A 
HETATM   32  C   UNL     1     -12.318   0.352 -33.792  1.00  0.00     0.000 A 
HETATM   33  C   UNL     1     -11.286  -0.148 -33.006  1.00  0.00     0.002 A 
HETATM   34  C   UNL     1     -10.031   0.468 -33.024  1.00  0.00     0.030 A 
ENDBRANCH   4  29
TORSDOF 7
ENDMDL
MODEL 6
REMARK VINA RESULT:      -8.5      3.794      8.900
REMARK  7 active torsions:
REMARK  status: ('A' for Active; 'I' for Inactive)
REMARK    1  A    between atoms: C_2  and  N_3 
REMARK       I    between atoms: N_3  and  C_4 
REMARK    2  A    between atoms: C_4  and  C_5 
REMARK    3  A    between atoms: N_8  and  C_10 
REMARK    4  A    between atoms: C_10  and  N_11 
REMARK    5  A    between atoms: C_13  and  C_14 
REMARK    6  A    between atoms: C_14  and  N_15 
REMARK    7  A    between atoms: N_22  and  C_23 
ROOT
HETATM    1  N   UNL     1      -8.154   3.203 -32.099  1.00  0.00    -0.216 N 
HETATM    2  N   UNL     1      -7.376   2.063 -32.044  1.00  0.00    -0.153 NA
HETATM    3  C   UNL     1      -6.214   2.433 -32.518  1.00  0.00     0.160 A 
HETATM    4  N   UNL     1      -6.136   3.741 -32.869  1.00  0.00    -0.272 N 
HETATM    5  C   UNL     1      -7.402   4.270 -32.629  1.00  0.00     0.204 A 
HETATM    6  S   UNL     1      -7.975   5.827 -32.771  1.00  0.00    -0.038 SA
ENDROOT
BRANCH   1   7
HETATM    7  C   UNL     1      -9.581   3.167 -31.816  1.00  0.00     0.388 C 
BRANCH   7   8
HETATM    8  N   UNL     1     -10.400   3.091 -33.075  1.00  0.00    -0.053 N 
HETATM    9  C   UNL     1     -10.726   1.647 -33.375  1.00  0.00     0.237 C 
HETATM   10  C   UNL     1     -11.535   1.533 -34.660  1.00  0.00     0.042 C 
HETATM   11  C   UNL     1     -12.816   2.363 -34.595  1.00  0.00     0.081 C 
HETATM   12  C   UNL     1     -12.474   3.818 -34.264  1.00  0.00     0.042 C 
HETATM   13  C   UNL     1     -11.614   3.983 -33.016  1.00  0.00     0.237 C 
HETATM   14  H   UNL     1      -9.790   3.438 -33.829  1.00  0.00     0.281 HD
BRANCH  11  15
HETATM   15  C   UNL     1     -13.761   1.761 -33.560  1.00  0.00     0.221 C 
HETATM   16  N   UNL     1     -14.627   2.655 -32.987  1.00  0.00    -0.361 N 
HETATM   17  H   UNL     1     -14.448   3.650 -33.065  1.00  0.00     0.162 HD
HETATM   18  O   UNL     1     -13.802   0.549 -33.364  1.00  0.00    -0.273 OA
BRANCH  16  19
HETATM   19  C   UNL     1     -15.589   2.244 -31.979  1.00  0.00     0.118 C 
HETATM   20  C   UNL     1     -17.009   2.607 -32.372  1.00  0.00     0.026 C 
ENDBRANCH  16  19
ENDBRANCH  11  15
ENDBRANCH   7   8
ENDBRANCH   1   7
BRANCH   3  21
HETATM   21  C   UNL     1      -5.080   1.430 -32.713  1.00  0.00     0.315 C 
BRANCH  21  22
HETATM   22  N   UNL     1      -5.569   0.069 -33.222  1.00  0.00    -0.064 N 
HETATM   23  H   UNL     1      -6.187  -0.300 -32.483  1.00  0.00     0.280 HD
HETATM   24  C   UNL     1      -6.400   0.176 -34.482  1.00  0.00     0.235 C 
HETATM   25  C   UNL     1      -6.979  -1.192 -34.815  1.00  0.00     0.028 C 
HETATM   26  C   UNL     1      -5.885  -2.243 -34.966  1.00  0.00     0.003 C 
HETATM   27  C   UNL     1      -4.981  -2.283 -33.739  1.00  0.00     0.028 C 
HETATM   28  C   UNL     1      -4.426  -0.908 -33.397  1.00  0.00     0.235 C 
ENDBRANCH  21  22
ENDBRANCH   3  21
BRANCH   4  29
HETATM   29  C   UNL     1      -4.994   4.421 -33.350  1.00  0.00     0.043 A 
HETATM   30  C   UNL     1      -4.819   4.654 -34.719  1.00  0.00     0.030 A 
HETATM   31  C   UNL     1      -3.679   5.312 -35.189  1.00  0.00     0.002 A 
HETATM   32  C   UNL     1      -2.705   5.747 -34.295  1.00  0.00     0.000 A 
HETATM   33  C   UNL     1      -2.869   5.531 -32.931  1.00  0.00     0.002 A 
HETATM   34  C   UNL     1      -4.007   4.872 -32.459  1.00  0.00     0.030 A 
ENDBRANCH   4  29
TORSDOF 7
ENDMDL
MODEL 7
REMARK VINA RESULT:      -8.2      1.980      4.547
REMARK  7 active torsions:
REMARK  status: ('A' for Active; 'I' for Inactive)
REMARK    1  A    between atoms: C_2  and  N_3 
REMARK       I    between atoms: N_3  and  C_4 
REMARK    2  A    between atoms: C_4  and  C_5 
REMARK    3  A    between atoms: N_8  and  C_10 
REMARK    4  A    between atoms: C_10  and  N_11 
REMARK    5  A    between atoms: C_13  and  C_14 
REMARK    6  A    between atoms: C_14  and  N_15 
REMARK    7  A    between atoms: N_22  and  C_23 
ROOT
HETATM    1  N   UNL     1      -5.664   4.063 -30.984  1.00  0.00    -0.216 N 
HETATM    2  N   UNL     1      -5.642   2.683 -30.931  1.00  0.00    -0.153 NA
HETATM    3  C   UNL     1      -6.785   2.314 -31.451  1.00  0.00     0.160 A 
HETATM    4  N   UNL     1      -7.570   3.337 -31.874  1.00  0.00    -0.272 N 
HETATM    5  C   UNL     1      -6.873   4.501 -31.559  1.00  0.00     0.204 A 
HETATM    6  S   UNL     1      -7.228   6.099 -31.867  1.00  0.00    -0.038 SA
ENDROOT
BRANCH   1   7
HETATM    7  C   UNL     1      -4.635   4.867 -30.341  1.00  0.00     0.388 C 
BRANCH   7   8
HETATM    8  N   UNL     1      -3.593   5.332 -31.320  1.00  0.00    -0.053 N 
HETATM    9  C   UNL     1      -2.951   6.599 -30.805  1.00  0.00     0.237 C 
HETATM   10  C   UNL     1      -1.907   7.111 -31.787  1.00  0.00     0.042 C 
HETATM   11  C   UNL     1      -0.840   6.056 -32.078  1.00  0.00     0.081 C 
HETATM   12  C   UNL     1      -1.507   4.770 -32.575  1.00  0.00     0.042 C 
HETATM   13  C   UNL     1      -2.602   4.246 -31.653  1.00  0.00     0.237 C 
HETATM   14  H   UNL     1      -4.104   5.569 -32.183  1.00  0.00     0.281 HD
BRANCH  11  15
HETATM   15  C   UNL     1      -0.012   5.809 -30.822  1.00  0.00     0.221 C 
HETATM   16  N   UNL     1      -0.031   6.836 -29.913  1.00  0.00    -0.361 N 
HETATM   17  H   UNL     1      -0.349   7.755 -30.200  1.00  0.00     0.162 HD
HETATM   18  O   UNL     1       0.520   4.723 -30.613  1.00  0.00    -0.273 OA
BRANCH  16  19
HETATM   19  C   UNL     1       0.709   6.762 -28.666  1.00  0.00     0.118 C 
HETATM   20  C   UNL     1       1.110   8.138 -28.165  1.00  0.00     0.026 C 
ENDBRANCH  16  19
ENDBRANCH  11  15
ENDBRANCH   7   8
ENDBRANCH   1   7
BRANCH   3  21
HETATM   21  C   UNL     1      -7.200   0.846 -31.498  1.00  0.00     0.315 C 
BRANCH  21  22
HETATM   22  N   UNL     1      -6.607   0.098 -32.697  1.00  0.00    -0.064 N 
HETATM   23  H   UNL     1      -6.167   0.821 -33.288  1.00  0.00     0.280 HD
HETATM   24  C   UNL     1      -5.518  -0.877 -32.304  1.00  0.00     0.235 C 
HETATM   25  C   UNL     1      -4.878  -1.443 -33.564  1.00  0.00     0.028 C 
HETATM   26  C   UNL     1      -5.909  -2.108 -34.468  1.00  0.00     0.003 C 
HETATM   27  C   UNL     1      -7.062  -1.161 -34.783  1.00  0.00     0.028 C 
HETATM   28  C   UNL     1      -7.682  -0.580 -33.522  1.00  0.00     0.235 C 
ENDBRANCH  21  22
ENDBRANCH   3  21
BRANCH   4  29
HETATM   29  C   UNL     1      -8.821   3.230 -32.523  1.00  0.00     0.043 A 
HETATM   30  C   UNL     1     -10.017   3.395 -31.814  1.00  0.00     0.030 A 
HETATM   31  C   UNL     1     -11.250   3.270 -32.459  1.00  0.00     0.002 A 
HETATM   32  C   UNL     1     -11.301   2.984 -33.820  1.00  0.00     0.000 A 
HETATM   33  C   UNL     1     -10.122   2.826 -34.540  1.00  0.00     0.002 A 
HETATM   34  C   UNL     1      -8.887   2.948 -33.897  1.00  0.00     0.030 A 
ENDBRANCH   4  29
TORSDOF 7
ENDMDL
MODEL 8
REMARK VINA RESULT:      -8.2      2.699      5.265
REMARK  7 active torsions:
REMARK  status: ('A' for Active; 'I' for Inactive)
REMARK    1  A    between atoms: C_2  and  N_3 
REMARK       I    between atoms: N_3  and  C_4 
REMARK    2  A    between atoms: C_4  and  C_5 
REMARK    3  A    between atoms: N_8  and  C_10 
REMARK    4  A    between atoms: C_10  and  N_11 
REMARK    5  A    between atoms: C_13  and  C_14 
REMARK    6  A    between atoms: C_14  and  N_15 
REMARK    7  A    between atoms: N_22  and  C_23 
ROOT
HETATM    1  N   UNL     1      -6.848   4.335 -31.703  1.00  0.00    -0.216 N 
HETATM    2  N   UNL     1      -6.903   2.955 -31.672  1.00  0.00    -0.153 NA
HETATM    3  C   UNL     1      -8.181   2.675 -31.669  1.00  0.00     0.160 A 
HETATM    4  N   UNL     1      -8.997   3.758 -31.720  1.00  0.00    -0.272 N 
HETATM    5  C   UNL     1      -8.152   4.865 -31.718  1.00  0.00     0.204 A 
HETATM    6  S   UNL     1      -8.491   6.491 -31.840  1.00  0.00    -0.038 SA
ENDROOT
BRANCH   1   7
HETATM    7  C   UNL     1      -5.592   5.052 -31.544  1.00  0.00     0.388 C 
BRANCH   7   8
HETATM    8  N   UNL     1      -4.606   4.703 -32.624  1.00  0.00    -0.053 N 
HETATM    9  C   UNL     1      -4.450   5.879 -33.559  1.00  0.00     0.237 C 
HETATM   10  C   UNL     1      -3.475   5.548 -34.682  1.00  0.00     0.042 C 
HETATM   11  C   UNL     1      -2.113   5.118 -34.138  1.00  0.00     0.081 C 
HETATM   12  C   UNL     1      -2.289   3.944 -33.172  1.00  0.00     0.042 C 
HETATM   13  C   UNL     1      -3.300   4.203 -32.061  1.00  0.00     0.237 C 
HETATM   14  H   UNL     1      -5.034   3.933 -33.158  1.00  0.00     0.281 HD
BRANCH  11  15
HETATM   15  C   UNL     1      -1.438   6.306 -33.459  1.00  0.00     0.221 C 
HETATM   16  N   UNL     1      -0.703   5.987 -32.347  1.00  0.00    -0.361 N 
HETATM   17  H   UNL     1      -0.838   5.090 -31.895  1.00  0.00     0.162 HD
HETATM   18  O   UNL     1      -1.470   7.427 -33.959  1.00  0.00    -0.273 OA
BRANCH  16  19
HETATM   19  C   UNL     1      -0.001   7.003 -31.582  1.00  0.00     0.118 C 
HETATM   20  C   UNL     1      -0.760   7.389 -30.326  1.00  0.00     0.026 C 
ENDBRANCH  16  19
ENDBRANCH  11  15
ENDBRANCH   7   8
ENDBRANCH   1   7
BRANCH   3  21
HETATM   21  C   UNL     1      -8.679   1.237 -31.547  1.00  0.00     0.315 C 
BRANCH  21  22
HETATM   22  N   UNL     1      -8.278   0.365 -32.742  1.00  0.00    -0.064 N 
HETATM   23  H   UNL     1      -9.012  -0.356 -32.820  1.00  0.00     0.280 HD
HETATM   24  C   UNL     1      -8.264   1.127 -34.050  1.00  0.00     0.235 C 
HETATM   25  C   UNL     1      -8.023   0.151 -35.193  1.00  0.00     0.028 C 
HETATM   26  C   UNL     1      -6.729  -0.631 -35.000  1.00  0.00     0.003 C 
HETATM   27  C   UNL     1      -6.695  -1.318 -33.639  1.00  0.00     0.028 C 
HETATM   28  C   UNL     1      -6.960  -0.342 -32.502  1.00  0.00     0.235 C 
ENDBRANCH  21  22
ENDBRANCH   3  21
BRANCH   4  29
HETATM   29  C   UNL     1     -10.409   3.750 -31.788  1.00  0.00     0.043 A 
HETATM   30  C   UNL     1     -11.071   3.412 -32.974  1.00  0.00     0.030 A 
HETATM   31  C   UNL     1     -12.467   3.424 -33.038  1.00  0.00     0.002 A 
HETATM   32  C   UNL     1     -13.215   3.769 -31.917  1.00  0.00     0.000 A 
HETATM   33  C   UNL     1     -12.573   4.098 -30.729  1.00  0.00     0.002 A 
HETATM   34  C   UNL     1     -11.176   4.089 -30.662  1.00  0.00     0.030 A 
ENDBRANCH   4  29
TORSDOF 7
ENDMDL
MODEL 9
REMARK VINA RESULT:      -8.2      3.176      8.493
REMARK  7 active torsions:
REMARK  status: ('A' for Active; 'I' for Inactive)
REMARK    1  A    between atoms: C_2  and  N_3 
REMARK       I    between atoms: N_3  and  C_4 
REMARK    2  A    between atoms: C_4  and  C_5 
REMARK    3  A    between atoms: N_8  and  C_10 
REMARK    4  A    between atoms: C_10  and  N_11 
REMARK    5  A    between atoms: C_13  and  C_14 
REMARK    6  A    between atoms: C_14  and  N_15 
REMARK    7  A    between atoms: N_22  and  C_23 
ROOT
HETATM    1  N   UNL     1      -6.440   2.935 -31.517  1.00  0.00    -0.216 N 
HETATM    2  N   UNL     1      -5.655   1.799 -31.487  1.00  0.00    -0.153 NA
HETATM    3  C   UNL     1      -4.483   2.196 -31.913  1.00  0.00     0.160 A 
HETATM    4  N   UNL     1      -4.406   3.518 -32.207  1.00  0.00    -0.272 N 
HETATM    5  C   UNL     1      -5.683   4.027 -31.981  1.00  0.00     0.204 A 
HETATM    6  S   UNL     1      -6.264   5.586 -32.075  1.00  0.00    -0.038 SA
ENDROOT
BRANCH   1   7
HETATM    7  C   UNL     1      -7.874   2.877 -31.275  1.00  0.00     0.388 C 
BRANCH   7   8
HETATM    8  N   UNL     1      -8.629   2.415 -32.490  1.00  0.00    -0.053 N 
HETATM    9  C   UNL     1      -9.752   1.499 -32.063  1.00  0.00     0.237 C 
HETATM   10  C   UNL     1     -10.523   0.992 -33.274  1.00  0.00     0.042 C 
HETATM   11  C   UNL     1     -11.069   2.144 -34.118  1.00  0.00     0.081 C 
HETATM   12  C   UNL     1      -9.925   3.077 -34.521  1.00  0.00     0.042 C 
HETATM   13  C   UNL     1      -9.084   3.568 -33.347  1.00  0.00     0.237 C 
HETATM   14  H   UNL     1      -7.962   1.856 -33.040  1.00  0.00     0.281 HD
BRANCH  11  15
HETATM   15  C   UNL     1     -12.146   2.884 -33.333  1.00  0.00     0.221 C 
HETATM   16  N   UNL     1     -13.181   2.097 -32.900  1.00  0.00    -0.361 N 
HETATM   17  H   UNL     1     -13.322   1.180 -33.309  1.00  0.00     0.162 HD
HETATM   18  O   UNL     1     -12.012   4.065 -33.026  1.00  0.00    -0.273 OA
BRANCH  16  19
HETATM   19  C   UNL     1     -14.292   2.648 -32.143  1.00  0.00     0.118 C 
HETATM   20  C   UNL     1     -15.596   1.937 -32.453  1.00  0.00     0.026 C 
ENDBRANCH  16  19
ENDBRANCH  11  15
ENDBRANCH   7   8
ENDBRANCH   1   7
BRANCH   3  21
HETATM   21  C   UNL     1      -3.336   1.210 -32.118  1.00  0.00     0.315 C 
BRANCH  21  22
HETATM   22  N   UNL     1      -3.817  -0.235 -32.293  1.00  0.00    -0.064 N 
HETATM   23  H   UNL     1      -4.577  -0.361 -31.608  1.00  0.00     0.280 HD
HETATM   24  C   UNL     1      -4.406  -0.497 -33.662  1.00  0.00     0.235 C 
HETATM   25  C   UNL     1      -5.006  -1.897 -33.687  1.00  0.00     0.028 C 
HETATM   26  C   UNL     1      -3.974  -2.957 -33.321  1.00  0.00     0.003 C 
HETATM   27  C   UNL     1      -3.303  -2.640 -31.989  1.00  0.00     0.028 C 
HETATM   28  C   UNL     1      -2.727  -1.233 -31.962  1.00  0.00     0.235 C 
ENDBRANCH  21  22
ENDBRANCH   3  21
BRANCH   4  29
HETATM   29  C   UNL     1      -3.257   4.226 -32.629  1.00  0.00     0.043 A 
HETATM   30  C   UNL     1      -3.131   4.673 -33.950  1.00  0.00     0.030 A 
HETATM   31  C   UNL     1      -1.985   5.356 -34.363  1.00  0.00     0.002 A 
HETATM   32  C   UNL     1      -0.954   5.603 -33.460  1.00  0.00     0.000 A 
HETATM   33  C   UNL     1      -1.069   5.173 -32.143  1.00  0.00     0.002 A 
HETATM   34  C   UNL     1      -2.214   4.488 -31.727  1.00  0.00     0.030 A 
ENDBRANCH   4  29
TORSDOF 7
ENDMDL
MODEL 10
REMARK VINA RESULT:      -8.1      3.344      8.194
REMARK  7 active torsions:
REMARK  status: ('A' for Active; 'I' for Inactive)
REMARK    1  A    between atoms: C_2  and  N_3 
REMARK       I    between atoms: N_3  and  C_4 
REMARK    2  A    between atoms: C_4  and  C_5 
REMARK    3  A    between atoms: N_8  and  C_10 
REMARK    4  A    between atoms: C_10  and  N_11 
REMARK    5  A    between atoms: C_13  and  C_14 
REMARK    6  A    between atoms: C_14  and  N_15 
REMARK    7  A    between atoms: N_22  and  C_23 
ROOT
HETATM    1  N   UNL     1      -8.541   2.580 -32.401  1.00  0.00    -0.216 N 
HETATM    2  N   UNL     1      -7.366   3.267 -32.642  1.00  0.00    -0.153 NA
HETATM    3  C   UNL     1      -6.507   2.342 -32.985  1.00  0.00     0.160 A 
HETATM    4  N   UNL     1      -7.013   1.083 -33.018  1.00  0.00    -0.272 N 
HETATM    5  C   UNL     1      -8.341   1.202 -32.616  1.00  0.00     0.204 A 
HETATM    6  S   UNL     1      -9.550   0.061 -32.506  1.00  0.00    -0.038 SA
ENDROOT
BRANCH   1   7
HETATM    7  C   UNL     1      -9.705   3.237 -31.827  1.00  0.00     0.388 C 
BRANCH   7   8
HETATM    8  N   UNL     1     -10.546   3.906 -32.878  1.00  0.00    -0.053 N 
HETATM    9  C   UNL     1     -10.231   3.307 -34.228  1.00  0.00     0.237 C 
HETATM   10  C   UNL     1     -11.049   3.982 -35.321  1.00  0.00     0.042 C 
HETATM   11  C   UNL     1     -12.549   3.895 -35.038  1.00  0.00     0.081 C 
HETATM   12  C   UNL     1     -12.850   4.481 -33.656  1.00  0.00     0.042 C 
HETATM   13  C   UNL     1     -12.013   3.878 -32.533  1.00  0.00     0.237 C 
HETATM   14  H   UNL     1     -10.244   4.891 -32.894  1.00  0.00     0.281 HD
BRANCH  11  15
HETATM   15  C   UNL     1     -13.002   2.442 -35.142  1.00  0.00     0.221 C 
HETATM   16  N   UNL     1     -14.046   2.109 -34.318  1.00  0.00    -0.361 N 
HETATM   17  H   UNL     1     -14.286   2.713 -33.540  1.00  0.00     0.162 HD
HETATM   18  O   UNL     1     -12.533   1.687 -35.988  1.00  0.00    -0.273 OA
BRANCH  16  19
HETATM   19  C   UNL     1     -14.594   0.764 -34.290  1.00  0.00     0.118 C 
HETATM   20  C   UNL     1     -13.651  -0.217 -33.618  1.00  0.00     0.026 C 
ENDBRANCH  16  19
ENDBRANCH  11  15
ENDBRANCH   7   8
ENDBRANCH   1   7
BRANCH   3  21
HETATM   21  C   UNL     1      -5.042   2.678 -33.251  1.00  0.00     0.315 C 
BRANCH  21  22
HETATM   22  N   UNL     1      -4.603   3.989 -32.590  1.00  0.00    -0.064 N 
HETATM   23  H   UNL     1      -5.310   4.188 -31.866  1.00  0.00     0.280 HD
HETATM   24  C   UNL     1      -3.268   3.875 -31.886  1.00  0.00     0.235 C 
HETATM   25  C   UNL     1      -2.996   5.164 -31.122  1.00  0.00     0.028 C 
HETATM   26  C   UNL     1      -3.030   6.380 -32.041  1.00  0.00     0.003 C 
HETATM   27  C   UNL     1      -4.333   6.441 -32.830  1.00  0.00     0.028 C 
HETATM   28  C   UNL     1      -4.611   5.142 -33.571  1.00  0.00     0.235 C 
ENDBRANCH  21  22
ENDBRANCH   3  21
BRANCH   4  29
HETATM   29  C   UNL     1      -6.332  -0.092 -33.408  1.00  0.00     0.043 A 
HETATM   30  C   UNL     1      -6.684  -0.774 -34.579  1.00  0.00     0.030 A 
HETATM   31  C   UNL     1      -6.018  -1.945 -34.949  1.00  0.00     0.002 A 
HETATM   32  C   UNL     1      -4.990  -2.445 -34.155  1.00  0.00     0.000 A 
HETATM   33  C   UNL     1      -4.622  -1.774 -32.994  1.00  0.00     0.002 A 
HETATM   34  C   UNL     1      -5.288  -0.603 -32.621  1.00  0.00     0.030 A 
ENDBRANCH   4  29
TORSDOF 7
ENDMDL
