MODEL 1
REMARK VINA RESULT:      -9.4      0.000      0.000
REMARK  7 active torsions:
REMARK  status: ('A' for Active; 'I' for Inactive)
REMARK    1  A    between atoms: C_2  and  O_3 
REMARK    2  A    between atoms: O_3  and  C_4 
REMARK    3  A    between atoms: C_4  and  C_5 
REMARK    4  A    between atoms: C_8  and  N_9 
REMARK    5  A    between atoms: C_12  and  N_13 
REMARK    6  A    between atoms: C_17  and  O_18 
REMARK    7  A    between atoms: C_17  and  C_19 
ROOT
HETATM    1  N   UNL     1      -4.435   1.682 -31.517  1.00  0.00    -0.251 N 
HETATM    2  C   UNL     1      -3.554   2.673 -31.885  1.00  0.00     0.262 C 
HETATM    3  O   UNL     1      -2.733   2.728 -32.789  1.00  0.00    -0.270 OA
HETATM    4  C   UNL     1      -3.755   3.833 -30.940  1.00  0.00     0.289 C 
HETATM    5  C   UNL     1      -5.168   3.647 -30.448  1.00  0.00     0.146 C 
HETATM    6  C   UNL     1      -5.355   2.166 -30.607  1.00  0.00     0.233 C 
HETATM    7  O   UNL     1      -6.223   1.577 -29.982  1.00  0.00    -0.273 OA
ENDROOT
BRANCH   4   8
HETATM    8  N   UNL     1      -3.460   5.227 -31.527  1.00  0.00    -0.058 N 
HETATM    9  H   UNL     1      -4.037   5.260 -32.386  1.00  0.00     0.281 HD
HETATM   10  C   UNL     1      -3.953   6.396 -30.699  1.00  0.00     0.239 C 
HETATM   11  C   UNL     1      -3.593   7.716 -31.363  1.00  0.00     0.071 C 
HETATM   12  C   UNL     1      -2.078   7.838 -31.625  1.00  0.00     0.088 C 
HETATM   13  C   UNL     1      -1.736   6.684 -32.587  1.00  0.00     0.071 C 
HETATM   14  C   UNL     1      -2.016   5.332 -31.960  1.00  0.00     0.239 C 
BRANCH  12  15
HETATM   15  O   UNL     1      -1.881   9.049 -32.354  1.00  0.00    -0.385 OA
HETATM   16  H   UNL     1      -0.948   9.325 -32.291  1.00  0.00     0.211 HD
ENDBRANCH  12  15
BRANCH  12  17
HETATM   17  C   UNL     1      -1.204   7.891 -30.364  1.00  0.00    -0.024 A 
HETATM   18  C   UNL     1      -0.002   7.162 -30.273  1.00  0.00     0.011 A 
HETATM   19  C   UNL     1       0.769   7.166 -29.105  1.00  0.00     0.020 A 
HETATM   20  C   UNL     1       0.370   7.927 -28.015  1.00  0.00     0.011 A 
HETATM   21 BR   UNL     1       1.395   7.916 -26.429  1.00  0.00    -0.051 Br
HETATM   22  C   UNL     1      -0.776   8.709 -28.095  1.00  0.00     0.020 A 
HETATM   23  C   UNL     1      -1.546   8.702 -29.265  1.00  0.00     0.011 A 
ENDBRANCH  12  17
ENDBRANCH   4   8
BRANCH   1  24
HETATM   24  C   UNL     1      -4.367   0.324 -31.952  1.00  0.00     0.045 A 
HETATM   25  C   UNL     1      -5.197  -0.158 -32.977  1.00  0.00     0.031 A 
HETATM   26  C   UNL     1      -5.038  -1.453 -33.495  1.00  0.00     0.020 A 
HETATM   27  C   UNL     1      -4.053  -2.306 -32.990  1.00  0.00     0.039 A 
HETATM   28  C   UNL     1      -3.266  -1.865 -31.926  1.00  0.00     0.020 A 
HETATM   29  C   UNL     1      -3.424  -0.568 -31.418  1.00  0.00     0.031 A 
BRANCH  27  30
HETATM   30  C   UNL     1      -3.847  -3.626 -33.646  1.00  0.00     0.293 C 
HETATM   31  O   UNL     1      -3.161  -4.511 -33.162  1.00  0.00    -0.259 OA
BRANCH  30  32
HETATM   32  O   UNL     1      -4.577  -3.700 -34.785  1.00  0.00    -0.318 OA
BRANCH  32  33
HETATM   33  C   UNL     1      -5.493  -4.802 -34.880  1.00  0.00     0.174 C 
HETATM   34  C   UNL     1      -6.915  -4.270 -34.864  1.00  0.00     0.034 C 
ENDBRANCH  32  33
ENDBRANCH  30  32
ENDBRANCH  27  30
ENDBRANCH   1  24
TORSDOF 7
ENDMDL
MODEL 2
REMARK VINA RESULT:      -9.1      4.168      5.118
REMARK  7 active torsions:
REMARK  status: ('A' for Active; 'I' for Inactive)
REMARK    1  A    between atoms: C_2  and  O_3 
REMARK    2  A    between atoms: O_3  and  C_4 
REMARK    3  A    between atoms: C_4  and  C_5 
REMARK    4  A    between atoms: C_8  and  N_9 
REMARK    5  A    between atoms: C_12  and  N_13 
REMARK    6  A    between atoms: C_17  and  O_18 
REMARK    7  A    between atoms: C_17  and  C_19 
ROOT
HETATM    1  N   UNL     1      -7.215   2.894 -32.068  1.00  0.00    -0.251 N 
HETATM    2  C   UNL     1      -6.232   3.110 -33.006  1.00  0.00     0.262 C 
HETATM    3  O   UNL     1      -6.253   3.046 -34.226  1.00  0.00    -0.270 OA
HETATM    4  C   UNL     1      -4.975   3.502 -32.265  1.00  0.00     0.289 C 
HETATM    5  C   UNL     1      -5.493   4.057 -30.963  1.00  0.00     0.146 C 
HETATM    6  C   UNL     1      -6.808   3.348 -30.828  1.00  0.00     0.233 C 
HETATM    7  O   UNL     1      -7.354   3.247 -29.740  1.00  0.00    -0.273 OA
ENDROOT
BRANCH   4   8
HETATM    8  N   UNL     1      -4.020   4.440 -33.027  1.00  0.00    -0.058 N 
HETATM    9  H   UNL     1      -4.366   4.405 -34.002  1.00  0.00     0.281 HD
HETATM   10  C   UNL     1      -4.112   5.904 -32.649  1.00  0.00     0.239 C 
HETATM   11  C   UNL     1      -3.117   6.731 -33.448  1.00  0.00     0.071 C 
HETATM   12  C   UNL     1      -1.672   6.218 -33.281  1.00  0.00     0.088 C 
HETATM   13  C   UNL     1      -1.683   4.778 -33.831  1.00  0.00     0.071 C 
HETATM   14  C   UNL     1      -2.615   3.884 -33.036  1.00  0.00     0.239 C 
BRANCH  12  15
HETATM   15  O   UNL     1      -0.856   6.986 -34.165  1.00  0.00    -0.385 OA
HETATM   16  H   UNL     1       0.072   6.696 -34.094  1.00  0.00     0.211 HD
ENDBRANCH  12  15
BRANCH  12  17
HETATM   17  C   UNL     1      -1.098   6.349 -31.864  1.00  0.00    -0.024 A 
HETATM   18  C   UNL     1      -1.481   7.403 -31.011  1.00  0.00     0.011 A 
HETATM   19  C   UNL     1      -0.919   7.555 -29.738  1.00  0.00     0.020 A 
HETATM   20  C   UNL     1       0.013   6.635 -29.279  1.00  0.00     0.011 A 
HETATM   21 BR   UNL     1       0.790   6.852 -27.572  1.00  0.00    -0.051 Br
HETATM   22  C   UNL     1       0.364   5.548 -30.068  1.00  0.00     0.020 A 
HETATM   23  C   UNL     1      -0.199   5.399 -31.342  1.00  0.00     0.011 A 
ENDBRANCH  12  17
ENDBRANCH   4   8
BRANCH   1  24
HETATM   24  C   UNL     1      -8.452   2.226 -32.318  1.00  0.00     0.045 A 
HETATM   25  C   UNL     1      -9.612   2.940 -32.661  1.00  0.00     0.031 A 
HETATM   26  C   UNL     1     -10.791   2.277 -33.037  1.00  0.00     0.020 A 
HETATM   27  C   UNL     1     -10.845   0.881 -33.065  1.00  0.00     0.039 A 
HETATM   28  C   UNL     1      -9.721   0.158 -32.662  1.00  0.00     0.020 A 
HETATM   29  C   UNL     1      -8.544   0.825 -32.295  1.00  0.00     0.031 A 
BRANCH  27  30
HETATM   30  C   UNL     1     -12.077   0.224 -33.578  1.00  0.00     0.293 C 
HETATM   31  O   UNL     1     -12.445  -0.881 -33.214  1.00  0.00    -0.259 OA
BRANCH  30  32
HETATM   32  O   UNL     1     -12.731   1.055 -34.425  1.00  0.00    -0.318 OA
BRANCH  32  33
HETATM   33  C   UNL     1     -14.162   1.084 -34.307  1.00  0.00     0.174 C 
HETATM   34  C   UNL     1     -14.544   1.882 -33.074  1.00  0.00     0.034 C 
ENDBRANCH  32  33
ENDBRANCH  30  32
ENDBRANCH  27  30
ENDBRANCH   1  24
TORSDOF 7
ENDMDL
MODEL 3
REMARK VINA RESULT:      -8.6      4.077     10.346
REMARK  7 active torsions:
REMARK  status: ('A' for Active; 'I' for Inactive)
REMARK    1  A    between atoms: C_2  and  O_3 
REMARK    2  A    between atoms: O_3  and  C_4 
REMARK    3  A    between atoms: C_4  and  C_5 
REMARK    4  A    between atoms: C_8  and  N_9 
REMARK    5  A    between atoms: C_12  and  N_13 
REMARK    6  A    between atoms: C_17  and  O_18 
REMARK    7  A    between atoms: C_17  and  C_19 
ROOT
HETATM    1  N   UNL     1      -2.298   5.661 -31.220  1.00  0.00    -0.251 N 
HETATM    2  C   UNL     1      -3.562   5.222 -30.898  1.00  0.00     0.262 C 
HETATM    3  O   UNL     1      -4.358   5.603 -30.053  1.00  0.00    -0.270 OA
HETATM    4  C   UNL     1      -3.900   4.087 -31.837  1.00  0.00     0.289 C 
HETATM    5  C   UNL     1      -3.019   4.345 -33.033  1.00  0.00     0.146 C 
HETATM    6  C   UNL     1      -1.886   5.113 -32.419  1.00  0.00     0.233 C 
HETATM    7  O   UNL     1      -0.804   5.184 -32.981  1.00  0.00    -0.273 OA
ENDROOT
BRANCH   4   8
HETATM    8  N   UNL     1      -5.396   3.922 -32.167  1.00  0.00    -0.058 N 
HETATM    9  H   UNL     1      -5.812   4.827 -31.883  1.00  0.00     0.281 HD
HETATM   10  C   UNL     1      -5.724   3.802 -33.641  1.00  0.00     0.239 C 
HETATM   11  C   UNL     1      -7.221   3.627 -33.846  1.00  0.00     0.071 C 
HETATM   12  C   UNL     1      -7.775   2.416 -33.067  1.00  0.00     0.088 C 
HETATM   13  C   UNL     1      -7.506   2.728 -31.583  1.00  0.00     0.071 C 
HETATM   14  C   UNL     1      -6.022   2.856 -31.298  1.00  0.00     0.239 C 
BRANCH  12  15
HETATM   15  O   UNL     1      -9.191   2.428 -33.238  1.00  0.00    -0.385 OA
HETATM   16  H   UNL     1      -9.599   3.012 -32.572  1.00  0.00     0.211 HD
ENDBRANCH  12  15
BRANCH  12  17
HETATM   17  C   UNL     1      -7.248   1.052 -33.533  1.00  0.00    -0.024 A 
HETATM   18  C   UNL     1      -6.760   0.101 -32.614  1.00  0.00     0.011 A 
HETATM   19  C   UNL     1      -6.229  -1.123 -33.039  1.00  0.00     0.020 A 
HETATM   20  C   UNL     1      -6.208  -1.434 -34.392  1.00  0.00     0.011 A 
HETATM   21 BR   UNL     1      -5.471  -3.073 -34.971  1.00  0.00    -0.051 Br
HETATM   22  C   UNL     1      -6.741  -0.547 -35.318  1.00  0.00     0.020 A 
HETATM   23  C   UNL     1      -7.270   0.677 -34.889  1.00  0.00     0.011 A 
ENDBRANCH  12  17
ENDBRANCH   4   8
BRANCH   1  24
HETATM   24  C   UNL     1      -1.491   6.504 -30.397  1.00  0.00     0.045 A 
HETATM   25  C   UNL     1      -1.846   7.841 -30.150  1.00  0.00     0.031 A 
HETATM   26  C   UNL     1      -1.128   8.628 -29.236  1.00  0.00     0.020 A 
HETATM   27  C   UNL     1      -0.025   8.103 -28.556  1.00  0.00     0.039 A 
HETATM   28  C   UNL     1       0.379   6.799 -28.841  1.00  0.00     0.020 A 
HETATM   29  C   UNL     1      -0.346   6.014 -29.749  1.00  0.00     0.031 A 
BRANCH  27  30
HETATM   30  C   UNL     1       0.635   8.936 -27.515  1.00  0.00     0.293 C 
HETATM   31  O   UNL     1       0.172   9.991 -27.112  1.00  0.00    -0.259 OA
BRANCH  30  32
HETATM   32  O   UNL     1       1.749   8.316 -27.058  1.00  0.00    -0.318 OA
BRANCH  32  33
HETATM   33  C   UNL     1       1.798   8.057 -25.647  1.00  0.00     0.174 C 
HETATM   34  C   UNL     1       2.843   8.955 -25.011  1.00  0.00     0.034 C 
ENDBRANCH  32  33
ENDBRANCH  30  32
ENDBRANCH  27  30
ENDBRANCH   1  24
TORSDOF 7
ENDMDL
MODEL 4
REMARK VINA RESULT:      -8.5      4.466     10.453
REMARK  7 active torsions:
REMARK  status: ('A' for Active; 'I' for Inactive)
REMARK    1  A    between atoms: C_2  and  O_3 
REMARK    2  A    between atoms: O_3  and  C_4 
REMARK    3  A    between atoms: C_4  and  C_5 
REMARK    4  A    between atoms: C_8  and  N_9 
REMARK    5  A    between atoms: C_12  and  N_13 
REMARK    6  A    between atoms: C_17  and  O_18 
REMARK    7  A    between atoms: C_17  and  C_19 
ROOT
HETATM    1  N   UNL     1      -0.638   6.100 -29.862  1.00  0.00    -0.251 N 
HETATM    2  C   UNL     1      -1.997   6.196 -30.054  1.00  0.00     0.262 C 
HETATM    3  O   UNL     1      -2.822   6.979 -29.606  1.00  0.00    -0.270 OA
HETATM    4  C   UNL     1      -2.399   5.100 -31.013  1.00  0.00     0.289 C 
HETATM    5  C   UNL     1      -1.128   4.811 -31.769  1.00  0.00     0.146 C 
HETATM    6  C   UNL     1      -0.080   5.233 -30.782  1.00  0.00     0.233 C 
HETATM    7  O   UNL     1       1.065   4.818 -30.872  1.00  0.00    -0.273 OA
ENDROOT
BRANCH   4   8
HETATM    8  N   UNL     1      -3.617   5.411 -31.903  1.00  0.00    -0.058 N 
HETATM    9  H   UNL     1      -3.659   6.445 -31.911  1.00  0.00     0.281 HD
HETATM   10  C   UNL     1      -3.469   5.028 -33.361  1.00  0.00     0.239 C 
HETATM   11  C   UNL     1      -4.733   5.364 -34.137  1.00  0.00     0.071 C 
HETATM   12  C   UNL     1      -5.982   4.695 -33.527  1.00  0.00     0.088 C 
HETATM   13  C   UNL     1      -6.100   5.274 -32.104  1.00  0.00     0.071 C 
HETATM   14  C   UNL     1      -4.893   4.922 -31.255  1.00  0.00     0.239 C 
BRANCH  12  15
HETATM   15  O   UNL     1      -7.108   5.178 -34.259  1.00  0.00    -0.385 OA
HETATM   16  H   UNL     1      -7.894   5.194 -33.683  1.00  0.00     0.211 HD
ENDBRANCH  12  15
BRANCH  12  17
HETATM   17  C   UNL     1      -5.991   3.162 -33.589  1.00  0.00    -0.024 A 
HETATM   18  C   UNL     1      -5.253   2.385 -32.674  1.00  0.00     0.011 A 
HETATM   19  C   UNL     1      -5.217   0.988 -32.762  1.00  0.00     0.020 A 
HETATM   20  C   UNL     1      -5.947   0.338 -33.747  1.00  0.00     0.011 A 
HETATM   21 BR   UNL     1      -5.881  -1.544 -33.883  1.00  0.00    -0.051 Br
HETATM   22  C   UNL     1      -6.737   1.070 -34.624  1.00  0.00     0.020 A 
HETATM   23  C   UNL     1      -6.770   2.467 -34.534  1.00  0.00     0.011 A 
ENDBRANCH  12  17
ENDBRANCH   4   8
BRANCH   1  24
HETATM   24  C   UNL     1       0.088   6.743 -28.814  1.00  0.00     0.045 A 
HETATM   25  C   UNL     1       0.886   7.872 -29.064  1.00  0.00     0.031 A 
HETATM   26  C   UNL     1       1.490   8.582 -28.015  1.00  0.00     0.020 A 
HETATM   27  C   UNL     1       1.325   8.173 -26.689  1.00  0.00     0.039 A 
HETATM   28  C   UNL     1       0.592   7.015 -26.431  1.00  0.00     0.020 A 
HETATM   29  C   UNL     1      -0.017   6.313 -27.482  1.00  0.00     0.031 A 
BRANCH  27  30
HETATM   30  C   UNL     1       1.890   9.021 -25.604  1.00  0.00     0.293 C 
HETATM   31  O   UNL     1       1.621  10.204 -25.474  1.00  0.00    -0.259 OA
BRANCH  30  32
HETATM   32  O   UNL     1       2.661   8.272 -24.780  1.00  0.00    -0.318 OA
BRANCH  32  33
HETATM   33  C   UNL     1       3.477   8.993 -23.844  1.00  0.00     0.174 C 
HETATM   34  C   UNL     1       3.101   8.580 -22.433  1.00  0.00     0.034 C 
ENDBRANCH  32  33
ENDBRANCH  30  32
ENDBRANCH  27  30
ENDBRANCH   1  24
TORSDOF 7
ENDMDL
MODEL 5
REMARK VINA RESULT:      -8.5      4.948     10.149
REMARK  7 active torsions:
REMARK  status: ('A' for Active; 'I' for Inactive)
REMARK    1  A    between atoms: C_2  and  O_3 
REMARK    2  A    between atoms: O_3  and  C_4 
REMARK    3  A    between atoms: C_4  and  C_5 
REMARK    4  A    between atoms: C_8  and  N_9 
REMARK    5  A    between atoms: C_12  and  N_13 
REMARK    6  A    between atoms: C_17  and  O_18 
REMARK    7  A    between atoms: C_17  and  C_19 
ROOT
HETATM    1  N   UNL     1      -4.435   4.115 -32.643  1.00  0.00    -0.251 N 
HETATM    2  C   UNL     1      -4.891   2.845 -32.374  1.00  0.00     0.262 C 
HETATM    3  O   UNL     1      -4.664   2.086 -31.443  1.00  0.00    -0.270 OA
HETATM    4  C   UNL     1      -5.835   2.456 -33.487  1.00  0.00     0.289 C 
HETATM    5  C   UNL     1      -6.311   3.781 -34.025  1.00  0.00     0.146 C 
HETATM    6  C   UNL     1      -5.170   4.687 -33.664  1.00  0.00     0.233 C 
HETATM    7  O   UNL     1      -5.009   5.749 -34.245  1.00  0.00    -0.273 OA
ENDROOT
BRANCH   4   8
HETATM    8  N   UNL     1      -6.962   1.483 -33.093  1.00  0.00    -0.058 N 
HETATM    9  H   UNL     1      -6.458   0.672 -32.692  1.00  0.00     0.281 HD
HETATM   10  C   UNL     1      -7.865   1.957 -31.973  1.00  0.00     0.239 C 
HETATM   11  C   UNL     1      -8.946   0.928 -31.681  1.00  0.00     0.071 C 
HETATM   12  C   UNL     1      -9.775   0.587 -32.936  1.00  0.00     0.088 C 
HETATM   13  C   UNL     1      -8.769  -0.015 -33.937  1.00  0.00     0.071 C 
HETATM   14  C   UNL     1      -7.694   0.985 -34.318  1.00  0.00     0.239 C 
BRANCH  12  15
HETATM   15  O   UNL     1     -10.665  -0.466 -32.570  1.00  0.00    -0.385 OA
HETATM   16  H   UNL     1     -11.588  -0.182 -32.707  1.00  0.00     0.211 HD
ENDBRANCH  12  15
BRANCH  12  17
HETATM   17  C   UNL     1     -10.609   1.747 -33.496  1.00  0.00    -0.024 A 
HETATM   18  C   UNL     1     -11.320   1.622 -34.706  1.00  0.00     0.011 A 
HETATM   19  C   UNL     1     -12.039   2.695 -35.247  1.00  0.00     0.020 A 
HETATM   20  C   UNL     1     -12.088   3.905 -34.569  1.00  0.00     0.011 A 
HETATM   21 BR   UNL     1     -13.036   5.362 -35.307  1.00  0.00    -0.051 Br
HETATM   22  C   UNL     1     -11.453   4.041 -33.342  1.00  0.00     0.020 A 
HETATM   23  C   UNL     1     -10.734   2.966 -32.804  1.00  0.00     0.011 A 
ENDBRANCH  12  17
ENDBRANCH   4   8
BRANCH   1  24
HETATM   24  C   UNL     1      -3.312   4.731 -32.013  1.00  0.00     0.045 A 
HETATM   25  C   UNL     1      -1.999   4.469 -32.439  1.00  0.00     0.031 A 
HETATM   26  C   UNL     1      -0.907   5.174 -31.910  1.00  0.00     0.020 A 
HETATM   27  C   UNL     1      -1.098   6.152 -30.930  1.00  0.00     0.039 A 
HETATM   28  C   UNL     1      -2.388   6.376 -30.449  1.00  0.00     0.020 A 
HETATM   29  C   UNL     1      -3.476   5.674 -30.986  1.00  0.00     0.031 A 
BRANCH  27  30
HETATM   30  C   UNL     1       0.074   6.952 -30.482  1.00  0.00     0.293 C 
HETATM   31  O   UNL     1       1.086   7.084 -31.150  1.00  0.00    -0.259 OA
BRANCH  30  32
HETATM   32  O   UNL     1      -0.191   7.542 -29.291  1.00  0.00    -0.318 OA
BRANCH  32  33
HETATM   33  C   UNL     1       0.702   7.225 -28.213  1.00  0.00     0.174 C 
HETATM   34  C   UNL     1       1.496   8.465 -27.843  1.00  0.00     0.034 C 
ENDBRANCH  32  33
ENDBRANCH  30  32
ENDBRANCH  27  30
ENDBRANCH   1  24
TORSDOF 7
ENDMDL
MODEL 6
REMARK VINA RESULT:      -8.3      2.269      3.330
REMARK  7 active torsions:
REMARK  status: ('A' for Active; 'I' for Inactive)
REMARK    1  A    between atoms: C_2  and  O_3 
REMARK    2  A    between atoms: O_3  and  C_4 
REMARK    3  A    between atoms: C_4  and  C_5 
REMARK    4  A    between atoms: C_8  and  N_9 
REMARK    5  A    between atoms: C_12  and  N_13 
REMARK    6  A    between atoms: C_17  and  O_18 
REMARK    7  A    between atoms: C_17  and  C_19 
ROOT
HETATM    1  N   UNL     1      -5.203   2.582 -32.052  1.00  0.00    -0.251 N 
HETATM    2  C   UNL     1      -6.114   3.377 -31.395  1.00  0.00     0.262 C 
HETATM    3  O   UNL     1      -7.197   3.117 -30.892  1.00  0.00    -0.270 OA
HETATM    4  C   UNL     1      -5.542   4.774 -31.344  1.00  0.00     0.289 C 
HETATM    5  C   UNL     1      -4.057   4.553 -31.467  1.00  0.00     0.146 C 
HETATM    6  C   UNL     1      -4.002   3.247 -32.205  1.00  0.00     0.233 C 
HETATM    7  O   UNL     1      -2.995   2.917 -32.813  1.00  0.00    -0.273 OA
ENDROOT
BRANCH   4   8
HETATM    8  N   UNL     1      -5.965   5.620 -30.127  1.00  0.00    -0.058 N 
HETATM    9  H   UNL     1      -6.993   5.499 -30.088  1.00  0.00     0.281 HD
HETATM   10  C   UNL     1      -5.476   5.114 -28.785  1.00  0.00     0.239 C 
HETATM   11  C   UNL     1      -5.937   6.032 -27.664  1.00  0.00     0.071 C 
HETATM   12  C   UNL     1      -5.489   7.491 -27.888  1.00  0.00     0.088 C 
HETATM   13  C   UNL     1      -6.166   7.928 -29.202  1.00  0.00     0.071 C 
HETATM   14  C   UNL     1      -5.702   7.087 -30.376  1.00  0.00     0.239 C 
BRANCH  12  15
HETATM   15  O   UNL     1      -6.078   8.269 -26.847  1.00  0.00    -0.385 OA
HETATM   16  H   UNL     1      -6.884   8.708 -27.178  1.00  0.00     0.211 HD
ENDBRANCH  12  15
BRANCH  12  17
HETATM   17  C   UNL     1      -3.971   7.716 -27.854  1.00  0.00    -0.024 A 
HETATM   18  C   UNL     1      -3.346   8.641 -28.712  1.00  0.00     0.011 A 
HETATM   19  C   UNL     1      -1.956   8.810 -28.720  1.00  0.00     0.020 A 
HETATM   20  C   UNL     1      -1.166   8.078 -27.843  1.00  0.00     0.011 A 
HETATM   21 BR   UNL     1       0.710   8.285 -27.868  1.00  0.00    -0.051 Br
HETATM   22  C   UNL     1      -1.757   7.205 -26.939  1.00  0.00     0.020 A 
HETATM   23  C   UNL     1      -3.147   7.039 -26.934  1.00  0.00     0.011 A 
ENDBRANCH  12  17
ENDBRANCH   4   8
BRANCH   1  24
HETATM   24  C   UNL     1      -5.478   1.282 -32.574  1.00  0.00     0.045 A 
HETATM   25  C   UNL     1      -6.226   1.109 -33.750  1.00  0.00     0.031 A 
HETATM   26  C   UNL     1      -6.383  -0.158 -34.334  1.00  0.00     0.020 A 
HETATM   27  C   UNL     1      -5.807  -1.289 -33.749  1.00  0.00     0.039 A 
HETATM   28  C   UNL     1      -5.117  -1.142 -32.545  1.00  0.00     0.020 A 
HETATM   29  C   UNL     1      -4.958   0.126 -31.969  1.00  0.00     0.031 A 
BRANCH  27  30
HETATM   30  C   UNL     1      -5.903  -2.590 -34.463  1.00  0.00     0.293 C 
HETATM   31  O   UNL     1      -6.962  -3.075 -34.827  1.00  0.00    -0.259 OA
BRANCH  30  32
HETATM   32  O   UNL     1      -4.664  -3.088 -34.694  1.00  0.00    -0.318 OA
BRANCH  32  33
HETATM   33  C   UNL     1      -4.439  -4.446 -34.285  1.00  0.00     0.174 C 
HETATM   34  C   UNL     1      -3.425  -4.464 -33.156  1.00  0.00     0.034 C 
ENDBRANCH  32  33
ENDBRANCH  30  32
ENDBRANCH  27  30
ENDBRANCH   1  24
TORSDOF 7
ENDMDL
MODEL 7
REMARK VINA RESULT:      -8.1      1.591      2.093
REMARK  7 active torsions:
REMARK  status: ('A' for Active; 'I' for Inactive)
REMARK    1  A    between atoms: C_2  and  O_3 
REMARK    2  A    between atoms: O_3  and  C_4 
REMARK    3  A    between atoms: C_4  and  C_5 
REMARK    4  A    between atoms: C_8  and  N_9 
REMARK    5  A    between atoms: C_12  and  N_13 
REMARK    6  A    between atoms: C_17  and  O_18 
REMARK    7  A    between atoms: C_17  and  C_19 
ROOT
HETATM    1  N   UNL     1      -5.608   2.559 -32.049  1.00  0.00    -0.251 N 
HETATM    2  C   UNL     1      -4.503   3.364 -32.203  1.00  0.00     0.262 C 
HETATM    3  O   UNL     1      -3.562   3.303 -32.980  1.00  0.00    -0.270 OA
HETATM    4  C   UNL     1      -4.609   4.479 -31.189  1.00  0.00     0.289 C 
HETATM    5  C   UNL     1      -6.088   4.562 -30.910  1.00  0.00     0.146 C 
HETATM    6  C   UNL     1      -6.539   3.167 -31.229  1.00  0.00     0.233 C 
HETATM    7  O   UNL     1      -7.591   2.734 -30.783  1.00  0.00    -0.273 OA
ENDROOT
BRANCH   4   8
HETATM    8  N   UNL     1      -3.959   5.814 -31.599  1.00  0.00    -0.058 N 
HETATM    9  H   UNL     1      -4.000   5.800 -32.634  1.00  0.00     0.281 HD
HETATM   10  C   UNL     1      -4.732   7.057 -31.209  1.00  0.00     0.239 C 
HETATM   11  C   UNL     1      -3.991   8.311 -31.648  1.00  0.00     0.071 C 
HETATM   12  C   UNL     1      -2.557   8.364 -31.082  1.00  0.00     0.088 C 
HETATM   13  C   UNL     1      -1.842   7.131 -31.665  1.00  0.00     0.071 C 
HETATM   14  C   UNL     1      -2.498   5.839 -31.215  1.00  0.00     0.239 C 
BRANCH  12  15
HETATM   15  O   UNL     1      -1.929   9.510 -31.656  1.00  0.00    -0.385 OA
HETATM   16  H   UNL     1      -1.784  10.187 -30.969  1.00  0.00     0.211 HD
ENDBRANCH  12  15
BRANCH  12  17
HETATM   17  C   UNL     1      -2.468   8.484 -29.554  1.00  0.00    -0.024 A 
HETATM   18  C   UNL     1      -1.343   8.017 -28.845  1.00  0.00     0.011 A 
HETATM   19  C   UNL     1      -1.283   8.076 -27.448  1.00  0.00     0.020 A 
HETATM   20  C   UNL     1      -2.332   8.636 -26.734  1.00  0.00     0.011 A 
HETATM   21 BR   UNL     1      -2.264   8.696 -24.848  1.00  0.00    -0.051 Br
HETATM   22  C   UNL     1      -3.426   9.166 -27.405  1.00  0.00     0.020 A 
HETATM   23  C   UNL     1      -3.485   9.104 -28.803  1.00  0.00     0.011 A 
ENDBRANCH  12  17
ENDBRANCH   4   8
BRANCH   1  24
HETATM   24  C   UNL     1      -5.746   1.247 -32.595  1.00  0.00     0.045 A 
HETATM   25  C   UNL     1      -6.448   1.023 -33.791  1.00  0.00     0.031 A 
HETATM   26  C   UNL     1      -6.469  -0.243 -34.396  1.00  0.00     0.020 A 
HETATM   27  C   UNL     1      -5.802  -1.324 -33.813  1.00  0.00     0.039 A 
HETATM   28  C   UNL     1      -5.157  -1.132 -32.591  1.00  0.00     0.020 A 
HETATM   29  C   UNL     1      -5.132   0.136 -31.994  1.00  0.00     0.031 A 
BRANCH  27  30
HETATM   30  C   UNL     1      -5.757  -2.617 -34.547  1.00  0.00     0.293 C 
HETATM   31  O   UNL     1      -6.742  -3.133 -35.050  1.00  0.00    -0.259 OA
BRANCH  30  32
HETATM   32  O   UNL     1      -4.482  -3.068 -34.622  1.00  0.00    -0.318 OA
BRANCH  32  33
HETATM   33  C   UNL     1      -4.263  -4.424 -34.205  1.00  0.00     0.174 C 
HETATM   34  C   UNL     1      -3.358  -4.431 -32.986  1.00  0.00     0.034 C 
ENDBRANCH  32  33
ENDBRANCH  30  32
ENDBRANCH  27  30
ENDBRANCH   1  24
TORSDOF 7
ENDMDL
MODEL 8
REMARK VINA RESULT:      -8.0      1.486      2.120
REMARK  7 active torsions:
REMARK  status: ('A' for Active; 'I' for Inactive)
REMARK    1  A    between atoms: C_2  and  O_3 
REMARK    2  A    between atoms: O_3  and  C_4 
REMARK    3  A    between atoms: C_4  and  C_5 
REMARK    4  A    between atoms: C_8  and  N_9 
REMARK    5  A    between atoms: C_12  and  N_13 
REMARK    6  A    between atoms: C_17  and  O_18 
REMARK    7  A    between atoms: C_17  and  C_19 
ROOT
HETATM    1  N   UNL     1      -4.745   2.454 -31.619  1.00  0.00    -0.251 N 
HETATM    2  C   UNL     1      -4.145   3.637 -31.987  1.00  0.00     0.262 C 
HETATM    3  O   UNL     1      -3.621   3.985 -33.035  1.00  0.00    -0.270 OA
HETATM    4  C   UNL     1      -4.237   4.577 -30.808  1.00  0.00     0.289 C 
HETATM    5  C   UNL     1      -5.420   4.055 -30.032  1.00  0.00     0.146 C 
HETATM    6  C   UNL     1      -5.436   2.609 -30.434  1.00  0.00     0.233 C 
HETATM    7  O   UNL     1      -6.007   1.778 -29.746  1.00  0.00    -0.273 OA
ENDROOT
BRANCH   4   8
HETATM    8  N   UNL     1      -4.312   6.076 -31.158  1.00  0.00    -0.058 N 
HETATM    9  H   UNL     1      -4.749   6.088 -32.096  1.00  0.00     0.281 HD
HETATM   10  C   UNL     1      -5.249   6.896 -30.296  1.00  0.00     0.239 C 
HETATM   11  C   UNL     1      -5.229   8.357 -30.719  1.00  0.00     0.071 C 
HETATM   12  C   UNL     1      -3.805   8.950 -30.688  1.00  0.00     0.088 C 
HETATM   13  C   UNL     1      -2.997   8.123 -31.706  1.00  0.00     0.071 C 
HETATM   14  C   UNL     1      -2.927   6.661 -31.309  1.00  0.00     0.239 C 
BRANCH  12  15
HETATM   15  O   UNL     1      -3.897  10.272 -31.216  1.00  0.00    -0.385 OA
HETATM   16  H   UNL     1      -3.530  10.910 -30.577  1.00  0.00     0.211 HD
ENDBRANCH  12  15
BRANCH  12  17
HETATM   17  C   UNL     1      -3.169   9.034 -29.293  1.00  0.00    -0.024 A 
HETATM   18  C   UNL     1      -3.959   9.083 -28.128  1.00  0.00     0.011 A 
HETATM   19  C   UNL     1      -3.383   9.214 -26.858  1.00  0.00     0.020 A 
HETATM   20  C   UNL     1      -2.002   9.264 -26.728  1.00  0.00     0.011 A 
HETATM   21 BR   UNL     1      -1.224   9.465 -25.019  1.00  0.00    -0.051 Br
HETATM   22  C   UNL     1      -1.193   9.153 -27.851  1.00  0.00     0.020 A 
HETATM   23  C   UNL     1      -1.772   9.023 -29.119  1.00  0.00     0.011 A 
ENDBRANCH  12  17
ENDBRANCH   4   8
BRANCH   1  24
HETATM   24  C   UNL     1      -4.611   1.217 -32.321  1.00  0.00     0.045 A 
HETATM   25  C   UNL     1      -3.450   0.435 -32.208  1.00  0.00     0.031 A 
HETATM   26  C   UNL     1      -3.372  -0.841 -32.788  1.00  0.00     0.020 A 
HETATM   27  C   UNL     1      -4.449  -1.362 -33.511  1.00  0.00     0.039 A 
HETATM   28  C   UNL     1      -5.583  -0.569 -33.688  1.00  0.00     0.020 A 
HETATM   29  C   UNL     1      -5.659   0.701 -33.100  1.00  0.00     0.031 A 
BRANCH  27  30
HETATM   30  C   UNL     1      -4.364  -2.761 -34.010  1.00  0.00     0.293 C 
HETATM   31  O   UNL     1      -3.723  -3.633 -33.447  1.00  0.00    -0.259 OA
BRANCH  30  32
HETATM   32  O   UNL     1      -5.144  -2.912 -35.108  1.00  0.00    -0.318 OA
BRANCH  32  33
HETATM   33  C   UNL     1      -5.705  -4.218 -35.313  1.00  0.00     0.174 C 
HETATM   34  C   UNL     1      -7.104  -4.257 -34.727  1.00  0.00     0.034 C 
ENDBRANCH  32  33
ENDBRANCH  30  32
ENDBRANCH  27  30
ENDBRANCH   1  24
TORSDOF 7
ENDMDL
MODEL 9
REMARK VINA RESULT:      -7.9      2.517      3.409
REMARK  7 active torsions:
REMARK  status: ('A' for Active; 'I' for Inactive)
REMARK    1  A    between atoms: C_2  and  O_3 
REMARK    2  A    between atoms: O_3  and  C_4 
REMARK    3  A    between atoms: C_4  and  C_5 
REMARK    4  A    between atoms: C_8  and  N_9 
REMARK    5  A    between atoms: C_12  and  N_13 
REMARK    6  A    between atoms: C_17  and  O_18 
REMARK    7  A    between atoms: C_17  and  C_19 
ROOT
HETATM    1  N   UNL     1      -6.948   2.479 -31.003  1.00  0.00    -0.251 N 
HETATM    2  C   UNL     1      -6.280   3.433 -30.270  1.00  0.00     0.262 C 
HETATM    3  O   UNL     1      -5.102   3.761 -30.255  1.00  0.00    -0.270 OA
HETATM    4  C   UNL     1      -7.296   4.125 -29.393  1.00  0.00     0.289 C 
HETATM    5  C   UNL     1      -8.597   3.908 -30.122  1.00  0.00     0.146 C 
HETATM    6  C   UNL     1      -8.314   2.649 -30.887  1.00  0.00     0.233 C 
HETATM    7  O   UNL     1      -9.227   1.954 -31.304  1.00  0.00    -0.273 OA
ENDROOT
BRANCH   4   8
HETATM    8  N   UNL     1      -6.989   5.597 -29.054  1.00  0.00    -0.058 N 
HETATM    9  H   UNL     1      -7.888   5.958 -28.688  1.00  0.00     0.281 HD
HETATM   10  C   UNL     1      -6.008   5.809 -27.920  1.00  0.00     0.239 C 
HETATM   11  C   UNL     1      -5.768   7.293 -27.686  1.00  0.00     0.071 C 
HETATM   12  C   UNL     1      -5.283   8.009 -28.963  1.00  0.00     0.088 C 
HETATM   13  C   UNL     1      -6.425   7.842 -29.984  1.00  0.00     0.071 C 
HETATM   14  C   UNL     1      -6.675   6.381 -30.308  1.00  0.00     0.239 C 
BRANCH  12  15
HETATM   15  O   UNL     1      -5.212   9.401 -28.655  1.00  0.00    -0.385 OA
HETATM   16  H   UNL     1      -5.325   9.533 -27.695  1.00  0.00     0.211 HD
ENDBRANCH  12  15
BRANCH  12  17
HETATM   17  C   UNL     1      -3.907   7.561 -29.474  1.00  0.00    -0.024 A 
HETATM   18  C   UNL     1      -2.811   7.416 -28.600  1.00  0.00     0.011 A 
HETATM   19  C   UNL     1      -1.542   7.060 -29.071  1.00  0.00     0.020 A 
HETATM   20  C   UNL     1      -1.351   6.808 -30.423  1.00  0.00     0.011 A 
HETATM   21 BR   UNL     1       0.365   6.351 -31.064  1.00  0.00    -0.051 Br
HETATM   22  C   UNL     1      -2.425   6.878 -31.301  1.00  0.00     0.020 A 
HETATM   23  C   UNL     1      -3.693   7.236 -30.827  1.00  0.00     0.011 A 
ENDBRANCH  12  17
ENDBRANCH   4   8
BRANCH   1  24
HETATM   24  C   UNL     1      -6.324   1.415 -31.722  1.00  0.00     0.045 A 
HETATM   25  C   UNL     1      -5.751   0.319 -31.055  1.00  0.00     0.031 A 
HETATM   26  C   UNL     1      -5.259  -0.788 -31.763  1.00  0.00     0.020 A 
HETATM   27  C   UNL     1      -5.313  -0.822 -33.159  1.00  0.00     0.039 A 
HETATM   28  C   UNL     1      -5.817   0.287 -33.838  1.00  0.00     0.020 A 
HETATM   29  C   UNL     1      -6.315   1.388 -33.126  1.00  0.00     0.031 A 
BRANCH  27  30
HETATM   30  C   UNL     1      -4.884  -2.063 -33.861  1.00  0.00     0.293 C 
HETATM   31  O   UNL     1      -3.969  -2.768 -33.469  1.00  0.00    -0.259 OA
BRANCH  30  32
HETATM   32  O   UNL     1      -5.694  -2.304 -34.920  1.00  0.00    -0.318 OA
BRANCH  32  33
HETATM   33  C   UNL     1      -6.778  -3.217 -34.694  1.00  0.00     0.174 C 
HETATM   34  C   UNL     1      -6.455  -4.546 -35.353  1.00  0.00     0.034 C 
ENDBRANCH  32  33
ENDBRANCH  30  32
ENDBRANCH  27  30
ENDBRANCH   1  24
TORSDOF 7
ENDMDL
MODEL 10
REMARK VINA RESULT:      -7.9      4.588      5.682
REMARK  7 active torsions:
REMARK  status: ('A' for Active; 'I' for Inactive)
REMARK    1  A    between atoms: C_2  and  O_3 
REMARK    2  A    between atoms: O_3  and  C_4 
REMARK    3  A    between atoms: C_4  and  C_5 
REMARK    4  A    between atoms: C_8  and  N_9 
REMARK    5  A    between atoms: C_12  and  N_13 
REMARK    6  A    between atoms: C_17  and  O_18 
REMARK    7  A    between atoms: C_17  and  C_19 
ROOT
HETATM    1  N   UNL     1      -7.490   3.499 -32.752  1.00  0.00    -0.251 N 
HETATM    2  C   UNL     1      -6.249   3.423 -33.342  1.00  0.00     0.262 C 
HETATM    3  O   UNL     1      -5.915   3.146 -34.484  1.00  0.00    -0.270 OA
HETATM    4  C   UNL     1      -5.225   3.782 -32.292  1.00  0.00     0.289 C 
HETATM    5  C   UNL     1      -6.005   4.619 -31.310  1.00  0.00     0.146 C 
HETATM    6  C   UNL     1      -7.402   4.112 -31.517  1.00  0.00     0.233 C 
HETATM    7  O   UNL     1      -8.257   4.274 -30.660  1.00  0.00    -0.273 OA
ENDROOT
BRANCH   4   8
HETATM    8  N   UNL     1      -3.938   4.447 -32.819  1.00  0.00    -0.058 N 
HETATM    9  H   UNL     1      -3.712   3.902 -33.670  1.00  0.00     0.281 HD
HETATM   10  C   UNL     1      -4.100   5.869 -33.314  1.00  0.00     0.239 C 
HETATM   11  C   UNL     1      -2.769   6.427 -33.793  1.00  0.00     0.071 C 
HETATM   12  C   UNL     1      -1.683   6.354 -32.700  1.00  0.00     0.088 C 
HETATM   13  C   UNL     1      -1.515   4.854 -32.391  1.00  0.00     0.071 C 
HETATM   14  C   UNL     1      -2.796   4.248 -31.850  1.00  0.00     0.239 C 
BRANCH  12  15
HETATM   15  O   UNL     1      -0.463   6.787 -33.299  1.00  0.00    -0.385 OA
HETATM   16  H   UNL     1       0.202   6.075 -33.247  1.00  0.00     0.211 HD
ENDBRANCH  12  15
BRANCH  12  17
HETATM   17  C   UNL     1      -1.947   7.228 -31.466  1.00  0.00    -0.024 A 
HETATM   18  C   UNL     1      -1.451   6.874 -30.195  1.00  0.00     0.011 A 
HETATM   19  C   UNL     1      -1.735   7.641 -29.059  1.00  0.00     0.020 A 
HETATM   20  C   UNL     1      -2.493   8.798 -29.178  1.00  0.00     0.011 A 
HETATM   21 BR   UNL     1      -2.897   9.821 -27.643  1.00  0.00    -0.051 Br
HETATM   22  C   UNL     1      -2.941   9.211 -30.425  1.00  0.00     0.020 A 
HETATM   23  C   UNL     1      -2.657   8.440 -31.560  1.00  0.00     0.011 A 
ENDBRANCH  12  17
ENDBRANCH   4   8
BRANCH   1  24
HETATM   24  C   UNL     1      -8.691   2.954 -33.299  1.00  0.00     0.045 A 
HETATM   25  C   UNL     1      -9.157   1.685 -32.921  1.00  0.00     0.031 A 
HETATM   26  C   UNL     1     -10.403   1.207 -33.356  1.00  0.00     0.020 A 
HETATM   27  C   UNL     1     -11.210   1.981 -34.193  1.00  0.00     0.039 A 
HETATM   28  C   UNL     1     -10.731   3.216 -34.632  1.00  0.00     0.020 A 
HETATM   29  C   UNL     1      -9.489   3.692 -34.189  1.00  0.00     0.031 A 
BRANCH  27  30
HETATM   30  C   UNL     1     -12.570   1.482 -34.536  1.00  0.00     0.293 C 
HETATM   31  O   UNL     1     -13.066   1.606 -35.644  1.00  0.00    -0.259 OA
BRANCH  30  32
HETATM   32  O   UNL     1     -13.109   0.832 -33.477  1.00  0.00    -0.318 OA
BRANCH  32  33
HETATM   33  C   UNL     1     -14.467   1.165 -33.152  1.00  0.00     0.174 C 
HETATM   34  C   UNL     1     -14.486   2.448 -32.343  1.00  0.00     0.034 C 
ENDBRANCH  32  33
ENDBRANCH  30  32
ENDBRANCH  27  30
ENDBRANCH   1  24
TORSDOF 7
ENDMDL
