MODEL 1
REMARK VINA RESULT:      -8.9      0.000      0.000
REMARK  7 active torsions:
REMARK  status: ('A' for Active; 'I' for Inactive)
REMARK    1  A    between atoms: C_3  and  N_4 
REMARK       I    between atoms: N_4  and  C_5 
REMARK    2  A    between atoms: C_5  and  C_6 
REMARK    3  A    between atoms: C_7  and  C_8 
REMARK    4  A    between atoms: C_20  and  C_21 
REMARK    5  A    between atoms: C_21  and  C_22 
REMARK    6  A    between atoms: C_22  and  C_23 
REMARK    7  A    between atoms: C_23  and  O_24 
ROOT
HETATM    1  C   UNL     1      -8.459   3.700 -32.675  1.00  0.00     0.062 A 
HETATM    2  C   UNL     1      -7.518   3.376 -33.832  1.00  0.00     0.202 A 
HETATM    3  N   UNL     1      -6.296   4.188 -33.792  1.00  0.00    -0.083 N 
HETATM    4  C   UNL     1      -6.054   5.158 -32.861  1.00  0.00     0.726 A 
HETATM    5  N   UNL     1      -6.963   5.383 -31.897  1.00  0.00    -0.192 N 
HETATM    6  N   UNL     1      -5.340   4.171 -34.745  1.00  0.00    -0.140 NA
HETATM    7  C   UNL     1      -4.499   5.103 -34.270  1.00  0.00     0.166 A 
HETATM    8  N   UNL     1      -4.909   5.733 -33.118  1.00  0.00    -0.046 NA
HETATM    9  C   UNL     1      -8.152   4.675 -31.779  1.00  0.00     0.037 A 
HETATM   10  C   UNL     1      -9.038   5.090 -30.628  1.00  0.00     0.070 C 
HETATM   11  H   UNL     1      -6.769   6.100 -31.203  1.00  0.00     0.184 HD
ENDROOT
BRANCH   1  12
HETATM   12  C   UNL     1      -9.675   2.851 -32.466  1.00  0.00     0.256 C 
HETATM   13  N   UNL     1     -10.736   3.119 -33.309  1.00  0.00    -0.323 N 
HETATM   14  H   UNL     1     -10.555   3.646 -34.148  1.00  0.00     0.169 HD
HETATM   15  O   UNL     1      -9.630   1.936 -31.650  1.00  0.00    -0.267 OA
BRANCH  13  16
HETATM   16  C   UNL     1     -11.944   2.381 -33.331  1.00  0.00     0.041 A 
HETATM   17  C   UNL     1     -13.191   2.868 -32.901  1.00  0.00    -0.035 A 
HETATM   18  C   UNL     1     -13.444   4.288 -32.475  1.00  0.00     0.050 C 
HETATM   19  C   UNL     1     -14.298   1.997 -32.911  1.00  0.00     0.009 A 
HETATM   20  C   UNL     1     -14.187   0.692 -33.389  1.00  0.00     0.001 A 
HETATM   21  C   UNL     1     -12.969   0.239 -33.879  1.00  0.00     0.002 A 
HETATM   22  C   UNL     1     -11.858   1.082 -33.862  1.00  0.00     0.030 A 
ENDBRANCH  13  16
ENDBRANCH   1  12
BRANCH   2  23
HETATM   23  C   UNL     1      -7.158   1.896 -33.949  1.00  0.00    -0.026 A 
HETATM   24  C   UNL     1      -6.324   1.304 -32.982  1.00  0.00     0.035 A 
HETATM   25  C   UNL     1      -5.956  -0.043 -33.079  1.00  0.00     0.056 A 
HETATM   26 CL   UNL     1      -4.899  -0.671 -31.865  1.00  0.00    -0.083 Cl
HETATM   27  C   UNL     1      -6.430  -0.821 -34.138  1.00  0.00     0.055 A 
HETATM   28 CL   UNL     1      -6.013  -2.486 -34.325  1.00  0.00    -0.083 Cl
HETATM   29  C   UNL     1      -7.276  -0.248 -35.092  1.00  0.00     0.026 A 
HETATM   30  C   UNL     1      -7.641   1.099 -34.998  1.00  0.00     0.011 A 
ENDBRANCH   2  23
BRANCH   7  31
HETATM   31  C   UNL     1      -3.230   5.468 -34.949  1.00  0.00     0.085 C 
BRANCH  31  32
HETATM   32  C   UNL     1      -1.993   5.219 -34.089  1.00  0.00     0.034 C 
BRANCH  32  33
HETATM   33  C   UNL     1      -1.141   6.468 -33.888  1.00  0.00     0.164 C 
BRANCH  33  34
HETATM   34  O   UNL     1      -1.843   7.607 -34.374  1.00  0.00    -0.401 OA
HETATM   35  H   UNL     1      -2.794   7.421 -34.293  1.00  0.00     0.209 HD
ENDBRANCH  33  34
ENDBRANCH  32  33
ENDBRANCH  31  32
ENDBRANCH   7  31
TORSDOF 7
ENDMDL
MODEL 2
REMARK VINA RESULT:      -8.9      1.953      7.631
REMARK  7 active torsions:
REMARK  status: ('A' for Active; 'I' for Inactive)
REMARK    1  A    between atoms: C_3  and  N_4 
REMARK       I    between atoms: N_4  and  C_5 
REMARK    2  A    between atoms: C_5  and  C_6 
REMARK    3  A    between atoms: C_7  and  C_8 
REMARK    4  A    between atoms: C_20  and  C_21 
REMARK    5  A    between atoms: C_21  and  C_22 
REMARK    6  A    between atoms: C_22  and  C_23 
REMARK    7  A    between atoms: C_23  and  O_24 
ROOT
HETATM    1  C   UNL     1      -8.636   3.507 -33.207  1.00  0.00     0.062 A 
HETATM    2  C   UNL     1      -9.111   2.091 -32.895  1.00  0.00     0.202 A 
HETATM    3  N   UNL     1     -10.457   1.833 -33.419  1.00  0.00    -0.083 N 
HETATM    4  C   UNL     1     -11.217   2.766 -34.063  1.00  0.00     0.726 A 
HETATM    5  N   UNL     1     -10.715   3.996 -34.263  1.00  0.00    -0.192 N 
HETATM    6  N   UNL     1     -11.151   0.695 -33.204  1.00  0.00    -0.140 NA
HETATM    7  C   UNL     1     -12.302   0.984 -33.832  1.00  0.00     0.166 A 
HETATM    8  N   UNL     1     -12.380   2.249 -34.365  1.00  0.00    -0.046 NA
HETATM    9  C   UNL     1      -9.444   4.385 -33.858  1.00  0.00     0.037 A 
HETATM   10  C   UNL     1      -9.077   5.816 -34.175  1.00  0.00     0.070 C 
HETATM   11  H   UNL     1     -11.286   4.682 -34.752  1.00  0.00     0.184 HD
ENDROOT
BRANCH   1  12
HETATM   12  C   UNL     1      -7.222   3.888 -32.892  1.00  0.00     0.256 C 
HETATM   13  N   UNL     1      -6.310   3.661 -33.903  1.00  0.00    -0.323 N 
HETATM   14  H   UNL     1      -6.659   3.517 -34.837  1.00  0.00     0.169 HD
HETATM   15  O   UNL     1      -6.978   4.447 -31.828  1.00  0.00    -0.267 OA
BRANCH  13  16
HETATM   16  C   UNL     1      -4.943   4.023 -33.841  1.00  0.00     0.041 A 
HETATM   17  C   UNL     1      -4.001   3.462 -32.959  1.00  0.00    -0.035 A 
HETATM   18  C   UNL     1      -4.286   2.305 -32.042  1.00  0.00     0.050 C 
HETATM   19  C   UNL     1      -2.689   3.971 -32.956  1.00  0.00     0.009 A 
HETATM   20  C   UNL     1      -2.299   4.973 -33.844  1.00  0.00     0.001 A 
HETATM   21  C   UNL     1      -3.214   5.473 -34.761  1.00  0.00     0.002 A 
HETATM   22  C   UNL     1      -4.524   4.992 -34.769  1.00  0.00     0.030 A 
ENDBRANCH  13  16
ENDBRANCH   1  12
BRANCH   2  23
HETATM   23  C   UNL     1      -8.151   0.996 -33.356  1.00  0.00    -0.026 A 
HETATM   24  C   UNL     1      -7.255   0.421 -32.434  1.00  0.00     0.035 A 
HETATM   25  C   UNL     1      -6.345  -0.564 -32.834  1.00  0.00     0.056 A 
HETATM   26 CL   UNL     1      -5.262  -1.184 -31.639  1.00  0.00    -0.083 Cl
HETATM   27  C   UNL     1      -6.329  -1.000 -34.162  1.00  0.00     0.055 A 
HETATM   28 CL   UNL     1      -5.231  -2.206 -34.728  1.00  0.00    -0.083 Cl
HETATM   29  C   UNL     1      -7.228  -0.451 -35.080  1.00  0.00     0.026 A 
HETATM   30  C   UNL     1      -8.134   0.537 -34.682  1.00  0.00     0.011 A 
ENDBRANCH   2  23
BRANCH   7  31
HETATM   31  C   UNL     1     -13.437   0.031 -33.919  1.00  0.00     0.085 C 
BRANCH  31  32
HETATM   32  C   UNL     1     -14.760   0.701 -34.285  1.00  0.00     0.034 C 
BRANCH  32  33
HETATM   33  C   UNL     1     -15.375   1.485 -33.131  1.00  0.00     0.164 C 
BRANCH  33  34
HETATM   34  O   UNL     1     -16.699   1.880 -33.475  1.00  0.00    -0.401 OA
HETATM   35  H   UNL     1     -16.639   2.449 -34.262  1.00  0.00     0.209 HD
ENDBRANCH  33  34
ENDBRANCH  32  33
ENDBRANCH  31  32
ENDBRANCH   7  31
TORSDOF 7
ENDMDL
MODEL 3
REMARK VINA RESULT:      -8.5      3.191      6.276
REMARK  7 active torsions:
REMARK  status: ('A' for Active; 'I' for Inactive)
REMARK    1  A    between atoms: C_3  and  N_4 
REMARK       I    between atoms: N_4  and  C_5 
REMARK    2  A    between atoms: C_5  and  C_6 
REMARK    3  A    between atoms: C_7  and  C_8 
REMARK    4  A    between atoms: C_20  and  C_21 
REMARK    5  A    between atoms: C_21  and  C_22 
REMARK    6  A    between atoms: C_22  and  C_23 
REMARK    7  A    between atoms: C_23  and  O_24 
ROOT
HETATM    1  C   UNL     1      -8.579   1.618 -33.628  1.00  0.00     0.062 A 
HETATM    2  C   UNL     1      -8.177   3.088 -33.700  1.00  0.00     0.202 A 
HETATM    3  N   UNL     1      -9.050   3.938 -32.882  1.00  0.00    -0.083 N 
HETATM    4  C   UNL     1     -10.127   3.477 -32.181  1.00  0.00     0.726 A 
HETATM    5  N   UNL     1     -10.412   2.164 -32.206  1.00  0.00    -0.192 N 
HETATM    6  N   UNL     1      -8.975   5.286 -32.839  1.00  0.00    -0.140 NA
HETATM    7  C   UNL     1      -9.995   5.565 -32.012  1.00  0.00     0.166 A 
HETATM    8  N   UNL     1     -10.728   4.479 -31.594  1.00  0.00    -0.046 NA
HETATM    9  C   UNL     1      -9.661   1.226 -32.905  1.00  0.00     0.037 A 
HETATM   10  C   UNL     1     -10.157  -0.198 -32.807  1.00  0.00     0.070 C 
HETATM   11  H   UNL     1     -11.210   1.828 -31.674  1.00  0.00     0.184 HD
ENDROOT
BRANCH   1  12
HETATM   12  C   UNL     1      -7.698   0.589 -34.268  1.00  0.00     0.256 C 
HETATM   13  N   UNL     1      -7.181  -0.362 -33.411  1.00  0.00    -0.323 N 
HETATM   14  H   UNL     1      -7.614  -0.475 -32.507  1.00  0.00     0.169 HD
HETATM   15  O   UNL     1      -7.565   0.594 -35.487  1.00  0.00    -0.267 OA
BRANCH  13  16
HETATM   16  C   UNL     1      -6.395  -1.465 -33.823  1.00  0.00     0.041 A 
HETATM   17  C   UNL     1      -4.992  -1.524 -33.750  1.00  0.00    -0.035 A 
HETATM   18  C   UNL     1      -4.133  -0.472 -33.104  1.00  0.00     0.050 C 
HETATM   19  C   UNL     1      -4.334  -2.657 -34.266  1.00  0.00     0.009 A 
HETATM   20  C   UNL     1      -5.049  -3.733 -34.790  1.00  0.00     0.001 A 
HETATM   21  C   UNL     1      -6.438  -3.700 -34.793  1.00  0.00     0.002 A 
HETATM   22  C   UNL     1      -7.107  -2.579 -34.301  1.00  0.00     0.030 A 
ENDBRANCH  13  16
ENDBRANCH   1  12
BRANCH   2  23
HETATM   23  C   UNL     1      -6.714   3.353 -33.353  1.00  0.00    -0.026 A 
HETATM   24  C   UNL     1      -5.914   4.107 -34.232  1.00  0.00     0.035 A 
HETATM   25  C   UNL     1      -4.563   4.342 -33.953  1.00  0.00     0.056 A 
HETATM   26 CL   UNL     1      -3.655   5.248 -35.111  1.00  0.00    -0.083 Cl
HETATM   27  C   UNL     1      -3.995   3.836 -32.781  1.00  0.00     0.055 A 
HETATM   28 CL   UNL     1      -2.335   4.080 -32.375  1.00  0.00    -0.083 Cl
HETATM   29  C   UNL     1      -4.785   3.104 -31.891  1.00  0.00     0.026 A 
HETATM   30  C   UNL     1      -6.134   2.865 -32.171  1.00  0.00     0.011 A 
ENDBRANCH   2  23
BRANCH   7  31
HETATM   31  C   UNL     1     -10.347   6.947 -31.600  1.00  0.00     0.085 C 
BRANCH  31  32
HETATM   32  C   UNL     1      -9.686   8.020 -32.462  1.00  0.00     0.034 C 
BRANCH  32  33
HETATM   33  C   UNL     1      -8.374   8.533 -31.880  1.00  0.00     0.164 C 
BRANCH  33  34
HETATM   34  O   UNL     1      -7.281   7.914 -32.550  1.00  0.00    -0.401 OA
HETATM   35  H   UNL     1      -7.285   6.972 -32.309  1.00  0.00     0.209 HD
ENDBRANCH  33  34
ENDBRANCH  32  33
ENDBRANCH  31  32
ENDBRANCH   7  31
TORSDOF 7
ENDMDL
MODEL 4
REMARK VINA RESULT:      -8.2      3.650      6.445
REMARK  7 active torsions:
REMARK  status: ('A' for Active; 'I' for Inactive)
REMARK    1  A    between atoms: C_3  and  N_4 
REMARK       I    between atoms: N_4  and  C_5 
REMARK    2  A    between atoms: C_5  and  C_6 
REMARK    3  A    between atoms: C_7  and  C_8 
REMARK    4  A    between atoms: C_20  and  C_21 
REMARK    5  A    between atoms: C_21  and  C_22 
REMARK    6  A    between atoms: C_22  and  C_23 
REMARK    7  A    between atoms: C_23  and  O_24 
ROOT
HETATM    1  C   UNL     1      -6.335   2.068 -32.587  1.00  0.00     0.062 A 
HETATM    2  C   UNL     1      -6.923   1.268 -33.747  1.00  0.00     0.202 A 
HETATM    3  N   UNL     1      -6.291  -0.049 -33.884  1.00  0.00    -0.083 N 
HETATM    4  C   UNL     1      -5.261  -0.487 -33.102  1.00  0.00     0.726 A 
HETATM    5  N   UNL     1      -4.797   0.307 -32.123  1.00  0.00    -0.192 N 
HETATM    6  N   UNL     1      -6.556  -0.919 -34.883  1.00  0.00    -0.140 NA
HETATM    7  C   UNL     1      -5.701  -1.909 -34.583  1.00  0.00     0.166 A 
HETATM    8  N   UNL     1      -4.887  -1.675 -33.499  1.00  0.00    -0.046 NA
HETATM    9  C   UNL     1      -5.313   1.567 -31.844  1.00  0.00     0.037 A 
HETATM   10  C   UNL     1      -4.643   2.299 -30.705  1.00  0.00     0.070 C 
HETATM   11  H   UNL     1      -4.037  -0.032 -31.540  1.00  0.00     0.184 HD
ENDROOT
BRANCH   1  12
HETATM   12  C   UNL     1      -6.974   3.365 -32.198  1.00  0.00     0.256 C 
HETATM   13  N   UNL     1      -7.736   3.327 -31.048  1.00  0.00    -0.323 N 
HETATM   14  H   UNL     1      -7.609   2.551 -30.418  1.00  0.00     0.169 HD
HETATM   15  O   UNL     1      -6.717   4.374 -32.847  1.00  0.00    -0.267 OA
BRANCH  13  16
HETATM   16  C   UNL     1      -8.357   4.457 -30.464  1.00  0.00     0.041 A 
HETATM   17  C   UNL     1      -9.670   4.884 -30.735  1.00  0.00    -0.035 A 
HETATM   18  C   UNL     1     -10.646   4.124 -31.590  1.00  0.00     0.050 C 
HETATM   19  C   UNL     1     -10.133   6.071 -30.137  1.00  0.00     0.009 A 
HETATM   20  C   UNL     1      -9.338   6.790 -29.245  1.00  0.00     0.001 A 
HETATM   21  C   UNL     1      -8.069   6.325 -28.926  1.00  0.00     0.002 A 
HETATM   22  C   UNL     1      -7.586   5.160 -29.521  1.00  0.00     0.030 A 
ENDBRANCH  13  16
ENDBRANCH   1  12
BRANCH   2  23
HETATM   23  C   UNL     1      -8.442   1.117 -33.694  1.00  0.00    -0.026 A 
HETATM   24  C   UNL     1      -9.256   1.995 -34.433  1.00  0.00     0.035 A 
HETATM   25  C   UNL     1     -10.651   1.898 -34.382  1.00  0.00     0.056 A 
HETATM   26 CL   UNL     1     -11.566   3.043 -35.296  1.00  0.00    -0.083 Cl
HETATM   27  C   UNL     1     -11.252   0.909 -33.599  1.00  0.00     0.055 A 
HETATM   28 CL   UNL     1     -12.966   0.734 -33.482  1.00  0.00    -0.083 Cl
HETATM   29  C   UNL     1     -10.453   0.019 -32.877  1.00  0.00     0.026 A 
HETATM   30  C   UNL     1      -9.059   0.118 -32.924  1.00  0.00     0.011 A 
ENDBRANCH   2  23
BRANCH   7  31
HETATM   31  C   UNL     1      -5.601  -3.159 -35.377  1.00  0.00     0.085 C 
BRANCH  31  32
HETATM   32  C   UNL     1      -5.872  -4.418 -34.557  1.00  0.00     0.034 C 
BRANCH  32  33
HETATM   33  C   UNL     1      -4.613  -5.231 -34.272  1.00  0.00     0.164 C 
BRANCH  33  34
HETATM   34  O   UNL     1      -3.711  -4.453 -33.492  1.00  0.00    -0.401 OA
HETATM   35  H   UNL     1      -3.204  -3.892 -34.103  1.00  0.00     0.209 HD
ENDBRANCH  33  34
ENDBRANCH  32  33
ENDBRANCH  31  32
ENDBRANCH   7  31
TORSDOF 7
ENDMDL
MODEL 5
REMARK VINA RESULT:      -8.1     16.923     19.570
REMARK  7 active torsions:
REMARK  status: ('A' for Active; 'I' for Inactive)
REMARK    1  A    between atoms: C_3  and  N_4 
REMARK       I    between atoms: N_4  and  C_5 
REMARK    2  A    between atoms: C_5  and  C_6 
REMARK    3  A    between atoms: C_7  and  C_8 
REMARK    4  A    between atoms: C_20  and  C_21 
REMARK    5  A    between atoms: C_21  and  C_22 
REMARK    6  A    between atoms: C_22  and  C_23 
REMARK    7  A    between atoms: C_23  and  O_24 
ROOT
HETATM    1  C   UNL     1      -3.930 -13.756 -39.764  1.00  0.00     0.062 A 
HETATM    2  C   UNL     1      -4.748 -13.580 -41.041  1.00  0.00     0.202 A 
HETATM    3  N   UNL     1      -4.187 -14.340 -42.163  1.00  0.00    -0.083 N 
HETATM    4  C   UNL     1      -3.038 -15.075 -42.090  1.00  0.00     0.726 A 
HETATM    5  N   UNL     1      -2.376 -15.142 -40.923  1.00  0.00    -0.192 N 
HETATM    6  N   UNL     1      -4.659 -14.289 -43.428  1.00  0.00    -0.140 NA
HETATM    7  C   UNL     1      -3.787 -15.097 -44.051  1.00  0.00     0.166 A 
HETATM    8  N   UNL     1      -2.776 -15.593 -43.262  1.00  0.00    -0.046 NA
HETATM    9  C   UNL     1      -2.798 -14.509 -39.760  1.00  0.00     0.037 A 
HETATM   10  C   UNL     1      -1.905 -14.708 -38.558  1.00  0.00     0.070 C 
HETATM   11  H   UNL     1      -1.527 -15.700 -40.876  1.00  0.00     0.184 HD
ENDROOT
BRANCH   1  12
HETATM   12  C   UNL     1      -4.451 -13.187 -38.480  1.00  0.00     0.256 C 
HETATM   13  N   UNL     1      -5.098 -14.084 -37.655  1.00  0.00    -0.323 N 
HETATM   14  H   UNL     1      -4.956 -15.069 -37.817  1.00  0.00     0.169 HD
HETATM   15  O   UNL     1      -4.200 -12.019 -38.202  1.00  0.00    -0.267 OA
BRANCH  13  16
HETATM   16  C   UNL     1      -5.591 -13.771 -36.366  1.00  0.00     0.041 A 
HETATM   17  C   UNL     1      -6.943 -13.534 -36.057  1.00  0.00    -0.035 A 
HETATM   18  C   UNL     1      -8.075 -13.706 -37.032  1.00  0.00     0.050 C 
HETATM   19  C   UNL     1      -7.282 -13.159 -34.744  1.00  0.00     0.009 A 
HETATM   20  C   UNL     1      -6.316 -13.075 -33.742  1.00  0.00     0.001 A 
HETATM   21  C   UNL     1      -4.993 -13.379 -34.036  1.00  0.00     0.002 A 
HETATM   22  C   UNL     1      -4.635 -13.738 -35.336  1.00  0.00     0.030 A 
ENDBRANCH  13  16
ENDBRANCH   1  12
BRANCH   2  23
HETATM   23  C   UNL     1      -6.232 -13.903 -40.880  1.00  0.00    -0.026 A 
HETATM   24  C   UNL     1      -7.162 -12.855 -40.749  1.00  0.00     0.035 A 
HETATM   25  C   UNL     1      -8.525 -13.122 -40.572  1.00  0.00     0.056 A 
HETATM   26 CL   UNL     1      -9.585 -11.770 -40.385  1.00  0.00    -0.083 Cl
HETATM   27  C   UNL     1      -8.978 -14.443 -40.540  1.00  0.00     0.055 A 
HETATM   28 CL   UNL     1     -10.643 -14.847 -40.319  1.00  0.00    -0.083 Cl
HETATM   29  C   UNL     1      -8.066 -15.490 -40.689  1.00  0.00     0.026 A 
HETATM   30  C   UNL     1      -6.703 -15.225 -40.861  1.00  0.00     0.011 A 
ENDBRANCH   2  23
BRANCH   7  31
HETATM   31  C   UNL     1      -3.871 -15.413 -45.499  1.00  0.00     0.085 C 
BRANCH  31  32
HETATM   32  C   UNL     1      -3.810 -16.910 -45.794  1.00  0.00     0.034 C 
BRANCH  32  33
HETATM   33  C   UNL     1      -2.478 -17.351 -46.390  1.00  0.00     0.164 C 
BRANCH  33  34
HETATM   34  O   UNL     1      -1.725 -16.205 -46.773  1.00  0.00    -0.401 OA
HETATM   35  H   UNL     1      -1.032 -16.072 -46.105  1.00  0.00     0.209 HD
ENDBRANCH  33  34
ENDBRANCH  32  33
ENDBRANCH  31  32
ENDBRANCH   7  31
TORSDOF 7
ENDMDL
MODEL 6
REMARK VINA RESULT:      -8.0      3.519      6.705
REMARK  7 active torsions:
REMARK  status: ('A' for Active; 'I' for Inactive)
REMARK    1  A    between atoms: C_3  and  N_4 
REMARK       I    between atoms: N_4  and  C_5 
REMARK    2  A    between atoms: C_5  and  C_6 
REMARK    3  A    between atoms: C_7  and  C_8 
REMARK    4  A    between atoms: C_20  and  C_21 
REMARK    5  A    between atoms: C_21  and  C_22 
REMARK    6  A    between atoms: C_22  and  C_23 
REMARK    7  A    between atoms: C_23  and  O_24 
ROOT
HETATM    1  C   UNL     1      -9.971   1.651 -33.911  1.00  0.00     0.062 A 
HETATM    2  C   UNL     1      -9.554   3.049 -34.361  1.00  0.00     0.202 A 
HETATM    3  N   UNL     1     -10.710   3.925 -34.579  1.00  0.00    -0.083 N 
HETATM    4  C   UNL     1     -12.008   3.523 -34.448  1.00  0.00     0.726 A 
HETATM    5  N   UNL     1     -12.269   2.260 -34.073  1.00  0.00    -0.192 N 
HETATM    6  N   UNL     1     -10.630   5.182 -35.068  1.00  0.00    -0.140 NA
HETATM    7  C   UNL     1     -11.930   5.510 -35.122  1.00  0.00     0.166 A 
HETATM    8  N   UNL     1     -12.805   4.514 -34.754  1.00  0.00    -0.046 NA
HETATM    9  C   UNL     1     -11.284   1.319 -33.795  1.00  0.00     0.037 A 
HETATM   10  C   UNL     1     -11.791  -0.046 -33.397  1.00  0.00     0.070 C 
HETATM   11  H   UNL     1     -13.239   1.973 -33.969  1.00  0.00     0.184 HD
ENDROOT
BRANCH   1  12
HETATM   12  C   UNL     1      -8.916   0.678 -33.483  1.00  0.00     0.256 C 
HETATM   13  N   UNL     1      -7.996   0.337 -34.455  1.00  0.00    -0.323 N 
HETATM   14  H   UNL     1      -7.919   0.930 -35.266  1.00  0.00     0.169 HD
HETATM   15  O   UNL     1      -8.874   0.322 -32.310  1.00  0.00    -0.267 OA
BRANCH  13  16
HETATM   16  C   UNL     1      -6.876  -0.501 -34.235  1.00  0.00     0.041 A 
HETATM   17  C   UNL     1      -5.676  -0.095 -33.626  1.00  0.00    -0.035 A 
HETATM   18  C   UNL     1      -5.457   1.256 -33.003  1.00  0.00     0.050 C 
HETATM   19  C   UNL     1      -4.615  -1.017 -33.539  1.00  0.00     0.009 A 
HETATM   20  C   UNL     1      -4.757  -2.328 -33.993  1.00  0.00     0.001 A 
HETATM   21  C   UNL     1      -5.969  -2.743 -34.529  1.00  0.00     0.002 A 
HETATM   22  C   UNL     1      -7.026  -1.839 -34.637  1.00  0.00     0.030 A 
ENDBRANCH  13  16
ENDBRANCH   1  12
BRANCH   2  23
HETATM   23  C   UNL     1      -8.549   3.729 -33.432  1.00  0.00    -0.026 A 
HETATM   24  C   UNL     1      -7.348   4.238 -33.960  1.00  0.00     0.035 A 
HETATM   25  C   UNL     1      -6.397   4.842 -33.128  1.00  0.00     0.056 A 
HETATM   26 CL   UNL     1      -4.937   5.405 -33.862  1.00  0.00    -0.083 Cl
HETATM   27  C   UNL     1      -6.642   4.956 -31.757  1.00  0.00     0.055 A 
HETATM   28 CL   UNL     1      -5.513   5.682 -30.671  1.00  0.00    -0.083 Cl
HETATM   29  C   UNL     1      -7.841   4.472 -31.227  1.00  0.00     0.026 A 
HETATM   30  C   UNL     1      -8.789   3.865 -32.056  1.00  0.00     0.011 A 
ENDBRANCH   2  23
BRANCH   7  31
HETATM   31  C   UNL     1     -12.410   6.838 -35.581  1.00  0.00     0.085 C 
BRANCH  31  32
HETATM   32  C   UNL     1     -11.505   7.989 -35.149  1.00  0.00     0.034 C 
BRANCH  32  33
HETATM   33  C   UNL     1     -10.687   8.571 -36.296  1.00  0.00     0.164 C 
BRANCH  33  34
HETATM   34  O   UNL     1      -9.753   7.600 -36.757  1.00  0.00    -0.401 OA
HETATM   35  H   UNL     1     -10.261   6.833 -37.072  1.00  0.00     0.209 HD
ENDBRANCH  33  34
ENDBRANCH  32  33
ENDBRANCH  31  32
ENDBRANCH   7  31
TORSDOF 7
ENDMDL
MODEL 7
REMARK VINA RESULT:      -8.0     16.772     19.621
REMARK  7 active torsions:
REMARK  status: ('A' for Active; 'I' for Inactive)
REMARK    1  A    between atoms: C_3  and  N_4 
REMARK       I    between atoms: N_4  and  C_5 
REMARK    2  A    between atoms: C_5  and  C_6 
REMARK    3  A    between atoms: C_7  and  C_8 
REMARK    4  A    between atoms: C_20  and  C_21 
REMARK    5  A    between atoms: C_21  and  C_22 
REMARK    6  A    between atoms: C_22  and  C_23 
REMARK    7  A    between atoms: C_23  and  O_24 
ROOT
HETATM    1  C   UNL     1      -3.532 -13.301 -39.169  1.00  0.00     0.062 A 
HETATM    2  C   UNL     1      -4.744 -12.764 -38.412  1.00  0.00     0.202 A 
HETATM    3  N   UNL     1      -5.957 -12.774 -39.237  1.00  0.00    -0.083 N 
HETATM    4  C   UNL     1      -5.989 -13.166 -40.545  1.00  0.00     0.726 A 
HETATM    5  N   UNL     1      -4.857 -13.597 -41.127  1.00  0.00    -0.192 N 
HETATM    6  N   UNL     1      -7.147 -12.268 -38.846  1.00  0.00    -0.140 NA
HETATM    7  C   UNL     1      -7.879 -12.473 -39.952  1.00  0.00     0.166 A 
HETATM    8  N   UNL     1      -7.199 -13.017 -41.016  1.00  0.00    -0.046 NA
HETATM    9  C   UNL     1      -3.636 -13.680 -40.471  1.00  0.00     0.037 A 
HETATM   10  C   UNL     1      -2.486 -14.185 -41.311  1.00  0.00     0.070 C 
HETATM   11  H   UNL     1      -4.893 -13.895 -42.099  1.00  0.00     0.184 HD
ENDROOT
BRANCH   1  12
HETATM   12  C   UNL     1      -2.248 -13.518 -38.430  1.00  0.00     0.256 C 
HETATM   13  N   UNL     1      -1.926 -14.837 -38.178  1.00  0.00    -0.323 N 
HETATM   14  H   UNL     1      -2.398 -15.552 -38.709  1.00  0.00     0.169 HD
HETATM   15  O   UNL     1      -1.533 -12.553 -38.181  1.00  0.00    -0.267 OA
BRANCH  13  16
HETATM   16  C   UNL     1      -0.723 -15.262 -37.566  1.00  0.00     0.041 A 
HETATM   17  C   UNL     1       0.514 -15.385 -38.224  1.00  0.00    -0.035 A 
HETATM   18  C   UNL     1       0.763 -14.958 -39.644  1.00  0.00     0.050 C 
HETATM   19  C   UNL     1       1.615 -15.892 -37.507  1.00  0.00     0.009 A 
HETATM   20  C   UNL     1       1.511 -16.217 -36.155  1.00  0.00     0.001 A 
HETATM   21  C   UNL     1       0.305 -16.026 -35.493  1.00  0.00     0.002 A 
HETATM   22  C   UNL     1      -0.801 -15.540 -36.190  1.00  0.00     0.030 A 
ENDBRANCH  13  16
ENDBRANCH   1  12
BRANCH   2  23
HETATM   23  C   UNL     1      -5.009 -13.467 -37.082  1.00  0.00    -0.026 A 
HETATM   24  C   UNL     1      -5.702 -14.692 -37.068  1.00  0.00     0.035 A 
HETATM   25  C   UNL     1      -5.984 -15.345 -35.862  1.00  0.00     0.056 A 
HETATM   26 CL   UNL     1      -6.869 -16.826 -35.943  1.00  0.00    -0.083 Cl
HETATM   27  C   UNL     1      -5.563 -14.785 -34.652  1.00  0.00     0.055 A 
HETATM   28 CL   UNL     1      -5.881 -15.530 -33.127  1.00  0.00    -0.083 Cl
HETATM   29  C   UNL     1      -4.857 -13.580 -34.657  1.00  0.00     0.026 A 
HETATM   30  C   UNL     1      -4.579 -12.925 -35.861  1.00  0.00     0.011 A 
ENDBRANCH   2  23
BRANCH   7  31
HETATM   31  C   UNL     1      -9.315 -12.107 -40.050  1.00  0.00     0.085 C 
BRANCH  31  32
HETATM   32  C   UNL     1     -10.250 -13.188 -39.514  1.00  0.00     0.034 C 
BRANCH  32  33
HETATM   33  C   UNL     1     -10.780 -14.116 -40.602  1.00  0.00     0.164 C 
BRANCH  33  34
HETATM   34  O   UNL     1     -12.107 -13.732 -40.950  1.00  0.00    -0.401 OA
HETATM   35  H   UNL     1     -12.717 -14.275 -40.422  1.00  0.00     0.209 HD
ENDBRANCH  33  34
ENDBRANCH  32  33
ENDBRANCH  31  32
ENDBRANCH   7  31
TORSDOF 7
ENDMDL
MODEL 8
REMARK VINA RESULT:      -8.0      3.381      6.659
REMARK  7 active torsions:
REMARK  status: ('A' for Active; 'I' for Inactive)
REMARK    1  A    between atoms: C_3  and  N_4 
REMARK       I    between atoms: N_4  and  C_5 
REMARK    2  A    between atoms: C_5  and  C_6 
REMARK    3  A    between atoms: C_7  and  C_8 
REMARK    4  A    between atoms: C_20  and  C_21 
REMARK    5  A    between atoms: C_21  and  C_22 
REMARK    6  A    between atoms: C_22  and  C_23 
REMARK    7  A    between atoms: C_23  and  O_24 
ROOT
HETATM    1  C   UNL     1      -8.304   3.251 -32.889  1.00  0.00     0.062 A 
HETATM    2  C   UNL     1      -7.116   2.335 -32.606  1.00  0.00     0.202 A 
HETATM    3  N   UNL     1      -7.065   1.197 -33.530  1.00  0.00    -0.083 N 
HETATM    4  C   UNL     1      -8.000   0.955 -34.496  1.00  0.00     0.726 A 
HETATM    5  N   UNL     1      -9.024   1.811 -34.645  1.00  0.00    -0.192 N 
HETATM    6  N   UNL     1      -6.174   0.186 -33.443  1.00  0.00    -0.140 NA
HETATM    7  C   UNL     1      -6.582  -0.593 -34.457  1.00  0.00     0.166 A 
HETATM    8  N   UNL     1      -7.704  -0.154 -35.121  1.00  0.00    -0.046 NA
HETATM    9  C   UNL     1      -9.194   2.953 -33.872  1.00  0.00     0.037 A 
HETATM   10  C   UNL     1     -10.418   3.777 -34.199  1.00  0.00     0.070 C 
HETATM   11  H   UNL     1      -9.710   1.627 -35.374  1.00  0.00     0.184 HD
ENDROOT
BRANCH   1  12
HETATM   12  C   UNL     1      -8.416   4.549 -32.150  1.00  0.00     0.256 C 
HETATM   13  N   UNL     1      -8.920   4.457 -30.868  1.00  0.00    -0.323 N 
HETATM   14  H   UNL     1      -8.927   3.553 -30.422  1.00  0.00     0.169 HD
HETATM   15  O   UNL     1      -7.983   5.571 -32.672  1.00  0.00    -0.267 OA
BRANCH  13  16
HETATM   16  C   UNL     1      -9.031   5.549 -29.974  1.00  0.00     0.041 A 
HETATM   17  C   UNL     1      -8.119   5.843 -28.945  1.00  0.00    -0.035 A 
HETATM   18  C   UNL     1      -6.824   5.110 -28.728  1.00  0.00     0.050 C 
HETATM   19  C   UNL     1      -8.395   6.921 -28.083  1.00  0.00     0.009 A 
HETATM   20  C   UNL     1      -9.518   7.727 -28.267  1.00  0.00     0.001 A 
HETATM   21  C   UNL     1     -10.378   7.476 -29.329  1.00  0.00     0.002 A 
HETATM   22  C   UNL     1     -10.129   6.402 -30.185  1.00  0.00     0.030 A 
ENDBRANCH  13  16
ENDBRANCH   1  12
BRANCH   2  23
HETATM   23  C   UNL     1      -5.767   3.051 -32.582  1.00  0.00    -0.026 A 
HETATM   24  C   UNL     1      -5.347   3.780 -33.711  1.00  0.00     0.035 A 
HETATM   25  C   UNL     1      -4.103   4.423 -33.728  1.00  0.00     0.056 A 
HETATM   26 CL   UNL     1      -3.660   5.264 -35.171  1.00  0.00    -0.083 Cl
HETATM   27  C   UNL     1      -3.269   4.358 -32.609  1.00  0.00     0.055 A 
HETATM   28 CL   UNL     1      -1.721   5.121 -32.562  1.00  0.00    -0.083 Cl
HETATM   29  C   UNL     1      -3.686   3.654 -31.477  1.00  0.00     0.026 A 
HETATM   30  C   UNL     1      -4.926   3.007 -31.460  1.00  0.00     0.011 A 
ENDBRANCH   2  23
BRANCH   7  31
HETATM   31  C   UNL     1      -5.906  -1.863 -34.825  1.00  0.00     0.085 C 
BRANCH  31  32
HETATM   32  C   UNL     1      -6.783  -3.095 -34.614  1.00  0.00     0.034 C 
BRANCH  32  33
HETATM   33  C   UNL     1      -6.032  -4.407 -34.814  1.00  0.00     0.164 C 
BRANCH  33  34
HETATM   34  O   UNL     1      -6.782  -5.259 -35.673  1.00  0.00    -0.401 OA
HETATM   35  H   UNL     1      -7.634  -4.824 -35.846  1.00  0.00     0.209 HD
ENDBRANCH  33  34
ENDBRANCH  32  33
ENDBRANCH  31  32
ENDBRANCH   7  31
TORSDOF 7
ENDMDL
MODEL 9
REMARK VINA RESULT:      -7.9      1.920      2.880
REMARK  7 active torsions:
REMARK  status: ('A' for Active; 'I' for Inactive)
REMARK    1  A    between atoms: C_3  and  N_4 
REMARK       I    between atoms: N_4  and  C_5 
REMARK    2  A    between atoms: C_5  and  C_6 
REMARK    3  A    between atoms: C_7  and  C_8 
REMARK    4  A    between atoms: C_20  and  C_21 
REMARK    5  A    between atoms: C_21  and  C_22 
REMARK    6  A    between atoms: C_22  and  C_23 
REMARK    7  A    between atoms: C_23  and  O_24 
ROOT
HETATM    1  C   UNL     1      -6.714   4.305 -30.989  1.00  0.00     0.062 A 
HETATM    2  C   UNL     1      -5.802   4.001 -32.174  1.00  0.00     0.202 A 
HETATM    3  N   UNL     1      -4.434   4.484 -31.954  1.00  0.00    -0.083 N 
HETATM    4  C   UNL     1      -4.036   5.173 -30.844  1.00  0.00     0.726 A 
HETATM    5  N   UNL     1      -4.927   5.413 -29.868  1.00  0.00    -0.192 N 
HETATM    6  N   UNL     1      -3.451   4.428 -32.879  1.00  0.00    -0.140 NA
HETATM    7  C   UNL     1      -2.452   5.030 -32.215  1.00  0.00     0.166 A 
HETATM    8  N   UNL     1      -2.777   5.505 -30.965  1.00  0.00    -0.046 NA
HETATM    9  C   UNL     1      -6.250   4.991 -29.910  1.00  0.00     0.037 A 
HETATM   10  C   UNL     1      -7.087   5.372 -28.712  1.00  0.00     0.070 C 
HETATM   11  H   UNL     1      -4.618   5.919 -29.041  1.00  0.00     0.184 HD
ENDROOT
BRANCH   1  12
HETATM   12  C   UNL     1      -8.100   3.738 -30.970  1.00  0.00     0.256 C 
HETATM   13  N   UNL     1      -9.054   4.485 -31.633  1.00  0.00    -0.323 N 
HETATM   14  H   UNL     1      -8.740   5.185 -32.287  1.00  0.00     0.169 HD
HETATM   15  O   UNL     1      -8.286   2.635 -30.467  1.00  0.00    -0.267 OA
BRANCH  13  16
HETATM   16  C   UNL     1     -10.402   4.089 -31.803  1.00  0.00     0.041 A 
HETATM   17  C   UNL     1     -10.889   3.342 -32.890  1.00  0.00    -0.035 A 
HETATM   18  C   UNL     1     -10.021   2.747 -33.964  1.00  0.00     0.050 C 
HETATM   19  C   UNL     1     -12.271   3.081 -32.968  1.00  0.00     0.009 A 
HETATM   20  C   UNL     1     -13.144   3.501 -31.965  1.00  0.00     0.001 A 
HETATM   21  C   UNL     1     -12.646   4.176 -30.858  1.00  0.00     0.002 A 
HETATM   22  C   UNL     1     -11.283   4.457 -30.771  1.00  0.00     0.030 A 
ENDBRANCH  13  16
ENDBRANCH   1  12
BRANCH   2  23
HETATM   23  C   UNL     1      -5.778   2.529 -32.580  1.00  0.00    -0.026 A 
HETATM   24  C   UNL     1      -6.397   2.127 -33.779  1.00  0.00     0.035 A 
HETATM   25  C   UNL     1      -6.415   0.781 -34.163  1.00  0.00     0.056 A 
HETATM   26 CL   UNL     1      -7.230   0.381 -35.633  1.00  0.00    -0.083 Cl
HETATM   27  C   UNL     1      -5.800  -0.181 -33.358  1.00  0.00     0.055 A 
HETATM   28 CL   UNL     1      -5.789  -1.860 -33.765  1.00  0.00    -0.083 Cl
HETATM   29  C   UNL     1      -5.165   0.209 -32.177  1.00  0.00     0.026 A 
HETATM   30  C   UNL     1      -5.151   1.553 -31.790  1.00  0.00     0.011 A 
ENDBRANCH   2  23
BRANCH   7  31
HETATM   31  C   UNL     1      -1.095   5.215 -32.789  1.00  0.00     0.085 C 
BRANCH  31  32
HETATM   32  C   UNL     1      -0.650   6.675 -32.826  1.00  0.00     0.034 C 
BRANCH  32  33
HETATM   33  C   UNL     1      -1.709   7.610 -33.402  1.00  0.00     0.164 C 
BRANCH  33  34
HETATM   34  O   UNL     1      -2.082   8.570 -32.419  1.00  0.00    -0.401 OA
HETATM   35  H   UNL     1      -1.274   8.835 -31.948  1.00  0.00     0.209 HD
ENDBRANCH  33  34
ENDBRANCH  32  33
ENDBRANCH  31  32
ENDBRANCH   7  31
TORSDOF 7
ENDMDL
MODEL 10
REMARK VINA RESULT:      -7.9      3.547      6.876
REMARK  7 active torsions:
REMARK  status: ('A' for Active; 'I' for Inactive)
REMARK    1  A    between atoms: C_3  and  N_4 
REMARK       I    between atoms: N_4  and  C_5 
REMARK    2  A    between atoms: C_5  and  C_6 
REMARK    3  A    between atoms: C_7  and  C_8 
REMARK    4  A    between atoms: C_20  and  C_21 
REMARK    5  A    between atoms: C_21  and  C_22 
REMARK    6  A    between atoms: C_22  and  C_23 
REMARK    7  A    between atoms: C_23  and  O_24 
ROOT
HETATM    1  C   UNL     1      -9.147   1.546 -33.812  1.00  0.00     0.062 A 
HETATM    2  C   UNL     1      -8.566   2.877 -34.279  1.00  0.00     0.202 A 
HETATM    3  N   UNL     1      -9.600   3.906 -34.434  1.00  0.00    -0.083 N 
HETATM    4  C   UNL     1     -10.933   3.686 -34.235  1.00  0.00     0.726 A 
HETATM    5  N   UNL     1     -11.345   2.467 -33.850  1.00  0.00    -0.192 N 
HETATM    6  N   UNL     1      -9.373   5.144 -34.923  1.00  0.00    -0.140 NA
HETATM    7  C   UNL     1     -10.616   5.649 -34.907  1.00  0.00     0.166 A 
HETATM    8  N   UNL     1     -11.599   4.779 -34.496  1.00  0.00    -0.046 NA
HETATM    9  C   UNL     1     -10.486   1.397 -33.627  1.00  0.00     0.037 A 
HETATM   10  C   UNL     1     -11.156   0.110 -33.205  1.00  0.00     0.070 C 
HETATM   11  H   UNL     1     -12.338   2.315 -33.695  1.00  0.00     0.184 HD
ENDROOT
BRANCH   1  12
HETATM   12  C   UNL     1      -8.216   0.432 -33.442  1.00  0.00     0.256 C 
HETATM   13  N   UNL     1      -7.489  -0.101 -34.487  1.00  0.00    -0.323 N 
HETATM   14  H   UNL     1      -7.419   0.431 -35.340  1.00  0.00     0.169 HD
HETATM   15  O   UNL     1      -8.087   0.131 -32.260  1.00  0.00    -0.267 OA
BRANCH  13  16
HETATM   16  C   UNL     1      -6.499  -1.102 -34.342  1.00  0.00     0.041 A 
HETATM   17  C   UNL     1      -5.242  -0.909 -33.740  1.00  0.00    -0.035 A 
HETATM   18  C   UNL     1      -4.821   0.360 -33.050  1.00  0.00     0.050 C 
HETATM   19  C   UNL     1      -4.324  -1.976 -33.730  1.00  0.00     0.009 A 
HETATM   20  C   UNL     1      -4.661  -3.225 -34.251  1.00  0.00     0.001 A 
HETATM   21  C   UNL     1      -5.929  -3.431 -34.779  1.00  0.00     0.002 A 
HETATM   22  C   UNL     1      -6.846  -2.380 -34.813  1.00  0.00     0.030 A 
ENDBRANCH  13  16
ENDBRANCH   1  12
BRANCH   2  23
HETATM   23  C   UNL     1      -7.430   3.403 -33.404  1.00  0.00    -0.026 A 
HETATM   24  C   UNL     1      -7.673   3.693 -32.049  1.00  0.00     0.035 A 
HETATM   25  C   UNL     1      -6.658   4.203 -31.230  1.00  0.00     0.056 A 
HETATM   26 CL   UNL     1      -7.061   4.562 -29.588  1.00  0.00    -0.083 Cl
HETATM   27  C   UNL     1      -5.380   4.416 -31.754  1.00  0.00     0.055 A 
HETATM   28 CL   UNL     1      -4.083   5.047 -30.806  1.00  0.00    -0.083 Cl
HETATM   29  C   UNL     1      -5.124   4.111 -33.093  1.00  0.00     0.026 A 
HETATM   30  C   UNL     1      -6.138   3.606 -33.913  1.00  0.00     0.011 A 
ENDBRANCH   2  23
BRANCH   7  31
HETATM   31  C   UNL     1     -10.932   7.034 -35.337  1.00  0.00     0.085 C 
BRANCH  31  32
HETATM   32  C   UNL     1     -12.355   7.465 -34.988  1.00  0.00     0.034 C 
BRANCH  32  33
HETATM   33  C   UNL     1     -13.355   7.196 -36.107  1.00  0.00     0.164 C 
BRANCH  33  34
HETATM   34  O   UNL     1     -14.277   6.194 -35.692  1.00  0.00    -0.401 OA
HETATM   35  H   UNL     1     -15.045   6.645 -35.303  1.00  0.00     0.209 HD
ENDBRANCH  33  34
ENDBRANCH  32  33
ENDBRANCH  31  32
ENDBRANCH   7  31
TORSDOF 7
ENDMDL
