MODEL 1
REMARK VINA RESULT:     -10.2      0.000      0.000
REMARK  5 active torsions:
REMARK  status: ('A' for Active; 'I' for Inactive)
REMARK    1  A    between atoms: C_6  and  C_7 
REMARK       I    between atoms: C_7  and  N_8 
REMARK    2  A    between atoms: N_8  and  C_9 
REMARK    3  A    between atoms: C_20  and  C_21 
REMARK    4  A    between atoms: C_22  and  C_23 
REMARK    5  A    between atoms: C_26  and  O_27 
ROOT
HETATM    1  C   UNL     1      -2.729   7.734 -31.470  1.00  0.00     0.118 C 
HETATM    2  C   UNL     1      -3.725   6.617 -31.855  1.00  0.00     0.202 C 
HETATM    3  N   UNL     1      -3.385   6.239 -33.213  1.00  0.00    -0.332 N 
HETATM    4  C   UNL     1      -3.812   5.098 -33.837  1.00  0.00     0.257 C 
HETATM    5  O   UNL     1      -3.416   4.759 -34.949  1.00  0.00    -0.267 OA
HETATM    6  C   UNL     1      -4.795   4.239 -33.123  1.00  0.00     0.059 A 
HETATM    7  C   UNL     1      -5.906   4.744 -32.422  1.00  0.00     0.050 A 
HETATM    8  N   UNL     1      -6.132   6.103 -32.128  1.00  0.00    -0.324 N 
HETATM    9  C   UNL     1      -5.185   7.076 -31.894  1.00  0.00     0.247 C 
HETATM   10  O   UNL     1      -5.550   8.233 -31.692  1.00  0.00    -0.271 OA
HETATM   11  C   UNL     1      -4.640   2.852 -33.285  1.00  0.00     0.030 A 
HETATM   12  C   UNL     1      -5.569   1.957 -32.743  1.00  0.00    -0.035 A 
HETATM   13  C   UNL     1      -6.714   2.468 -32.127  1.00  0.00     0.013 A 
HETATM   14  C   UNL     1      -6.886   3.848 -31.979  1.00  0.00     0.031 A 
HETATM   15  C   UNL     1      -2.588   7.253 -33.858  1.00  0.00     0.129 C 
HETATM   16  C   UNL     1      -1.842   7.918 -32.717  1.00  0.00     0.047 C 
HETATM   17  H   UNL     1      -7.071   6.404 -31.894  1.00  0.00     0.169 HD
ENDROOT
BRANCH   1  18
HETATM   18  N   UNL     1      -1.883   7.380 -30.320  1.00  0.00    -0.350 N 
HETATM   19  C   UNL     1      -1.415   8.345 -29.452  1.00  0.00     0.252 C 
HETATM   20  O   UNL     1      -1.692   9.534 -29.556  1.00  0.00    -0.268 OA
HETATM   21  H   UNL     1      -1.385   6.500 -30.358  1.00  0.00     0.163 HD
BRANCH  19  22
HETATM   22  C   UNL     1      -0.550   7.870 -28.339  1.00  0.00     0.035 A 
HETATM   23  C   UNL     1      -0.947   6.826 -27.496  1.00  0.00     0.059 A 
HETATM   24  C   UNL     1      -0.119   6.449 -26.445  1.00  0.00     0.117 A 
HETATM   25  C   UNL     1       1.093   7.091 -26.213  1.00  0.00     0.042 A 
HETATM   26  F   UNL     1      -0.501   5.453 -25.635  1.00  0.00    -0.206 F 
HETATM   27  C   UNL     1       1.485   8.141 -27.042  1.00  0.00     0.004 A 
HETATM   28  C   UNL     1       0.663   8.534 -28.100  1.00  0.00     0.017 A 
ENDBRANCH  19  22
ENDBRANCH   1  18
BRANCH  12  29
HETATM   29  C   UNL     1      -5.385   0.503 -32.826  1.00  0.00     0.012 C 
HETATM   30  C   UNL     1      -5.734  -0.201 -33.915  1.00  0.00     0.012 C 
BRANCH  30  31
HETATM   31  C   UNL     1      -5.526  -1.647 -34.069  1.00  0.00    -0.036 A 
HETATM   32  C   UNL     1      -6.544  -2.416 -34.648  1.00  0.00     0.014 A 
HETATM   33  C   UNL     1      -6.368  -3.786 -34.864  1.00  0.00     0.037 A 
HETATM   34  C   UNL     1      -5.165  -4.384 -34.508  1.00  0.00     0.065 A 
HETATM   35  C   UNL     1      -4.139  -3.635 -33.945  1.00  0.00     0.037 A 
HETATM   36  C   UNL     1      -4.317  -2.267 -33.729  1.00  0.00     0.014 A 
BRANCH  34  37
HETATM   37  O   UNL     1      -4.946  -5.714 -34.707  1.00  0.00    -0.361 OA
HETATM   38  H   UNL     1      -4.575  -6.092 -33.893  1.00  0.00     0.217 HD
ENDBRANCH  34  37
ENDBRANCH  30  31
ENDBRANCH  12  29
TORSDOF 5
ENDMDL
MODEL 2
REMARK VINA RESULT:     -10.2      3.678     10.380
REMARK  5 active torsions:
REMARK  status: ('A' for Active; 'I' for Inactive)
REMARK    1  A    between atoms: C_6  and  C_7 
REMARK       I    between atoms: C_7  and  N_8 
REMARK    2  A    between atoms: N_8  and  C_9 
REMARK    3  A    between atoms: C_20  and  C_21 
REMARK    4  A    between atoms: C_22  and  C_23 
REMARK    5  A    between atoms: C_26  and  O_27 
ROOT
HETATM    1  C   UNL     1      -8.225   1.461 -32.819  1.00  0.00     0.118 C 
HETATM    2  C   UNL     1      -7.384   2.746 -32.639  1.00  0.00     0.202 C 
HETATM    3  N   UNL     1      -7.724   3.256 -31.326  1.00  0.00    -0.332 N 
HETATM    4  C   UNL     1      -7.004   4.201 -30.644  1.00  0.00     0.257 C 
HETATM    5  O   UNL     1      -7.263   4.529 -29.489  1.00  0.00    -0.267 OA
HETATM    6  C   UNL     1      -5.861   4.845 -31.344  1.00  0.00     0.059 A 
HETATM    7  C   UNL     1      -5.911   5.278 -32.683  1.00  0.00     0.050 A 
HETATM    8  N   UNL     1      -6.947   4.989 -33.592  1.00  0.00    -0.324 N 
HETATM    9  C   UNL     1      -7.732   3.858 -33.631  1.00  0.00     0.247 C 
HETATM   10  O   UNL     1      -8.630   3.778 -34.469  1.00  0.00    -0.271 OA
HETATM   11  C   UNL     1      -4.733   5.131 -30.557  1.00  0.00     0.030 A 
HETATM   12  C   UNL     1      -3.643   5.829 -31.089  1.00  0.00    -0.035 A 
HETATM   13  C   UNL     1      -3.737   6.331 -32.389  1.00  0.00     0.013 A 
HETATM   14  C   UNL     1      -4.864   6.068 -33.174  1.00  0.00     0.031 A 
HETATM   15  C   UNL     1      -8.960   2.693 -30.845  1.00  0.00     0.129 C 
HETATM   16  C   UNL     1      -9.030   1.332 -31.511  1.00  0.00     0.047 C 
HETATM   17  H   UNL     1      -7.051   5.569 -34.416  1.00  0.00     0.169 HD
ENDROOT
BRANCH   1  18
HETATM   18  N   UNL     1      -7.403   0.256 -33.005  1.00  0.00    -0.350 N 
HETATM   19  C   UNL     1      -7.140  -0.243 -34.264  1.00  0.00     0.252 C 
HETATM   20  O   UNL     1      -7.536   0.289 -35.294  1.00  0.00    -0.268 OA
HETATM   21  H   UNL     1      -7.314  -0.376 -32.221  1.00  0.00     0.163 HD
BRANCH  19  22
HETATM   22  C   UNL     1      -6.316  -1.480 -34.327  1.00  0.00     0.035 A 
HETATM   23  C   UNL     1      -6.825  -2.673 -34.854  1.00  0.00     0.059 A 
HETATM   24  C   UNL     1      -6.028  -3.811 -34.852  1.00  0.00     0.117 A 
HETATM   25  C   UNL     1      -4.738  -3.790 -34.332  1.00  0.00     0.042 A 
HETATM   26  F   UNL     1      -6.516  -4.954 -35.352  1.00  0.00    -0.206 F 
HETATM   27  C   UNL     1      -4.233  -2.608 -33.793  1.00  0.00     0.004 A 
HETATM   28  C   UNL     1      -5.023  -1.456 -33.785  1.00  0.00     0.017 A 
ENDBRANCH  19  22
ENDBRANCH   1  18
BRANCH  12  29
HETATM   29  C   UNL     1      -2.419   6.066 -30.314  1.00  0.00     0.012 C 
HETATM   30  C   UNL     1      -2.352   7.001 -29.353  1.00  0.00     0.012 C 
BRANCH  30  31
HETATM   31  C   UNL     1      -1.171   7.245 -28.515  1.00  0.00    -0.036 A 
HETATM   32  C   UNL     1      -1.160   6.752 -27.203  1.00  0.00     0.014 A 
HETATM   33  C   UNL     1      -0.035   6.913 -26.389  1.00  0.00     0.037 A 
HETATM   34  C   UNL     1       1.086   7.561 -26.895  1.00  0.00     0.065 A 
HETATM   35  C   UNL     1       1.100   8.047 -28.196  1.00  0.00     0.037 A 
HETATM   36  C   UNL     1      -0.026   7.885 -29.008  1.00  0.00     0.014 A 
BRANCH  34  37
HETATM   37  O   UNL     1       2.207   7.735 -26.139  1.00  0.00    -0.361 OA
HETATM   38  H   UNL     1       2.948   7.286 -26.577  1.00  0.00     0.217 HD
ENDBRANCH  34  37
ENDBRANCH  30  31
ENDBRANCH  12  29
TORSDOF 5
ENDMDL
MODEL 3
REMARK VINA RESULT:      -9.7      8.050     12.497
REMARK  5 active torsions:
REMARK  status: ('A' for Active; 'I' for Inactive)
REMARK    1  A    between atoms: C_6  and  C_7 
REMARK       I    between atoms: C_7  and  N_8 
REMARK    2  A    between atoms: N_8  and  C_9 
REMARK    3  A    between atoms: C_20  and  C_21 
REMARK    4  A    between atoms: C_22  and  C_23 
REMARK    5  A    between atoms: C_26  and  O_27 
ROOT
HETATM    1  C   UNL     1     -12.094   0.808 -34.032  1.00  0.00     0.118 C 
HETATM    2  C   UNL     1     -12.655   2.169 -33.558  1.00  0.00     0.202 C 
HETATM    3  N   UNL     1     -13.955   1.880 -32.987  1.00  0.00    -0.332 N 
HETATM    4  C   UNL     1     -14.667   2.736 -32.190  1.00  0.00     0.257 C 
HETATM    5  O   UNL     1     -15.715   2.414 -31.637  1.00  0.00    -0.267 OA
HETATM    6  C   UNL     1     -14.132   4.110 -31.992  1.00  0.00     0.059 A 
HETATM    7  C   UNL     1     -13.593   4.893 -33.029  1.00  0.00     0.050 A 
HETATM    8  N   UNL     1     -13.299   4.432 -34.327  1.00  0.00    -0.324 N 
HETATM    9  C   UNL     1     -12.900   3.166 -34.693  1.00  0.00     0.247 C 
HETATM   10  O   UNL     1     -12.724   2.912 -35.885  1.00  0.00    -0.271 OA
HETATM   11  C   UNL     1     -14.306   4.665 -30.712  1.00  0.00     0.030 A 
HETATM   12  C   UNL     1     -13.934   5.987 -30.445  1.00  0.00    -0.035 A 
HETATM   13  C   UNL     1     -13.483   6.784 -31.500  1.00  0.00     0.013 A 
HETATM   14  C   UNL     1     -13.325   6.245 -32.782  1.00  0.00     0.031 A 
HETATM   15  C   UNL     1     -14.446   0.594 -33.417  1.00  0.00     0.129 C 
HETATM   16  C   UNL     1     -13.189  -0.215 -33.671  1.00  0.00     0.047 C 
HETATM   17  H   UNL     1     -13.201   5.107 -35.076  1.00  0.00     0.169 HD
ENDROOT
BRANCH   1  18
HETATM   18  N   UNL     1     -10.841   0.436 -33.360  1.00  0.00    -0.350 N 
HETATM   19  C   UNL     1      -9.625   0.929 -33.788  1.00  0.00     0.252 C 
HETATM   20  O   UNL     1      -9.511   1.719 -34.718  1.00  0.00    -0.268 OA
HETATM   21  H   UNL     1     -10.836  -0.415 -32.813  1.00  0.00     0.163 HD
BRANCH  19  22
HETATM   22  C   UNL     1      -8.423   0.465 -33.045  1.00  0.00     0.035 A 
HETATM   23  C   UNL     1      -7.531  -0.460 -33.600  1.00  0.00     0.059 A 
HETATM   24  C   UNL     1      -6.445  -0.893 -32.847  1.00  0.00     0.117 A 
HETATM   25  C   UNL     1      -6.232  -0.428 -31.553  1.00  0.00     0.042 A 
HETATM   26  F   UNL     1      -5.594  -1.782 -33.375  1.00  0.00    -0.206 F 
HETATM   27  C   UNL     1      -7.126   0.482 -30.993  1.00  0.00     0.004 A 
HETATM   28  C   UNL     1      -8.223   0.924 -31.735  1.00  0.00     0.017 A 
ENDBRANCH  19  22
ENDBRANCH   1  18
BRANCH  12  29
HETATM   29  C   UNL     1     -14.026   6.562 -29.098  1.00  0.00     0.012 C 
HETATM   30  C   UNL     1     -14.623   5.916 -28.084  1.00  0.00     0.012 C 
BRANCH  30  31
HETATM   31  C   UNL     1     -14.699   6.423 -26.708  1.00  0.00    -0.036 A 
HETATM   32  C   UNL     1     -15.650   5.874 -25.838  1.00  0.00     0.014 A 
HETATM   33  C   UNL     1     -15.722   6.288 -24.505  1.00  0.00     0.037 A 
HETATM   34  C   UNL     1     -14.830   7.248 -24.040  1.00  0.00     0.065 A 
HETATM   35  C   UNL     1     -13.871   7.795 -24.883  1.00  0.00     0.037 A 
HETATM   36  C   UNL     1     -13.802   7.380 -26.215  1.00  0.00     0.014 A 
BRANCH  34  37
HETATM   37  O   UNL     1     -14.858   7.676 -22.746  1.00  0.00    -0.361 OA
HETATM   38  H   UNL     1     -14.802   6.903 -22.162  1.00  0.00     0.217 HD
ENDBRANCH  34  37
ENDBRANCH  30  31
ENDBRANCH  12  29
TORSDOF 5
ENDMDL
MODEL 4
REMARK VINA RESULT:      -9.5      3.146     10.376
REMARK  5 active torsions:
REMARK  status: ('A' for Active; 'I' for Inactive)
REMARK    1  A    between atoms: C_6  and  C_7 
REMARK       I    between atoms: C_7  and  N_8 
REMARK    2  A    between atoms: N_8  and  C_9 
REMARK    3  A    between atoms: C_20  and  C_21 
REMARK    4  A    between atoms: C_22  and  C_23 
REMARK    5  A    between atoms: C_26  and  O_27 
ROOT
HETATM    1  C   UNL     1      -6.080   2.677 -32.708  1.00  0.00     0.118 C 
HETATM    2  C   UNL     1      -5.205   3.936 -32.505  1.00  0.00     0.202 C 
HETATM    3  N   UNL     1      -5.797   4.650 -31.391  1.00  0.00    -0.332 N 
HETATM    4  C   UNL     1      -5.182   5.653 -30.690  1.00  0.00     0.257 C 
HETATM    5  O   UNL     1      -5.672   6.159 -29.685  1.00  0.00    -0.267 OA
HETATM    6  C   UNL     1      -3.861   6.134 -31.177  1.00  0.00     0.059 A 
HETATM    7  C   UNL     1      -3.569   6.366 -32.534  1.00  0.00     0.050 A 
HETATM    8  N   UNL     1      -4.388   5.991 -33.617  1.00  0.00    -0.324 N 
HETATM    9  C   UNL     1      -5.229   4.903 -33.691  1.00  0.00     0.247 C 
HETATM   10  O   UNL     1      -5.914   4.740 -34.701  1.00  0.00    -0.271 OA
HETATM   11  C   UNL     1      -2.925   6.483 -30.189  1.00  0.00     0.030 A 
HETATM   12  C   UNL     1      -1.691   7.045 -30.534  1.00  0.00    -0.035 A 
HETATM   13  C   UNL     1      -1.445   7.353 -31.875  1.00  0.00     0.013 A 
HETATM   14  C   UNL     1      -2.379   7.027 -32.863  1.00  0.00     0.031 A 
HETATM   15  C   UNL     1      -7.151   4.219 -31.148  1.00  0.00     0.129 C 
HETATM   16  C   UNL     1      -7.172   2.780 -31.624  1.00  0.00     0.047 C 
HETATM   17  H   UNL     1      -4.255   6.447 -34.513  1.00  0.00     0.169 HD
ENDROOT
BRANCH   1  18
HETATM   18  N   UNL     1      -5.335   1.423 -32.530  1.00  0.00    -0.350 N 
HETATM   19  C   UNL     1      -5.443   0.391 -33.439  1.00  0.00     0.252 C 
HETATM   20  O   UNL     1      -6.128   0.458 -34.453  1.00  0.00    -0.268 OA
HETATM   21  H   UNL     1      -5.014   1.196 -31.598  1.00  0.00     0.163 HD
BRANCH  19  22
HETATM   22  C   UNL     1      -4.660  -0.838 -33.143  1.00  0.00     0.035 A 
HETATM   23  C   UNL     1      -4.762  -1.982 -33.943  1.00  0.00     0.059 A 
HETATM   24  C   UNL     1      -4.039  -3.119 -33.598  1.00  0.00     0.117 A 
HETATM   25  C   UNL     1      -3.221  -3.142 -32.473  1.00  0.00     0.042 A 
HETATM   26  F   UNL     1      -4.140  -4.216 -34.360  1.00  0.00    -0.206 F 
HETATM   27  C   UNL     1      -3.128  -2.009 -31.667  1.00  0.00     0.004 A 
HETATM   28  C   UNL     1      -3.851  -0.860 -31.998  1.00  0.00     0.017 A 
ENDBRANCH  19  22
ENDBRANCH   1  18
BRANCH  12  29
HETATM   29  C   UNL     1      -0.663   7.339 -29.529  1.00  0.00     0.012 C 
HETATM   30  C   UNL     1      -0.876   8.200 -28.520  1.00  0.00     0.012 C 
BRANCH  30  31
HETATM   31  C   UNL     1       0.098   8.492 -27.461  1.00  0.00    -0.036 A 
HETATM   32  C   UNL     1       0.987   7.484 -27.063  1.00  0.00     0.014 A 
HETATM   33  C   UNL     1       1.966   7.734 -26.098  1.00  0.00     0.037 A 
HETATM   34  C   UNL     1       2.062   9.003 -25.537  1.00  0.00     0.065 A 
HETATM   35  C   UNL     1       1.199  10.020 -25.927  1.00  0.00     0.037 A 
HETATM   36  C   UNL     1       0.220   9.766 -26.891  1.00  0.00     0.014 A 
BRANCH  34  37
HETATM   37  O   UNL     1       3.005   9.295 -24.598  1.00  0.00    -0.361 OA
HETATM   38  H   UNL     1       3.691   8.608 -24.624  1.00  0.00     0.217 HD
ENDBRANCH  34  37
ENDBRANCH  30  31
ENDBRANCH  12  29
TORSDOF 5
ENDMDL
MODEL 5
REMARK VINA RESULT:      -9.3      1.690      2.272
REMARK  5 active torsions:
REMARK  status: ('A' for Active; 'I' for Inactive)
REMARK    1  A    between atoms: C_6  and  C_7 
REMARK       I    between atoms: C_7  and  N_8 
REMARK    2  A    between atoms: N_8  and  C_9 
REMARK    3  A    between atoms: C_20  and  C_21 
REMARK    4  A    between atoms: C_22  and  C_23 
REMARK    5  A    between atoms: C_26  and  O_27 
ROOT
HETATM    1  C   UNL     1      -4.569   7.529 -30.021  1.00  0.00     0.118 C 
HETATM    2  C   UNL     1      -5.357   6.236 -30.336  1.00  0.00     0.202 C 
HETATM    3  N   UNL     1      -5.494   6.202 -31.778  1.00  0.00    -0.332 N 
HETATM    4  C   UNL     1      -5.860   5.099 -32.503  1.00  0.00     0.257 C 
HETATM    5  O   UNL     1      -5.860   5.080 -33.731  1.00  0.00    -0.267 OA
HETATM    6  C   UNL     1      -6.268   3.879 -31.756  1.00  0.00     0.059 A 
HETATM    7  C   UNL     1      -7.103   3.902 -30.624  1.00  0.00     0.050 A 
HETATM    8  N   UNL     1      -7.498   5.061 -29.928  1.00  0.00    -0.324 N 
HETATM    9  C   UNL     1      -6.780   6.226 -29.773  1.00  0.00     0.247 C 
HETATM   10  O   UNL     1      -7.289   7.169 -29.167  1.00  0.00    -0.271 OA
HETATM   11  C   UNL     1      -5.879   2.650 -32.316  1.00  0.00     0.030 A 
HETATM   12  C   UNL     1      -6.297   1.440 -31.753  1.00  0.00    -0.035 A 
HETATM   13  C   UNL     1      -7.197   1.471 -30.685  1.00  0.00     0.013 A 
HETATM   14  C   UNL     1      -7.605   2.690 -30.134  1.00  0.00     0.031 A 
HETATM   15  C   UNL     1      -5.260   7.500 -32.361  1.00  0.00     0.129 C 
HETATM   16  C   UNL     1      -4.302   8.171 -31.396  1.00  0.00     0.047 C 
HETATM   17  H   UNL     1      -8.314   5.019 -29.329  1.00  0.00     0.169 HD
ENDROOT
BRANCH   1  18
HETATM   18  N   UNL     1      -3.288   7.273 -29.347  1.00  0.00    -0.350 N 
HETATM   19  C   UNL     1      -2.625   8.272 -28.664  1.00  0.00     0.252 C 
HETATM   20  O   UNL     1      -3.064   9.410 -28.547  1.00  0.00    -0.268 OA
HETATM   21  H   UNL     1      -2.746   6.477 -29.656  1.00  0.00     0.163 HD
BRANCH  19  22
HETATM   22  C   UNL     1      -1.327   7.901 -28.042  1.00  0.00     0.035 A 
HETATM   23  C   UNL     1      -0.149   8.600 -28.332  1.00  0.00     0.059 A 
HETATM   24  C   UNL     1       1.046   8.186 -27.754  1.00  0.00     0.117 A 
HETATM   25  C   UNL     1       1.095   7.089 -26.900  1.00  0.00     0.042 A 
HETATM   26  F   UNL     1       2.174   8.851 -28.036  1.00  0.00    -0.206 F 
HETATM   27  C   UNL     1      -0.073   6.382 -26.621  1.00  0.00     0.004 A 
HETATM   28  C   UNL     1      -1.282   6.784 -27.195  1.00  0.00     0.017 A 
ENDBRANCH  19  22
ENDBRANCH   1  18
BRANCH  12  29
HETATM   29  C   UNL     1      -5.837   0.144 -32.267  1.00  0.00     0.012 C 
HETATM   30  C   UNL     1      -6.555  -0.572 -33.147  1.00  0.00     0.012 C 
BRANCH  30  31
HETATM   31  C   UNL     1      -6.119  -1.847 -33.730  1.00  0.00    -0.036 A 
HETATM   32  C   UNL     1      -4.775  -2.223 -33.602  1.00  0.00     0.014 A 
HETATM   33  C   UNL     1      -4.328  -3.453 -34.094  1.00  0.00     0.037 A 
HETATM   34  C   UNL     1      -5.233  -4.313 -34.705  1.00  0.00     0.065 A 
HETATM   35  C   UNL     1      -6.572  -3.964 -34.831  1.00  0.00     0.037 A 
HETATM   36  C   UNL     1      -7.016  -2.734 -34.340  1.00  0.00     0.014 A 
BRANCH  34  37
HETATM   37  O   UNL     1      -4.844  -5.525 -35.193  1.00  0.00    -0.361 OA
HETATM   38  H   UNL     1      -3.895  -5.487 -35.396  1.00  0.00     0.217 HD
ENDBRANCH  34  37
ENDBRANCH  30  31
ENDBRANCH  12  29
TORSDOF 5
ENDMDL
MODEL 6
REMARK VINA RESULT:      -9.2      5.509      9.915
REMARK  5 active torsions:
REMARK  status: ('A' for Active; 'I' for Inactive)
REMARK    1  A    between atoms: C_6  and  C_7 
REMARK       I    between atoms: C_7  and  N_8 
REMARK    2  A    between atoms: N_8  and  C_9 
REMARK    3  A    between atoms: C_20  and  C_21 
REMARK    4  A    between atoms: C_22  and  C_23 
REMARK    5  A    between atoms: C_26  and  O_27 
ROOT
HETATM    1  C   UNL     1      -4.528   1.897 -31.874  1.00  0.00     0.118 C 
HETATM    2  C   UNL     1      -5.752   2.839 -31.943  1.00  0.00     0.202 C 
HETATM    3  N   UNL     1      -5.253   4.094 -32.467  1.00  0.00    -0.332 N 
HETATM    4  C   UNL     1      -6.037   5.101 -32.964  1.00  0.00     0.257 C 
HETATM    5  O   UNL     1      -5.572   6.104 -33.499  1.00  0.00    -0.267 OA
HETATM    6  C   UNL     1      -7.513   4.957 -32.847  1.00  0.00     0.059 A 
HETATM    7  C   UNL     1      -8.161   4.488 -31.689  1.00  0.00     0.050 A 
HETATM    8  N   UNL     1      -7.518   3.909 -30.577  1.00  0.00    -0.324 N 
HETATM    9  C   UNL     1      -6.362   3.161 -30.576  1.00  0.00     0.247 C 
HETATM   10  O   UNL     1      -5.906   2.761 -29.505  1.00  0.00    -0.271 OA
HETATM   11  C   UNL     1      -8.271   5.442 -33.927  1.00  0.00     0.030 A 
HETATM   12  C   UNL     1      -9.669   5.450 -33.877  1.00  0.00    -0.035 A 
HETATM   13  C   UNL     1     -10.301   5.067 -32.691  1.00  0.00     0.013 A 
HETATM   14  C   UNL     1      -9.553   4.602 -31.604  1.00  0.00     0.031 A 
HETATM   15  C   UNL     1      -3.820   4.185 -32.342  1.00  0.00     0.129 C 
HETATM   16  C   UNL     1      -3.352   2.744 -32.399  1.00  0.00     0.047 C 
HETATM   17  H   UNL     1      -8.008   3.877 -29.691  1.00  0.00     0.169 HD
ENDROOT
BRANCH   1  18
HETATM   18  N   UNL     1      -4.676   0.699 -32.712  1.00  0.00    -0.350 N 
HETATM   19  C   UNL     1      -5.418  -0.385 -32.288  1.00  0.00     0.252 C 
HETATM   20  O   UNL     1      -6.020  -0.410 -31.221  1.00  0.00    -0.268 OA
HETATM   21  H   UNL     1      -3.981   0.540 -33.430  1.00  0.00     0.163 HD
BRANCH  19  22
HETATM   22  C   UNL     1      -5.477  -1.549 -33.211  1.00  0.00     0.035 A 
HETATM   23  C   UNL     1      -4.374  -2.388 -33.404  1.00  0.00     0.059 A 
HETATM   24  C   UNL     1      -4.469  -3.438 -34.309  1.00  0.00     0.117 A 
HETATM   25  C   UNL     1      -5.636  -3.669 -35.030  1.00  0.00     0.042 A 
HETATM   26  F   UNL     1      -3.411  -4.238 -34.499  1.00  0.00    -0.206 F 
HETATM   27  C   UNL     1      -6.732  -2.827 -34.850  1.00  0.00     0.004 A 
HETATM   28  C   UNL     1      -6.652  -1.765 -33.947  1.00  0.00     0.017 A 
ENDBRANCH  19  22
ENDBRANCH   1  18
BRANCH  12  29
HETATM   29  C   UNL     1     -10.484   5.872 -35.022  1.00  0.00     0.012 C 
HETATM   30  C   UNL     1     -11.565   6.657 -34.880  1.00  0.00     0.012 C 
BRANCH  30  31
HETATM   31  C   UNL     1     -12.385   7.148 -35.995  1.00  0.00    -0.036 A 
HETATM   32  C   UNL     1     -11.904   8.212 -36.769  1.00  0.00     0.014 A 
HETATM   33  C   UNL     1     -12.625   8.675 -37.873  1.00  0.00     0.037 A 
HETATM   34  C   UNL     1     -13.827   8.062 -38.208  1.00  0.00     0.065 A 
HETATM   35  C   UNL     1     -14.315   6.998 -37.461  1.00  0.00     0.037 A 
HETATM   36  C   UNL     1     -13.593   6.537 -36.358  1.00  0.00     0.014 A 
BRANCH  34  37
HETATM   37  O   UNL     1     -14.561   8.476 -39.280  1.00  0.00    -0.361 OA
HETATM   38  H   UNL     1     -15.263   9.068 -38.965  1.00  0.00     0.217 HD
ENDBRANCH  34  37
ENDBRANCH  30  31
ENDBRANCH  12  29
TORSDOF 5
ENDMDL
MODEL 7
REMARK VINA RESULT:      -9.1      5.289      8.294
REMARK  5 active torsions:
REMARK  status: ('A' for Active; 'I' for Inactive)
REMARK    1  A    between atoms: C_6  and  C_7 
REMARK       I    between atoms: C_7  and  N_8 
REMARK    2  A    between atoms: N_8  and  C_9 
REMARK    3  A    between atoms: C_20  and  C_21 
REMARK    4  A    between atoms: C_22  and  C_23 
REMARK    5  A    between atoms: C_26  and  O_27 
ROOT
HETATM    1  C   UNL     1      -9.857   6.685 -30.436  1.00  0.00     0.118 C 
HETATM    2  C   UNL     1      -8.753   5.896 -31.177  1.00  0.00     0.202 C 
HETATM    3  N   UNL     1      -7.789   5.522 -30.161  1.00  0.00    -0.332 N 
HETATM    4  C   UNL     1      -6.814   4.573 -30.319  1.00  0.00     0.257 C 
HETATM    5  O   UNL     1      -6.086   4.208 -29.401  1.00  0.00    -0.267 OA
HETATM    6  C   UNL     1      -6.647   3.965 -31.667  1.00  0.00     0.059 A 
HETATM    7  C   UNL     1      -6.675   4.705 -32.864  1.00  0.00     0.050 A 
HETATM    8  N   UNL     1      -7.060   6.055 -32.976  1.00  0.00    -0.324 N 
HETATM    9  C   UNL     1      -7.985   6.726 -32.208  1.00  0.00     0.247 C 
HETATM   10  O   UNL     1      -8.176   7.926 -32.408  1.00  0.00    -0.271 OA
HETATM   11  C   UNL     1      -6.321   2.599 -31.695  1.00  0.00     0.030 A 
HETATM   12  C   UNL     1      -6.039   1.951 -32.902  1.00  0.00    -0.035 A 
HETATM   13  C   UNL     1      -5.982   2.710 -34.074  1.00  0.00     0.013 A 
HETATM   14  C   UNL     1      -6.286   4.076 -34.053  1.00  0.00     0.031 A 
HETATM   15  C   UNL     1      -7.937   6.324 -28.972  1.00  0.00     0.129 C 
HETATM   16  C   UNL     1      -9.407   6.700 -28.962  1.00  0.00     0.047 C 
HETATM   17  H   UNL     1      -6.773   6.580 -33.794  1.00  0.00     0.169 HD
ENDROOT
BRANCH   1  18
HETATM   18  N   UNL     1     -11.181   6.053 -30.533  1.00  0.00    -0.350 N 
HETATM   19  C   UNL     1     -11.973   6.219 -31.651  1.00  0.00     0.252 C 
HETATM   20  O   UNL     1     -11.623   6.863 -32.632  1.00  0.00    -0.268 OA
HETATM   21  H   UNL     1     -11.635   5.781 -29.671  1.00  0.00     0.163 HD
BRANCH  19  22
HETATM   22  C   UNL     1     -13.301   5.550 -31.626  1.00  0.00     0.035 A 
HETATM   23  C   UNL     1     -13.419   4.156 -31.619  1.00  0.00     0.059 A 
HETATM   24  C   UNL     1     -14.685   3.581 -31.638  1.00  0.00     0.117 A 
HETATM   25  C   UNL     1     -15.834   4.364 -31.670  1.00  0.00     0.042 A 
HETATM   26  F   UNL     1     -14.798   2.246 -31.636  1.00  0.00    -0.206 F 
HETATM   27  C   UNL     1     -15.720   5.752 -31.692  1.00  0.00     0.004 A 
HETATM   28  C   UNL     1     -14.455   6.345 -31.676  1.00  0.00     0.017 A 
ENDBRANCH  19  22
ENDBRANCH   1  18
BRANCH  12  29
HETATM   29  C   UNL     1      -5.780   0.508 -32.968  1.00  0.00     0.012 C 
HETATM   30  C   UNL     1      -6.055  -0.219 -34.063  1.00  0.00     0.012 C 
BRANCH  30  31
HETATM   31  C   UNL     1      -5.770  -1.653 -34.199  1.00  0.00    -0.036 A 
HETATM   32  C   UNL     1      -6.787  -2.503 -34.655  1.00  0.00     0.014 A 
HETATM   33  C   UNL     1      -6.544  -3.865 -34.852  1.00  0.00     0.037 A 
HETATM   34  C   UNL     1      -5.275  -4.375 -34.602  1.00  0.00     0.065 A 
HETATM   35  C   UNL     1      -4.250  -3.546 -34.162  1.00  0.00     0.037 A 
HETATM   36  C   UNL     1      -4.496  -2.185 -33.965  1.00  0.00     0.014 A 
BRANCH  34  37
HETATM   37  O   UNL     1      -4.991  -5.695 -34.786  1.00  0.00    -0.361 OA
HETATM   38  H   UNL     1      -5.328  -6.194 -34.025  1.00  0.00     0.217 HD
ENDBRANCH  34  37
ENDBRANCH  30  31
ENDBRANCH  12  29
TORSDOF 5
ENDMDL
MODEL 8
REMARK VINA RESULT:      -9.0      5.727      8.976
REMARK  5 active torsions:
REMARK  status: ('A' for Active; 'I' for Inactive)
REMARK    1  A    between atoms: C_6  and  C_7 
REMARK       I    between atoms: C_7  and  N_8 
REMARK    2  A    between atoms: N_8  and  C_9 
REMARK    3  A    between atoms: C_20  and  C_21 
REMARK    4  A    between atoms: C_22  and  C_23 
REMARK    5  A    between atoms: C_26  and  O_27 
ROOT
HETATM    1  C   UNL     1     -10.465   7.523 -33.046  1.00  0.00     0.118 C 
HETATM    2  C   UNL     1      -9.331   6.477 -32.936  1.00  0.00     0.202 C 
HETATM    3  N   UNL     1      -9.739   5.566 -31.885  1.00  0.00    -0.332 N 
HETATM    4  C   UNL     1      -9.183   4.335 -31.658  1.00  0.00     0.257 C 
HETATM    5  O   UNL     1      -9.627   3.547 -30.827  1.00  0.00    -0.267 OA
HETATM    6  C   UNL     1      -7.994   3.949 -32.464  1.00  0.00     0.059 A 
HETATM    7  C   UNL     1      -6.923   4.819 -32.740  1.00  0.00     0.050 A 
HETATM    8  N   UNL     1      -6.913   6.203 -32.478  1.00  0.00    -0.324 N 
HETATM    9  C   UNL     1      -7.988   7.064 -32.494  1.00  0.00     0.247 C 
HETATM   10  O   UNL     1      -7.816   8.246 -32.198  1.00  0.00    -0.271 OA
HETATM   11  C   UNL     1      -7.916   2.599 -32.846  1.00  0.00     0.030 A 
HETATM   12  C   UNL     1      -6.791   2.105 -33.517  1.00  0.00    -0.035 A 
HETATM   13  C   UNL     1      -5.697   2.953 -33.708  1.00  0.00     0.013 A 
HETATM   14  C   UNL     1      -5.759   4.293 -33.313  1.00  0.00     0.031 A 
HETATM   15  C   UNL     1     -10.766   6.144 -31.055  1.00  0.00     0.129 C 
HETATM   16  C   UNL     1     -11.495   7.099 -31.981  1.00  0.00     0.047 C 
HETATM   17  H   UNL     1      -6.024   6.686 -32.429  1.00  0.00     0.169 HD
ENDROOT
BRANCH   1  18
HETATM   18  N   UNL     1     -11.109   7.537 -34.368  1.00  0.00    -0.350 N 
HETATM   19  C   UNL     1     -11.014   8.634 -35.199  1.00  0.00     0.252 C 
HETATM   20  O   UNL     1     -10.373   9.639 -34.914  1.00  0.00    -0.268 OA
HETATM   21  H   UNL     1     -11.875   6.895 -34.522  1.00  0.00     0.163 HD
BRANCH  19  22
HETATM   22  C   UNL     1     -11.726   8.541 -36.501  1.00  0.00     0.035 A 
HETATM   23  C   UNL     1     -11.208   9.126 -37.662  1.00  0.00     0.059 A 
HETATM   24  C   UNL     1     -11.933   9.046 -38.845  1.00  0.00     0.117 A 
HETATM   25  C   UNL     1     -13.165   8.402 -38.896  1.00  0.00     0.042 A 
HETATM   26  F   UNL     1     -11.440   9.610 -39.956  1.00  0.00    -0.206 F 
HETATM   27  C   UNL     1     -13.691   7.831 -37.739  1.00  0.00     0.004 A 
HETATM   28  C   UNL     1     -12.975   7.905 -36.541  1.00  0.00     0.017 A 
ENDBRANCH  19  22
ENDBRANCH   1  18
BRANCH  12  29
HETATM   29  C   UNL     1      -6.721   0.721 -34.001  1.00  0.00     0.012 C 
HETATM   30  C   UNL     1      -5.729  -0.111 -33.645  1.00  0.00     0.012 C 
BRANCH  30  31
HETATM   31  C   UNL     1      -5.637  -1.517 -34.060  1.00  0.00    -0.036 A 
HETATM   32  C   UNL     1      -4.438  -2.209 -33.840  1.00  0.00     0.014 A 
HETATM   33  C   UNL     1      -4.325  -3.562 -34.169  1.00  0.00     0.037 A 
HETATM   34  C   UNL     1      -5.420  -4.227 -34.709  1.00  0.00     0.065 A 
HETATM   35  C   UNL     1      -6.621  -3.562 -34.923  1.00  0.00     0.037 A 
HETATM   36  C   UNL     1      -6.732  -2.209 -34.594  1.00  0.00     0.014 A 
BRANCH  34  37
HETATM   37  O   UNL     1      -5.357  -5.548 -35.038  1.00  0.00    -0.361 OA
HETATM   38  H   UNL     1      -4.975  -6.036 -34.290  1.00  0.00     0.217 HD
ENDBRANCH  34  37
ENDBRANCH  30  31
ENDBRANCH  12  29
TORSDOF 5
ENDMDL
MODEL 9
REMARK VINA RESULT:      -8.7      5.454     10.100
REMARK  5 active torsions:
REMARK  status: ('A' for Active; 'I' for Inactive)
REMARK    1  A    between atoms: C_6  and  C_7 
REMARK       I    between atoms: C_7  and  N_8 
REMARK    2  A    between atoms: N_8  and  C_9 
REMARK    3  A    between atoms: C_20  and  C_21 
REMARK    4  A    between atoms: C_22  and  C_23 
REMARK    5  A    between atoms: C_26  and  O_27 
ROOT
HETATM    1  C   UNL     1      -4.604   0.871 -31.847  1.00  0.00     0.118 C 
HETATM    2  C   UNL     1      -5.732   1.929 -31.870  1.00  0.00     0.202 C 
HETATM    3  N   UNL     1      -5.155   3.103 -32.493  1.00  0.00    -0.332 N 
HETATM    4  C   UNL     1      -5.874   4.163 -32.979  1.00  0.00     0.257 C 
HETATM    5  O   UNL     1      -5.357   5.090 -33.597  1.00  0.00    -0.267 OA
HETATM    6  C   UNL     1      -7.343   4.174 -32.745  1.00  0.00     0.059 A 
HETATM    7  C   UNL     1      -7.939   3.823 -31.520  1.00  0.00     0.050 A 
HETATM    8  N   UNL     1      -7.271   3.229 -30.431  1.00  0.00    -0.324 N 
HETATM    9  C   UNL     1      -6.197   2.369 -30.480  1.00  0.00     0.247 C 
HETATM   10  O   UNL     1      -5.698   1.970 -29.428  1.00  0.00    -0.271 OA
HETATM   11  C   UNL     1      -8.134   4.687 -33.787  1.00  0.00     0.030 A 
HETATM   12  C   UNL     1      -9.516   4.840 -33.634  1.00  0.00    -0.035 A 
HETATM   13  C   UNL     1     -10.086   4.573 -32.386  1.00  0.00     0.013 A 
HETATM   14  C   UNL     1      -9.303   4.081 -31.337  1.00  0.00     0.031 A 
HETATM   15  C   UNL     1      -3.715   3.054 -32.480  1.00  0.00     0.129 C 
HETATM   16  C   UNL     1      -3.396   1.571 -32.500  1.00  0.00     0.047 C 
HETATM   17  H   UNL     1      -7.689   3.284 -29.510  1.00  0.00     0.169 HD
ENDROOT
BRANCH   1  18
HETATM   18  N   UNL     1      -4.935  -0.341 -32.610  1.00  0.00    -0.350 N 
HETATM   19  C   UNL     1      -4.133  -1.463 -32.556  1.00  0.00     0.252 C 
HETATM   20  O   UNL     1      -3.130  -1.537 -31.856  1.00  0.00    -0.268 OA
HETATM   21  H   UNL     1      -5.546  -0.239 -33.410  1.00  0.00     0.163 HD
BRANCH  19  22
HETATM   22  C   UNL     1      -4.556  -2.620 -33.388  1.00  0.00     0.035 A 
HETATM   23  C   UNL     1      -5.721  -2.578 -34.162  1.00  0.00     0.059 A 
HETATM   24  C   UNL     1      -6.093  -3.703 -34.891  1.00  0.00     0.117 A 
HETATM   25  C   UNL     1      -5.334  -4.868 -34.861  1.00  0.00     0.042 A 
HETATM   26  F   UNL     1      -7.211  -3.665 -35.628  1.00  0.00    -0.206 F 
HETATM   27  C   UNL     1      -4.181  -4.917 -34.080  1.00  0.00     0.004 A 
HETATM   28  C   UNL     1      -3.795  -3.797 -33.340  1.00  0.00     0.017 A 
ENDBRANCH  19  22
ENDBRANCH   1  18
BRANCH  12  29
HETATM   29  C   UNL     1     -10.374   5.293 -34.734  1.00  0.00     0.012 C 
HETATM   30  C   UNL     1     -11.266   6.286 -34.583  1.00  0.00     0.012 C 
BRANCH  30  31
HETATM   31  C   UNL     1     -12.113   6.811 -35.662  1.00  0.00    -0.036 A 
HETATM   32  C   UNL     1     -11.656   7.907 -36.406  1.00  0.00     0.014 A 
HETATM   33  C   UNL     1     -12.404   8.405 -37.476  1.00  0.00     0.037 A 
HETATM   34  C   UNL     1     -13.608   7.795 -37.809  1.00  0.00     0.065 A 
HETATM   35  C   UNL     1     -14.072   6.699 -37.092  1.00  0.00     0.037 A 
HETATM   36  C   UNL     1     -13.323   6.204 -36.022  1.00  0.00     0.014 A 
BRANCH  34  37
HETATM   37  O   UNL     1     -14.367   8.242 -38.850  1.00  0.00    -0.361 OA
HETATM   38  H   UNL     1     -14.140   9.170 -39.022  1.00  0.00     0.217 HD
ENDBRANCH  34  37
ENDBRANCH  30  31
ENDBRANCH  12  29
TORSDOF 5
ENDMDL
MODEL 10
REMARK VINA RESULT:      -8.7      2.406      2.991
REMARK  5 active torsions:
REMARK  status: ('A' for Active; 'I' for Inactive)
REMARK    1  A    between atoms: C_6  and  C_7 
REMARK       I    between atoms: C_7  and  N_8 
REMARK    2  A    between atoms: N_8  and  C_9 
REMARK    3  A    between atoms: C_20  and  C_21 
REMARK    4  A    between atoms: C_22  and  C_23 
REMARK    5  A    between atoms: C_26  and  O_27 
ROOT
HETATM    1  C   UNL     1      -4.887   8.751 -28.987  1.00  0.00     0.118 C 
HETATM    2  C   UNL     1      -5.698   7.480 -29.327  1.00  0.00     0.202 C 
HETATM    3  N   UNL     1      -6.305   7.736 -30.618  1.00  0.00    -0.332 N 
HETATM    4  C   UNL     1      -6.860   6.778 -31.425  1.00  0.00     0.257 C 
HETATM    5  O   UNL     1      -7.266   7.018 -32.559  1.00  0.00    -0.267 OA
HETATM    6  C   UNL     1      -6.963   5.393 -30.892  1.00  0.00     0.059 A 
HETATM    7  C   UNL     1      -7.376   5.092 -29.581  1.00  0.00     0.050 A 
HETATM    8  N   UNL     1      -7.549   6.032 -28.547  1.00  0.00    -0.324 N 
HETATM    9  C   UNL     1      -6.853   7.206 -28.361  1.00  0.00     0.247 C 
HETATM   10  O   UNL     1      -7.159   7.944 -27.424  1.00  0.00    -0.271 OA
HETATM   11  C   UNL     1      -6.748   4.356 -31.815  1.00  0.00     0.030 A 
HETATM   12  C   UNL     1      -6.922   3.018 -31.446  1.00  0.00    -0.035 A 
HETATM   13  C   UNL     1      -7.417   2.731 -30.171  1.00  0.00     0.013 A 
HETATM   14  C   UNL     1      -7.652   3.759 -29.252  1.00  0.00     0.031 A 
HETATM   15  C   UNL     1      -6.314   9.144 -30.927  1.00  0.00     0.129 C 
HETATM   16  C   UNL     1      -5.109   9.692 -30.188  1.00  0.00     0.047 C 
HETATM   17  H   UNL     1      -8.119   5.782 -27.747  1.00  0.00     0.169 HD
ENDROOT
BRANCH   1  18
HETATM   18  N   UNL     1      -3.448   8.492 -28.832  1.00  0.00    -0.350 N 
HETATM   19  C   UNL     1      -2.854   8.470 -27.586  1.00  0.00     0.252 C 
HETATM   20  O   UNL     1      -3.476   8.630 -26.543  1.00  0.00    -0.268 OA
HETATM   21  H   UNL     1      -2.853   8.656 -29.633  1.00  0.00     0.163 HD
BRANCH  19  22
HETATM   22  C   UNL     1      -1.388   8.220 -27.556  1.00  0.00     0.035 A 
HETATM   23  C   UNL     1      -0.668   8.236 -26.356  1.00  0.00     0.059 A 
HETATM   24  C   UNL     1       0.708   8.037 -26.387  1.00  0.00     0.117 A 
HETATM   25  C   UNL     1       1.381   7.829 -27.586  1.00  0.00     0.042 A 
HETATM   26  F   UNL     1       1.398   8.056 -25.239  1.00  0.00    -0.206 F 
HETATM   27  C   UNL     1       0.669   7.828 -28.784  1.00  0.00     0.004 A 
HETATM   28  C   UNL     1      -0.713   8.029 -28.770  1.00  0.00     0.017 A 
ENDBRANCH  19  22
ENDBRANCH   1  18
BRANCH  12  29
HETATM   29  C   UNL     1      -6.622   1.913 -32.365  1.00  0.00     0.012 C 
HETATM   30  C   UNL     1      -6.288   0.689 -31.927  1.00  0.00     0.012 C 
BRANCH  30  31
HETATM   31  C   UNL     1      -6.027  -0.462 -32.801  1.00  0.00    -0.036 A 
HETATM   32  C   UNL     1      -7.069  -0.953 -33.599  1.00  0.00     0.014 A 
HETATM   33  C   UNL     1      -6.852  -2.011 -34.486  1.00  0.00     0.037 A 
HETATM   34  C   UNL     1      -5.584  -2.572 -34.581  1.00  0.00     0.065 A 
HETATM   35  C   UNL     1      -4.534  -2.091 -33.807  1.00  0.00     0.037 A 
HETATM   36  C   UNL     1      -4.754  -1.034 -32.921  1.00  0.00     0.014 A 
BRANCH  34  37
HETATM   37  O   UNL     1      -5.324  -3.600 -35.436  1.00  0.00    -0.361 OA
HETATM   38  H   UNL     1      -5.544  -4.436 -34.993  1.00  0.00     0.217 HD
ENDBRANCH  34  37
ENDBRANCH  30  31
ENDBRANCH  12  29
TORSDOF 5
ENDMDL
