MODEL 1
REMARK VINA RESULT:      -8.6      0.000      0.000
REMARK  5 active torsions:
REMARK  status: ('A' for Active; 'I' for Inactive)
REMARK    1  A    between atoms: C_7  and  C_8 
REMARK    2  A    between atoms: C_11  and  N_12 
REMARK       I    between atoms: N_12  and  C_13 
REMARK    3  A    between atoms: C_13  and  C_14 
REMARK    4  A    between atoms: C_16  and  O_17 
REMARK    5  A    between atoms: C_20  and  O_21 
ROOT
HETATM    1  C   UNL     1      -4.621   1.510 -32.565  1.00  0.00     0.017 A 
HETATM    2  C   UNL     1      -5.152   2.769 -32.870  1.00  0.00     0.018 A 
HETATM    3  C   UNL     1      -4.620   3.934 -32.300  1.00  0.00     0.030 A 
HETATM    4  C   UNL     1      -3.545   3.862 -31.415  1.00  0.00     0.035 A 
HETATM    5  C   UNL     1      -3.040   2.604 -31.069  1.00  0.00     0.030 A 
HETATM    6  C   UNL     1      -3.571   1.441 -31.641  1.00  0.00     0.018 A 
ENDROOT
BRANCH   4   7
HETATM    7  N   UNL     1      -2.893   4.987 -30.869  1.00  0.00    -0.323 N 
HETATM    8  C   UNL     1      -1.558   5.321 -30.999  1.00  0.00     0.256 C 
HETATM    9  O   UNL     1      -0.709   4.756 -31.675  1.00  0.00    -0.267 OA
HETATM   10  H   UNL     1      -3.435   5.523 -30.202  1.00  0.00     0.169 HD
BRANCH   8  11
HETATM   11  C   UNL     1      -1.134   6.463 -30.149  1.00  0.00     0.037 A 
HETATM   12  C   UNL     1      -0.097   6.251 -29.235  1.00  0.00     0.054 A 
HETATM   13  C   UNL     1       0.292   7.271 -28.369  1.00  0.00     0.071 A 
HETATM   14  C   UNL     1      -0.345   8.510 -28.446  1.00  0.00     0.073 A 
HETATM   15  C   UNL     1      -1.366   8.738 -29.379  1.00  0.00     0.071 A 
HETATM   16  C   UNL     1      -1.765   7.711 -30.234  1.00  0.00     0.054 A 
BRANCH  13  17
HETATM   17  O   UNL     1       1.292   6.931 -27.500  1.00  0.00    -0.356 OA
HETATM   18  C   UNL     1       1.654   7.899 -26.524  1.00  0.00     0.210 C 
ENDBRANCH  13  17
BRANCH  15  19
HETATM   19  O   UNL     1      -1.892  10.001 -29.344  1.00  0.00    -0.356 OA
HETATM   20  C   UNL     1      -2.074  10.595 -28.063  1.00  0.00     0.210 C 
ENDBRANCH  15  19
ENDBRANCH   8  11
ENDBRANCH   4   7
BRANCH   1  21
HETATM   21  C   UNL     1      -5.094   0.287 -33.210  1.00  0.00     0.180 A 
HETATM   22  N   UNL     1      -6.288   0.028 -33.716  1.00  0.00    -0.221 NA
HETATM   23  C   UNL     1      -6.200  -1.286 -34.100  1.00  0.00     0.093 A 
HETATM   24  C   UNL     1      -4.934  -1.773 -33.829  1.00  0.00     0.107 A 
HETATM   25  C   UNL     1      -7.146  -2.144 -34.671  1.00  0.00     0.035 A 
HETATM   26  C   UNL     1      -4.509  -3.070 -34.088  1.00  0.00     0.046 A 
HETATM   27  O   UNL     1      -4.212  -0.765 -33.260  1.00  0.00    -0.289 OA
HETATM   28  C   UNL     1      -5.460  -3.927 -34.671  1.00  0.00    -0.059 A 
HETATM   29  C   UNL     1      -5.105  -5.362 -34.945  1.00  0.00     0.048 C 
HETATM   30  C   UNL     1      -6.761  -3.467 -34.944  1.00  0.00     0.009 A 
ENDBRANCH   1  21
TORSDOF 5
ENDMDL
MODEL 2
REMARK VINA RESULT:      -8.5      0.595      2.168
REMARK  5 active torsions:
REMARK  status: ('A' for Active; 'I' for Inactive)
REMARK    1  A    between atoms: C_7  and  C_8 
REMARK    2  A    between atoms: C_11  and  N_12 
REMARK       I    between atoms: N_12  and  C_13 
REMARK    3  A    between atoms: C_13  and  C_14 
REMARK    4  A    between atoms: C_16  and  O_17 
REMARK    5  A    between atoms: C_20  and  O_21 
ROOT
HETATM    1  C   UNL     1      -4.703   1.615 -32.597  1.00  0.00     0.017 A 
HETATM    2  C   UNL     1      -5.111   2.873 -33.057  1.00  0.00     0.018 A 
HETATM    3  C   UNL     1      -4.600   4.049 -32.490  1.00  0.00     0.030 A 
HETATM    4  C   UNL     1      -3.671   3.990 -31.452  1.00  0.00     0.035 A 
HETATM    5  C   UNL     1      -3.296   2.736 -30.956  1.00  0.00     0.030 A 
HETATM    6  C   UNL     1      -3.804   1.562 -31.525  1.00  0.00     0.018 A 
ENDROOT
BRANCH   4   7
HETATM    7  N   UNL     1      -3.043   5.119 -30.887  1.00  0.00    -0.323 N 
HETATM    8  C   UNL     1      -1.694   5.424 -30.919  1.00  0.00     0.256 C 
HETATM    9  O   UNL     1      -0.807   4.823 -31.508  1.00  0.00    -0.267 OA
HETATM   10  H   UNL     1      -3.625   5.684 -30.282  1.00  0.00     0.169 HD
BRANCH   8  11
HETATM   11  C   UNL     1      -1.316   6.583 -30.071  1.00  0.00     0.037 A 
HETATM   12  C   UNL     1      -2.229   7.636 -29.954  1.00  0.00     0.054 A 
HETATM   13  C   UNL     1      -1.894   8.774 -29.223  1.00  0.00     0.071 A 
HETATM   14  C   UNL     1      -0.652   8.836 -28.589  1.00  0.00     0.073 A 
HETATM   15  C   UNL     1       0.256   7.771 -28.679  1.00  0.00     0.071 A 
HETATM   16  C   UNL     1      -0.075   6.640 -29.424  1.00  0.00     0.054 A 
BRANCH  13  17
HETATM   17  O   UNL     1      -2.854   9.748 -29.212  1.00  0.00    -0.356 OA
HETATM   18  C   UNL     1      -2.883  10.638 -30.320  1.00  0.00     0.210 C 
ENDBRANCH  13  17
BRANCH  15  19
HETATM   19  O   UNL     1       1.428   7.971 -28.001  1.00  0.00    -0.356 OA
HETATM   20  C   UNL     1       1.509   7.457 -26.676  1.00  0.00     0.210 C 
ENDBRANCH  15  19
ENDBRANCH   8  11
ENDBRANCH   4   7
BRANCH   1  21
HETATM   21  C   UNL     1      -5.147   0.373 -33.227  1.00  0.00     0.180 A 
HETATM   22  N   UNL     1      -6.334   0.079 -33.727  1.00  0.00    -0.221 NA
HETATM   23  C   UNL     1      -6.215  -1.237 -34.095  1.00  0.00     0.093 A 
HETATM   24  C   UNL     1      -4.937  -1.690 -33.821  1.00  0.00     0.107 A 
HETATM   25  C   UNL     1      -7.140  -2.125 -34.655  1.00  0.00     0.035 A 
HETATM   26  C   UNL     1      -4.481  -2.979 -34.064  1.00  0.00     0.046 A 
HETATM   27  O   UNL     1      -4.239  -0.658 -33.265  1.00  0.00    -0.289 OA
HETATM   28  C   UNL     1      -5.411  -3.866 -34.635  1.00  0.00    -0.059 A 
HETATM   29  C   UNL     1      -5.021  -5.295 -34.892  1.00  0.00     0.048 C 
HETATM   30  C   UNL     1      -6.723  -3.442 -34.912  1.00  0.00     0.009 A 
ENDBRANCH   1  21
TORSDOF 5
ENDMDL
MODEL 3
REMARK VINA RESULT:      -8.4      1.502      3.054
REMARK  5 active torsions:
REMARK  status: ('A' for Active; 'I' for Inactive)
REMARK    1  A    between atoms: C_7  and  C_8 
REMARK    2  A    between atoms: C_11  and  N_12 
REMARK       I    between atoms: N_12  and  C_13 
REMARK    3  A    between atoms: C_13  and  C_14 
REMARK    4  A    between atoms: C_16  and  O_17 
REMARK    5  A    between atoms: C_20  and  O_21 
ROOT
HETATM    1  C   UNL     1      -4.367   3.404 -32.372  1.00  0.00     0.017 A 
HETATM    2  C   UNL     1      -2.967   3.437 -32.349  1.00  0.00     0.018 A 
HETATM    3  C   UNL     1      -2.280   4.393 -31.591  1.00  0.00     0.030 A 
HETATM    4  C   UNL     1      -2.979   5.336 -30.837  1.00  0.00     0.035 A 
HETATM    5  C   UNL     1      -4.378   5.339 -30.893  1.00  0.00     0.030 A 
HETATM    6  C   UNL     1      -5.063   4.381 -31.649  1.00  0.00     0.018 A 
ENDROOT
BRANCH   4   7
HETATM    7  N   UNL     1      -2.369   6.273 -29.979  1.00  0.00    -0.323 N 
HETATM    8  C   UNL     1      -1.414   7.215 -30.317  1.00  0.00     0.256 C 
HETATM    9  O   UNL     1      -0.980   7.470 -31.432  1.00  0.00    -0.267 OA
HETATM   10  H   UNL     1      -2.552   6.143 -28.992  1.00  0.00     0.169 HD
BRANCH   8  11
HETATM   11  C   UNL     1      -0.827   7.927 -29.154  1.00  0.00     0.037 A 
HETATM   12  C   UNL     1      -1.401   9.142 -28.771  1.00  0.00     0.054 A 
HETATM   13  C   UNL     1      -0.846   9.881 -27.728  1.00  0.00     0.071 A 
HETATM   14  C   UNL     1       0.269   9.378 -27.055  1.00  0.00     0.073 A 
HETATM   15  C   UNL     1       0.832   8.146 -27.416  1.00  0.00     0.071 A 
HETATM   16  C   UNL     1       0.285   7.417 -28.471  1.00  0.00     0.054 A 
BRANCH  13  17
HETATM   17  O   UNL     1      -1.475  11.067 -27.470  1.00  0.00    -0.356 OA
HETATM   18  C   UNL     1      -2.748  11.265 -28.071  1.00  0.00     0.210 C 
ENDBRANCH  13  17
BRANCH  15  19
HETATM   19  O   UNL     1       1.916   7.778 -26.664  1.00  0.00    -0.356 OA
HETATM   20  C   UNL     1       2.206   8.564 -25.514  1.00  0.00     0.210 C 
ENDBRANCH  15  19
ENDBRANCH   8  11
ENDBRANCH   4   7
BRANCH   1  21
HETATM   21  C   UNL     1      -5.111   2.364 -33.080  1.00  0.00     0.180 A 
HETATM   22  N   UNL     1      -6.176   2.491 -33.853  1.00  0.00    -0.221 NA
HETATM   23  C   UNL     1      -6.505   1.198 -34.169  1.00  0.00     0.093 A 
HETATM   24  C   UNL     1      -5.603   0.326 -33.585  1.00  0.00     0.107 A 
HETATM   25  C   UNL     1      -7.556   0.674 -34.930  1.00  0.00     0.035 A 
HETATM   26  C   UNL     1      -5.649  -1.058 -33.698  1.00  0.00     0.046 A 
HETATM   27  O   UNL     1      -4.698   1.068 -32.885  1.00  0.00    -0.289 OA
HETATM   28  C   UNL     1      -6.701  -1.581 -34.471  1.00  0.00    -0.059 A 
HETATM   29  C   UNL     1      -6.858  -3.069 -34.611  1.00  0.00     0.048 C 
HETATM   30  C   UNL     1      -7.644  -0.722 -35.065  1.00  0.00     0.009 A 
ENDBRANCH   1  21
TORSDOF 5
ENDMDL
MODEL 4
REMARK VINA RESULT:      -8.4      5.580      9.342
REMARK  5 active torsions:
REMARK  status: ('A' for Active; 'I' for Inactive)
REMARK    1  A    between atoms: C_7  and  C_8 
REMARK    2  A    between atoms: C_11  and  N_12 
REMARK       I    between atoms: N_12  and  C_13 
REMARK    3  A    between atoms: C_13  and  C_14 
REMARK    4  A    between atoms: C_16  and  O_17 
REMARK    5  A    between atoms: C_20  and  O_21 
ROOT
HETATM    1  C   UNL     1       0.109   7.416 -28.294  1.00  0.00     0.017 A 
HETATM    2  C   UNL     1       1.086   8.417 -28.370  1.00  0.00     0.018 A 
HETATM    3  C   UNL     1       1.890   8.725 -27.265  1.00  0.00     0.030 A 
HETATM    4  C   UNL     1       1.735   8.037 -26.062  1.00  0.00     0.035 A 
HETATM    5  C   UNL     1       0.730   7.069 -25.965  1.00  0.00     0.030 A 
HETATM    6  C   UNL     1      -0.072   6.760 -27.070  1.00  0.00     0.018 A 
ENDROOT
BRANCH   4   7
HETATM    7  N   UNL     1       2.560   8.222 -24.933  1.00  0.00    -0.323 N 
HETATM    8  C   UNL     1       2.374   9.127 -23.904  1.00  0.00     0.256 C 
HETATM    9  O   UNL     1       1.423   9.878 -23.734  1.00  0.00    -0.267 OA
HETATM   10  H   UNL     1       3.448   7.735 -24.958  1.00  0.00     0.169 HD
BRANCH   8  11
HETATM   11  C   UNL     1       3.516   9.213 -22.960  1.00  0.00     0.037 A 
HETATM   12  C   UNL     1       3.915   8.043 -22.305  1.00  0.00     0.054 A 
HETATM   13  C   UNL     1       4.938   8.085 -21.359  1.00  0.00     0.071 A 
HETATM   14  C   UNL     1       5.575   9.298 -21.097  1.00  0.00     0.073 A 
HETATM   15  C   UNL     1       5.199  10.469 -21.772  1.00  0.00     0.071 A 
HETATM   16  C   UNL     1       4.165  10.429 -22.705  1.00  0.00     0.054 A 
BRANCH  13  17
HETATM   17  O   UNL     1       5.213   6.885 -20.764  1.00  0.00    -0.356 OA
HETATM   18  C   UNL     1       6.372   6.823 -19.942  1.00  0.00     0.210 C 
ENDBRANCH  13  17
BRANCH  15  19
HETATM   19  O   UNL     1       5.917  11.579 -21.417  1.00  0.00    -0.356 OA
HETATM   20  C   UNL     1       6.743  11.480 -20.263  1.00  0.00     0.210 C 
ENDBRANCH  15  19
ENDBRANCH   8  11
ENDBRANCH   4   7
BRANCH   1  21
HETATM   21  C   UNL     1      -0.683   7.010 -29.453  1.00  0.00     0.180 A 
HETATM   22  N   UNL     1      -1.980   6.763 -29.523  1.00  0.00    -0.221 NA
HETATM   23  C   UNL     1      -2.161   6.336 -30.813  1.00  0.00     0.093 A 
HETATM   24  C   UNL     1      -0.956   6.361 -31.492  1.00  0.00     0.107 A 
HETATM   25  C   UNL     1      -3.306   5.896 -31.486  1.00  0.00     0.035 A 
HETATM   26  C   UNL     1      -0.782   5.984 -32.818  1.00  0.00     0.046 A 
HETATM   27  O   UNL     1       0.002   6.799 -30.626  1.00  0.00    -0.289 OA
HETATM   28  C   UNL     1      -1.937   5.551 -33.494  1.00  0.00    -0.059 A 
HETATM   29  C   UNL     1      -1.838   5.080 -34.918  1.00  0.00     0.048 C 
HETATM   30  C   UNL     1      -3.175   5.499 -32.827  1.00  0.00     0.009 A 
ENDBRANCH   1  21
TORSDOF 5
ENDMDL
MODEL 5
REMARK VINA RESULT:      -8.3      2.023     11.196
REMARK  5 active torsions:
REMARK  status: ('A' for Active; 'I' for Inactive)
REMARK    1  A    between atoms: C_7  and  C_8 
REMARK    2  A    between atoms: C_11  and  N_12 
REMARK       I    between atoms: N_12  and  C_13 
REMARK    3  A    between atoms: C_13  and  C_14 
REMARK    4  A    between atoms: C_16  and  O_17 
REMARK    5  A    between atoms: C_20  and  O_21 
ROOT
HETATM    1  C   UNL     1      -2.277   5.790 -30.673  1.00  0.00     0.017 A 
HETATM    2  C   UNL     1      -3.676   5.835 -30.634  1.00  0.00     0.018 A 
HETATM    3  C   UNL     1      -4.448   4.869 -31.292  1.00  0.00     0.030 A 
HETATM    4  C   UNL     1      -3.836   3.836 -32.001  1.00  0.00     0.035 A 
HETATM    5  C   UNL     1      -2.439   3.812 -32.084  1.00  0.00     0.030 A 
HETATM    6  C   UNL     1      -1.669   4.777 -31.424  1.00  0.00     0.018 A 
ENDROOT
BRANCH   4   7
HETATM    7  N   UNL     1      -4.534   2.775 -32.615  1.00  0.00    -0.323 N 
HETATM    8  C   UNL     1      -4.862   1.557 -32.049  1.00  0.00     0.256 C 
HETATM    9  O   UNL     1      -4.686   1.199 -30.893  1.00  0.00    -0.267 OA
HETATM   10  H   UNL     1      -4.683   2.871 -33.612  1.00  0.00     0.169 HD
BRANCH   8  11
HETATM   11  C   UNL     1      -5.430   0.577 -33.010  1.00  0.00     0.037 A 
HETATM   12  C   UNL     1      -6.630   0.904 -33.648  1.00  0.00     0.054 A 
HETATM   13  C   UNL     1      -7.237  -0.010 -34.508  1.00  0.00     0.071 A 
HETATM   14  C   UNL     1      -6.618  -1.239 -34.743  1.00  0.00     0.073 A 
HETATM   15  C   UNL     1      -5.400  -1.561 -34.128  1.00  0.00     0.071 A 
HETATM   16  C   UNL     1      -4.803  -0.652 -33.256  1.00  0.00     0.054 A 
BRANCH  13  17
HETATM   17  O   UNL     1      -8.422   0.411 -35.044  1.00  0.00    -0.356 OA
HETATM   18  C   UNL     1      -9.188   1.328 -34.273  1.00  0.00     0.210 C 
ENDBRANCH  13  17
BRANCH  15  19
HETATM   19  O   UNL     1      -4.910  -2.795 -34.459  1.00  0.00    -0.356 OA
HETATM   20  C   UNL     1      -5.772  -3.665 -35.183  1.00  0.00     0.210 C 
ENDBRANCH  15  19
ENDBRANCH   8  11
ENDBRANCH   4   7
BRANCH   1  21
HETATM   21  C   UNL     1      -1.445   6.729 -29.924  1.00  0.00     0.180 A 
HETATM   22  N   UNL     1      -0.151   6.661 -29.664  1.00  0.00    -0.221 NA
HETATM   23  C   UNL     1       0.076   7.746 -28.855  1.00  0.00     0.093 A 
HETATM   24  C   UNL     1      -1.100   8.451 -28.671  1.00  0.00     0.107 A 
HETATM   25  C   UNL     1       1.240   8.197 -28.224  1.00  0.00     0.035 A 
HETATM   26  C   UNL     1      -1.225   9.600 -27.901  1.00  0.00     0.046 A 
HETATM   27  O   UNL     1      -2.085   7.807 -29.360  1.00  0.00    -0.289 OA
HETATM   28  C   UNL     1      -0.051  10.056 -27.276  1.00  0.00    -0.059 A 
HETATM   29  C   UNL     1      -0.100  11.266 -26.385  1.00  0.00     0.048 C 
HETATM   30  C   UNL     1       1.158   9.353 -27.430  1.00  0.00     0.009 A 
ENDBRANCH   1  21
TORSDOF 5
ENDMDL
MODEL 6
REMARK VINA RESULT:      -8.2      0.954      1.139
REMARK  5 active torsions:
REMARK  status: ('A' for Active; 'I' for Inactive)
REMARK    1  A    between atoms: C_7  and  C_8 
REMARK    2  A    between atoms: C_11  and  N_12 
REMARK       I    between atoms: N_12  and  C_13 
REMARK    3  A    between atoms: C_13  and  C_14 
REMARK    4  A    between atoms: C_16  and  O_17 
REMARK    5  A    between atoms: C_20  and  O_21 
ROOT
HETATM    1  C   UNL     1      -4.401   2.306 -32.450  1.00  0.00     0.017 A 
HETATM    2  C   UNL     1      -3.192   2.816 -32.940  1.00  0.00     0.018 A 
HETATM    3  C   UNL     1      -2.584   3.929 -32.343  1.00  0.00     0.030 A 
HETATM    4  C   UNL     1      -3.171   4.553 -31.243  1.00  0.00     0.035 A 
HETATM    5  C   UNL     1      -4.402   4.078 -30.778  1.00  0.00     0.030 A 
HETATM    6  C   UNL     1      -5.008   2.965 -31.373  1.00  0.00     0.018 A 
ENDROOT
BRANCH   4   7
HETATM    7  N   UNL     1      -2.582   5.617 -30.530  1.00  0.00    -0.323 N 
HETATM    8  C   UNL     1      -1.237   5.931 -30.461  1.00  0.00     0.256 C 
HETATM    9  O   UNL     1      -0.315   5.400 -31.066  1.00  0.00    -0.267 OA
HETATM   10  H   UNL     1      -3.199   6.112 -29.898  1.00  0.00     0.169 HD
BRANCH   8  11
HETATM   11  C   UNL     1      -0.913   6.993 -29.476  1.00  0.00     0.037 A 
HETATM   12  C   UNL     1       0.007   6.694 -28.467  1.00  0.00     0.054 A 
HETATM   13  C   UNL     1       0.294   7.635 -27.480  1.00  0.00     0.071 A 
HETATM   14  C   UNL     1      -0.325   8.884 -27.529  1.00  0.00     0.073 A 
HETATM   15  C   UNL     1      -1.227   9.201 -28.554  1.00  0.00     0.071 A 
HETATM   16  C   UNL     1      -1.525   8.253 -29.532  1.00  0.00     0.054 A 
BRANCH  13  17
HETATM   17  O   UNL     1       1.183   7.212 -26.530  1.00  0.00    -0.356 OA
HETATM   18  C   UNL     1       2.014   8.202 -25.939  1.00  0.00     0.210 C 
ENDBRANCH  13  17
BRANCH  15  19
HETATM   19  O   UNL     1      -1.749  10.464 -28.477  1.00  0.00    -0.356 OA
HETATM   20  C   UNL     1      -1.897  11.028 -27.179  1.00  0.00     0.210 C 
ENDBRANCH  15  19
ENDBRANCH   8  11
ENDBRANCH   4   7
BRANCH   1  21
HETATM   21  C   UNL     1      -5.014   1.095 -32.992  1.00  0.00     0.180 A 
HETATM   22  N   UNL     1      -6.291   0.851 -33.230  1.00  0.00    -0.221 NA
HETATM   23  C   UNL     1      -6.301  -0.458 -33.639  1.00  0.00     0.093 A 
HETATM   24  C   UNL     1      -5.010  -0.957 -33.655  1.00  0.00     0.107 A 
HETATM   25  C   UNL     1      -7.356  -1.302 -34.002  1.00  0.00     0.035 A 
HETATM   26  C   UNL     1      -4.664  -2.253 -34.016  1.00  0.00     0.046 A 
HETATM   27  O   UNL     1      -4.173   0.038 -33.244  1.00  0.00    -0.289 OA
HETATM   28  C   UNL     1      -5.725  -3.096 -34.388  1.00  0.00    -0.059 A 
HETATM   29  C   UNL     1      -5.451  -4.529 -34.750  1.00  0.00     0.048 C 
HETATM   30  C   UNL     1      -7.051  -2.624 -34.368  1.00  0.00     0.009 A 
ENDBRANCH   1  21
TORSDOF 5
ENDMDL
MODEL 7
REMARK VINA RESULT:      -8.1      4.831     11.087
REMARK  5 active torsions:
REMARK  status: ('A' for Active; 'I' for Inactive)
REMARK    1  A    between atoms: C_7  and  C_8 
REMARK    2  A    between atoms: C_11  and  N_12 
REMARK       I    between atoms: N_12  and  C_13 
REMARK    3  A    between atoms: C_13  and  C_14 
REMARK    4  A    between atoms: C_16  and  O_17 
REMARK    5  A    between atoms: C_20  and  O_21 
ROOT
HETATM    1  C   UNL     1      -4.532   4.311 -32.255  1.00  0.00     0.017 A 
HETATM    2  C   UNL     1      -4.898   4.233 -33.605  1.00  0.00     0.018 A 
HETATM    3  C   UNL     1      -6.190   3.843 -33.981  1.00  0.00     0.030 A 
HETATM    4  C   UNL     1      -7.144   3.525 -33.014  1.00  0.00     0.035 A 
HETATM    5  C   UNL     1      -6.771   3.555 -31.666  1.00  0.00     0.030 A 
HETATM    6  C   UNL     1      -5.480   3.947 -31.291  1.00  0.00     0.018 A 
ENDROOT
BRANCH   4   7
HETATM    7  N   UNL     1      -8.488   3.211 -33.302  1.00  0.00    -0.323 N 
HETATM    8  C   UNL     1      -8.959   2.094 -33.967  1.00  0.00     0.256 C 
HETATM    9  O   UNL     1      -8.313   1.131 -34.357  1.00  0.00    -0.267 OA
HETATM   10  H   UNL     1      -9.155   3.951 -33.123  1.00  0.00     0.169 HD
BRANCH   8  11
HETATM   11  C   UNL     1     -10.409   2.144 -34.283  1.00  0.00     0.037 A 
HETATM   12  C   UNL     1     -10.893   3.266 -34.963  1.00  0.00     0.054 A 
HETATM   13  C   UNL     1     -12.256   3.391 -35.224  1.00  0.00     0.071 A 
HETATM   14  C   UNL     1     -13.123   2.372 -34.825  1.00  0.00     0.073 A 
HETATM   15  C   UNL     1     -12.639   1.232 -34.168  1.00  0.00     0.071 A 
HETATM   16  C   UNL     1     -11.278   1.116 -33.893  1.00  0.00     0.054 A 
BRANCH  13  17
HETATM   17  O   UNL     1     -12.611   4.546 -35.864  1.00  0.00    -0.356 OA
HETATM   18  C   UNL     1     -12.956   5.656 -35.045  1.00  0.00     0.210 C 
ENDBRANCH  13  17
BRANCH  15  19
HETATM   19  O   UNL     1     -13.603   0.316 -33.844  1.00  0.00    -0.356 OA
HETATM   20  C   UNL     1     -14.937   0.604 -34.248  1.00  0.00     0.210 C 
ENDBRANCH  15  19
ENDBRANCH   8  11
ENDBRANCH   4   7
BRANCH   1  21
HETATM   21  C   UNL     1      -3.222   4.799 -31.829  1.00  0.00     0.180 A 
HETATM   22  N   UNL     1      -2.025   4.334 -32.141  1.00  0.00    -0.221 NA
HETATM   23  C   UNL     1      -1.171   5.106 -31.395  1.00  0.00     0.093 A 
HETATM   24  C   UNL     1      -1.892   6.036 -30.666  1.00  0.00     0.107 A 
HETATM   25  C   UNL     1       0.221   5.077 -31.264  1.00  0.00     0.035 A 
HETATM   26  C   UNL     1      -1.336   6.969 -29.800  1.00  0.00     0.046 A 
HETATM   27  O   UNL     1      -3.214   5.850 -30.943  1.00  0.00    -0.289 OA
HETATM   28  C   UNL     1       0.064   6.944 -29.678  1.00  0.00    -0.059 A 
HETATM   29  C   UNL     1       0.750   7.887 -28.729  1.00  0.00     0.048 C 
HETATM   30  C   UNL     1       0.825   6.000 -30.394  1.00  0.00     0.009 A 
ENDBRANCH   1  21
TORSDOF 5
ENDMDL
MODEL 8
REMARK VINA RESULT:      -8.0      2.021     10.927
REMARK  5 active torsions:
REMARK  status: ('A' for Active; 'I' for Inactive)
REMARK    1  A    between atoms: C_7  and  C_8 
REMARK    2  A    between atoms: C_11  and  N_12 
REMARK       I    between atoms: N_12  and  C_13 
REMARK    3  A    between atoms: C_13  and  C_14 
REMARK    4  A    between atoms: C_16  and  O_17 
REMARK    5  A    between atoms: C_20  and  O_21 
ROOT
HETATM    1  C   UNL     1      -2.356   5.798 -30.566  1.00  0.00     0.017 A 
HETATM    2  C   UNL     1      -3.752   5.874 -30.495  1.00  0.00     0.018 A 
HETATM    3  C   UNL     1      -4.559   4.912 -31.118  1.00  0.00     0.030 A 
HETATM    4  C   UNL     1      -3.985   3.854 -31.822  1.00  0.00     0.035 A 
HETATM    5  C   UNL     1      -2.592   3.799 -31.937  1.00  0.00     0.030 A 
HETATM    6  C   UNL     1      -1.786   4.759 -31.312  1.00  0.00     0.018 A 
ENDROOT
BRANCH   4   7
HETATM    7  N   UNL     1      -4.720   2.798 -32.400  1.00  0.00    -0.323 N 
HETATM    8  C   UNL     1      -4.592   1.448 -32.127  1.00  0.00     0.256 C 
HETATM    9  O   UNL     1      -3.883   0.921 -31.281  1.00  0.00    -0.267 OA
HETATM   10  H   UNL     1      -5.297   3.051 -33.192  1.00  0.00     0.169 HD
BRANCH   8  11
HETATM   11  C   UNL     1      -5.372   0.571 -33.037  1.00  0.00     0.037 A 
HETATM   12  C   UNL     1      -4.794  -0.638 -33.437  1.00  0.00     0.054 A 
HETATM   13  C   UNL     1      -5.458  -1.465 -34.341  1.00  0.00     0.071 A 
HETATM   14  C   UNL     1      -6.713  -1.085 -34.818  1.00  0.00     0.073 A 
HETATM   15  C   UNL     1      -7.309   0.112 -34.399  1.00  0.00     0.071 A 
HETATM   16  C   UNL     1      -6.637   0.946 -33.507  1.00  0.00     0.054 A 
BRANCH  13  17
HETATM   17  O   UNL     1      -4.777  -2.602 -34.681  1.00  0.00    -0.356 OA
HETATM   18  C   UNL     1      -4.050  -3.251 -33.646  1.00  0.00     0.210 C 
ENDBRANCH  13  17
BRANCH  15  19
HETATM   19  O   UNL     1      -8.542   0.350 -34.945  1.00  0.00    -0.356 OA
HETATM   20  C   UNL     1      -9.321   1.390 -34.365  1.00  0.00     0.210 C 
ENDBRANCH  15  19
ENDBRANCH   8  11
ENDBRANCH   4   7
BRANCH   1  21
HETATM   21  C   UNL     1      -1.487   6.733 -29.853  1.00  0.00     0.180 A 
HETATM   22  N   UNL     1      -0.190   6.639 -29.617  1.00  0.00    -0.221 NA
HETATM   23  C   UNL     1       0.079   7.734 -28.837  1.00  0.00     0.093 A 
HETATM   24  C   UNL     1      -1.077   8.471 -28.645  1.00  0.00     0.107 A 
HETATM   25  C   UNL     1       1.266   8.171 -28.239  1.00  0.00     0.035 A 
HETATM   26  C   UNL     1      -1.159   9.639 -27.896  1.00  0.00     0.046 A 
HETATM   27  O   UNL     1      -2.090   7.837 -29.300  1.00  0.00    -0.289 OA
HETATM   28  C   UNL     1       0.037  10.080 -27.304  1.00  0.00    -0.059 A 
HETATM   29  C   UNL     1       0.035  11.309 -26.439  1.00  0.00     0.048 C 
HETATM   30  C   UNL     1       1.226   9.345 -27.467  1.00  0.00     0.009 A 
ENDBRANCH   1  21
TORSDOF 5
ENDMDL
MODEL 9
REMARK VINA RESULT:      -7.9      4.834     10.972
REMARK  5 active torsions:
REMARK  status: ('A' for Active; 'I' for Inactive)
REMARK    1  A    between atoms: C_7  and  C_8 
REMARK    2  A    between atoms: C_11  and  N_12 
REMARK       I    between atoms: N_12  and  C_13 
REMARK    3  A    between atoms: C_13  and  C_14 
REMARK    4  A    between atoms: C_16  and  O_17 
REMARK    5  A    between atoms: C_20  and  O_21 
ROOT
HETATM    1  C   UNL     1      -4.435   4.509 -32.229  1.00  0.00     0.017 A 
HETATM    2  C   UNL     1      -4.791   4.528 -33.583  1.00  0.00     0.018 A 
HETATM    3  C   UNL     1      -6.088   4.193 -33.994  1.00  0.00     0.030 A 
HETATM    4  C   UNL     1      -7.057   3.833 -33.058  1.00  0.00     0.035 A 
HETATM    5  C   UNL     1      -6.696   3.767 -31.707  1.00  0.00     0.030 A 
HETATM    6  C   UNL     1      -5.400   4.104 -31.298  1.00  0.00     0.018 A 
ENDROOT
BRANCH   4   7
HETATM    7  N   UNL     1      -8.405   3.570 -33.376  1.00  0.00    -0.323 N 
HETATM    8  C   UNL     1      -8.902   2.469 -34.050  1.00  0.00     0.256 C 
HETATM    9  O   UNL     1      -8.284   1.482 -34.424  1.00  0.00    -0.267 OA
HETATM   10  H   UNL     1      -9.048   4.334 -33.213  1.00  0.00     0.169 HD
BRANCH   8  11
HETATM   11  C   UNL     1     -10.341   2.573 -34.399  1.00  0.00     0.037 A 
HETATM   12  C   UNL     1     -11.156   1.463 -34.160  1.00  0.00     0.054 A 
HETATM   13  C   UNL     1     -12.499   1.487 -34.532  1.00  0.00     0.071 A 
HETATM   14  C   UNL     1     -13.023   2.640 -35.117  1.00  0.00     0.073 A 
HETATM   15  C   UNL     1     -12.218   3.767 -35.333  1.00  0.00     0.071 A 
HETATM   16  C   UNL     1     -10.871   3.735 -34.976  1.00  0.00     0.054 A 
BRANCH  13  17
HETATM   17  O   UNL     1     -13.183   0.330 -34.278  1.00  0.00    -0.356 OA
HETATM   18  C   UNL     1     -14.590   0.436 -34.110  1.00  0.00     0.210 C 
ENDBRANCH  13  17
BRANCH  15  19
HETATM   19  O   UNL     1     -12.870   4.825 -35.908  1.00  0.00    -0.356 OA
HETATM   20  C   UNL     1     -12.522   6.128 -35.455  1.00  0.00     0.210 C 
ENDBRANCH  15  19
ENDBRANCH   8  11
ENDBRANCH   4   7
BRANCH   1  21
HETATM   21  C   UNL     1      -3.119   4.939 -31.762  1.00  0.00     0.180 A 
HETATM   22  N   UNL     1      -1.941   4.382 -31.982  1.00  0.00    -0.221 NA
HETATM   23  C   UNL     1      -1.077   5.142 -31.235  1.00  0.00     0.093 A 
HETATM   24  C   UNL     1      -1.770   6.157 -30.600  1.00  0.00     0.107 A 
HETATM   25  C   UNL     1       0.303   5.034 -31.029  1.00  0.00     0.035 A 
HETATM   26  C   UNL     1      -1.198   7.105 -29.760  1.00  0.00     0.046 A 
HETATM   27  O   UNL     1      -3.086   6.038 -30.937  1.00  0.00    -0.289 OA
HETATM   28  C   UNL     1       0.189   6.998 -29.562  1.00  0.00    -0.059 A 
HETATM   29  C   UNL     1       0.888   7.952 -28.633  1.00  0.00     0.048 C 
HETATM   30  C   UNL     1       0.921   5.968 -30.181  1.00  0.00     0.009 A 
ENDBRANCH   1  21
TORSDOF 5
ENDMDL
MODEL 10
REMARK VINA RESULT:      -7.7      2.124      2.886
REMARK  5 active torsions:
REMARK  status: ('A' for Active; 'I' for Inactive)
REMARK    1  A    between atoms: C_7  and  C_8 
REMARK    2  A    between atoms: C_11  and  N_12 
REMARK       I    between atoms: N_12  and  C_13 
REMARK    3  A    between atoms: C_13  and  C_14 
REMARK    4  A    between atoms: C_16  and  O_17 
REMARK    5  A    between atoms: C_20  and  O_21 
ROOT
HETATM    1  C   UNL     1      -4.591   1.347 -32.014  1.00  0.00     0.017 A 
HETATM    2  C   UNL     1      -3.434   2.128 -32.120  1.00  0.00     0.018 A 
HETATM    3  C   UNL     1      -3.364   3.398 -31.531  1.00  0.00     0.030 A 
HETATM    4  C   UNL     1      -4.450   3.912 -30.824  1.00  0.00     0.035 A 
HETATM    5  C   UNL     1      -5.626   3.157 -30.755  1.00  0.00     0.030 A 
HETATM    6  C   UNL     1      -5.694   1.887 -31.341  1.00  0.00     0.018 A 
ENDROOT
BRANCH   4   7
HETATM    7  N   UNL     1      -4.432   5.138 -30.128  1.00  0.00    -0.323 N 
HETATM    8  C   UNL     1      -3.764   6.293 -30.492  1.00  0.00     0.256 C 
HETATM    9  O   UNL     1      -3.134   6.498 -31.520  1.00  0.00    -0.267 OA
HETATM   10  H   UNL     1      -4.838   5.118 -29.200  1.00  0.00     0.169 HD
BRANCH   8  11
HETATM   11  C   UNL     1      -3.784   7.355 -29.455  1.00  0.00     0.037 A 
HETATM   12  C   UNL     1      -2.774   8.322 -29.486  1.00  0.00     0.054 A 
HETATM   13  C   UNL     1      -2.710   9.300 -28.496  1.00  0.00     0.071 A 
HETATM   14  C   UNL     1      -3.681   9.320 -27.494  1.00  0.00     0.073 A 
HETATM   15  C   UNL     1      -4.713   8.370 -27.473  1.00  0.00     0.071 A 
HETATM   16  C   UNL     1      -4.765   7.382 -28.455  1.00  0.00     0.054 A 
BRANCH  13  17
HETATM   17  O   UNL     1      -1.659  10.167 -28.617  1.00  0.00    -0.356 OA
HETATM   18  C   UNL     1      -1.402  11.026 -27.514  1.00  0.00     0.210 C 
ENDBRANCH  13  17
BRANCH  15  19
HETATM   19  O   UNL     1      -5.594   8.518 -26.436  1.00  0.00    -0.356 OA
HETATM   20  C   UNL     1      -6.299   9.751 -26.351  1.00  0.00     0.210 C 
ENDBRANCH  15  19
ENDBRANCH   8  11
ENDBRANCH   4   7
BRANCH   1  21
HETATM   21  C   UNL     1      -4.663  -0.015 -32.538  1.00  0.00     0.180 A 
HETATM   22  N   UNL     1      -3.764  -0.981 -32.457  1.00  0.00    -0.221 NA
HETATM   23  C   UNL     1      -4.312  -1.998 -33.195  1.00  0.00     0.093 A 
HETATM   24  C   UNL     1      -5.548  -1.614 -33.684  1.00  0.00     0.107 A 
HETATM   25  C   UNL     1      -3.826  -3.272 -33.513  1.00  0.00     0.035 A 
HETATM   26  C   UNL     1      -6.370  -2.405 -34.477  1.00  0.00     0.046 A 
HETATM   27  O   UNL     1      -5.786  -0.339 -33.262  1.00  0.00    -0.289 OA
HETATM   28  C   UNL     1      -5.882  -3.687 -34.787  1.00  0.00    -0.059 A 
HETATM   29  C   UNL     1      -6.682  -4.597 -35.677  1.00  0.00     0.048 C 
HETATM   30  C   UNL     1      -4.622  -4.103 -34.318  1.00  0.00     0.009 A 
ENDBRANCH   1  21
TORSDOF 5
ENDMDL
