MODEL 1
REMARK VINA RESULT:      -9.0      0.000      0.000
REMARK  6 active torsions:
REMARK  status: ('A' for Active; 'I' for Inactive)
REMARK    1  A    between atoms: C_6  and  C_7 
REMARK    2  A    between atoms: C_7  and  N_8 
REMARK       I    between atoms: N_8  and  C_9 
REMARK       I    between atoms: C_9  and  N_10 
REMARK    3  A    between atoms: N_10  and  C_11 
REMARK    4  A    between atoms: C_11  and  C_12 
REMARK       I    between atoms: C_12  and  N_13 
REMARK    5  A    between atoms: N_13  and  N_14 
REMARK       I    between atoms: N_14  and  C_15 
REMARK    6  A    between atoms: C_15  and  C_16 
ROOT
HETATM    1  C   UNL     1      -2.785   4.890 -32.308  1.00  0.00     0.117 C 
HETATM    2  C   UNL     1      -2.188   4.273 -33.584  1.00  0.00     0.041 C 
HETATM    3  C   UNL     1      -1.504   5.445 -34.269  1.00  0.00     0.003 C 
HETATM    4  C   UNL     1      -2.439   6.622 -34.038  1.00  0.00     0.003 C 
HETATM    5  C   UNL     1      -3.290   6.261 -32.819  1.00  0.00     0.041 C 
ENDROOT
BRANCH   1   6
HETATM    6  N   UNL     1      -3.933   4.140 -31.775  1.00  0.00    -0.325 N 
HETATM    7  C   UNL     1      -3.879   2.801 -31.508  1.00  0.00     0.317 C 
HETATM    8  N   UNL     1      -5.070   2.341 -31.020  1.00  0.00    -0.339 N 
HETATM    9  O   UNL     1      -2.880   2.113 -31.667  1.00  0.00    -0.247 OA
HETATM   10  H   UNL     1      -5.879   2.770 -31.447  1.00  0.00     0.164 HD
HETATM   11  H   UNL     1      -4.529   4.649 -31.135  1.00  0.00     0.165 HD
BRANCH   8  12
HETATM   12  C   UNL     1      -5.192   0.938 -30.686  1.00  0.00     0.162 C 
BRANCH  12  13
HETATM   13  C   UNL     1      -5.817   0.122 -31.790  1.00  0.00    -0.039 A 
HETATM   14  C   UNL     1      -5.089  -0.842 -32.505  1.00  0.00     0.027 A 
HETATM   15  C   UNL     1      -5.698  -1.564 -33.534  1.00  0.00     0.011 A 
HETATM   16  C   UNL     1      -7.024  -1.321 -33.883  1.00  0.00     0.019 A 
HETATM   17 BR   UNL     1      -4.712  -2.884 -34.462  1.00  0.00    -0.051 Br
HETATM   18  C   UNL     1      -7.747  -0.344 -33.200  1.00  0.00     0.002 A 
HETATM   19  C   UNL     1      -7.147   0.372 -32.163  1.00  0.00     0.009 A 
ENDBRANCH  12  13
ENDBRANCH   8  12
ENDBRANCH   1   6
BRANCH   1  20
HETATM   20  C   UNL     1      -1.717   5.082 -31.184  1.00  0.00     0.264 C 
HETATM   21  N   UNL     1      -2.095   5.922 -30.153  1.00  0.00    -0.265 N 
HETATM   22  H   UNL     1      -2.881   6.575 -30.267  1.00  0.00     0.190 HD
HETATM   23  O   UNL     1      -0.597   4.568 -31.217  1.00  0.00    -0.269 OA
BRANCH  21  24
HETATM   24  N   UNL     1      -1.139   6.248 -29.184  1.00  0.00    -0.262 N 
HETATM   25  C   UNL     1      -0.736   7.560 -29.040  1.00  0.00     0.286 C 
HETATM   26  O   UNL     1      -1.171   8.465 -29.749  1.00  0.00    -0.264 OA
HETATM   27  H   UNL     1      -0.786   5.485 -28.614  1.00  0.00     0.190 HD
BRANCH  25  28
HETATM   28  C   UNL     1       0.236   7.802 -27.995  1.00  0.00     0.102 A 
HETATM   29  N   UNL     1       0.103   7.218 -26.752  1.00  0.00    -0.361 N 
HETATM   30  H   UNL     1      -0.662   6.604 -26.502  1.00  0.00     0.165 HD
HETATM   31  C   UNL     1       1.140   7.588 -25.939  1.00  0.00     0.088 A 
HETATM   32  C   UNL     1       1.961   8.424 -26.658  1.00  0.00     0.019 A 
HETATM   33  C   UNL     1       1.395   8.561 -27.951  1.00  0.00     0.036 A 
ENDBRANCH  25  28
ENDBRANCH  21  24
ENDBRANCH   1  20
TORSDOF 6
ENDMDL
MODEL 2
REMARK VINA RESULT:      -8.5      5.013     10.560
REMARK  6 active torsions:
REMARK  status: ('A' for Active; 'I' for Inactive)
REMARK    1  A    between atoms: C_6  and  C_7 
REMARK    2  A    between atoms: C_7  and  N_8 
REMARK       I    between atoms: N_8  and  C_9 
REMARK       I    between atoms: C_9  and  N_10 
REMARK    3  A    between atoms: N_10  and  C_11 
REMARK    4  A    between atoms: C_11  and  C_12 
REMARK       I    between atoms: C_12  and  N_13 
REMARK    5  A    between atoms: N_13  and  N_14 
REMARK       I    between atoms: N_14  and  C_15 
REMARK    6  A    between atoms: C_15  and  C_16 
ROOT
HETATM    1  C   UNL     1      -7.260   0.899 -33.969  1.00  0.00     0.117 C 
HETATM    2  C   UNL     1      -7.307  -0.139 -35.103  1.00  0.00     0.041 C 
HETATM    3  C   UNL     1      -7.127  -1.467 -34.385  1.00  0.00     0.003 C 
HETATM    4  C   UNL     1      -6.104  -1.180 -33.297  1.00  0.00     0.003 C 
HETATM    5  C   UNL     1      -6.148   0.330 -33.055  1.00  0.00     0.041 C 
ENDROOT
BRANCH   1   6
HETATM    6  N   UNL     1      -6.852   2.240 -34.419  1.00  0.00    -0.325 N 
HETATM    7  C   UNL     1      -6.344   3.180 -33.566  1.00  0.00     0.317 C 
HETATM    8  N   UNL     1      -6.041   4.339 -34.225  1.00  0.00    -0.339 N 
HETATM    9  O   UNL     1      -6.165   2.992 -32.371  1.00  0.00    -0.247 OA
HETATM   10  H   UNL     1      -6.696   4.576 -34.955  1.00  0.00     0.164 HD
HETATM   11  H   UNL     1      -6.452   2.288 -35.346  1.00  0.00     0.165 HD
BRANCH   8  12
HETATM   12  C   UNL     1      -5.493   5.446 -33.471  1.00  0.00     0.162 C 
BRANCH  12  13
HETATM   13  C   UNL     1      -3.995   5.566 -33.605  1.00  0.00    -0.039 A 
HETATM   14  C   UNL     1      -3.204   6.156 -32.607  1.00  0.00     0.027 A 
HETATM   15  C   UNL     1      -1.823   6.268 -32.777  1.00  0.00     0.011 A 
HETATM   16  C   UNL     1      -1.213   5.820 -33.946  1.00  0.00     0.019 A 
HETATM   17 BR   UNL     1      -0.770   7.033 -31.406  1.00  0.00    -0.051 Br
HETATM   18  C   UNL     1      -1.992   5.259 -34.957  1.00  0.00     0.002 A 
HETATM   19  C   UNL     1      -3.373   5.136 -34.788  1.00  0.00     0.009 A 
ENDBRANCH  12  13
ENDBRANCH   8  12
ENDBRANCH   1   6
BRANCH   1  20
HETATM   20  C   UNL     1      -8.613   0.996 -33.194  1.00  0.00     0.264 C 
HETATM   21  N   UNL     1      -9.728   1.210 -33.983  1.00  0.00    -0.265 N 
HETATM   22  H   UNL     1      -9.632   1.557 -34.947  1.00  0.00     0.190 HD
HETATM   23  O   UNL     1      -8.696   0.935 -31.966  1.00  0.00    -0.269 OA
BRANCH  21  24
HETATM   24  N   UNL     1     -10.952   1.445 -33.346  1.00  0.00    -0.262 N 
HETATM   25  C   UNL     1     -12.091   1.619 -34.104  1.00  0.00     0.286 C 
HETATM   26  O   UNL     1     -12.075   1.598 -35.334  1.00  0.00    -0.264 OA
HETATM   27  H   UNL     1     -10.942   1.467 -32.331  1.00  0.00     0.190 HD
BRANCH  25  28
HETATM   28  C   UNL     1     -13.311   1.831 -33.355  1.00  0.00     0.102 A 
HETATM   29  N   UNL     1     -13.347   2.704 -32.287  1.00  0.00    -0.361 N 
HETATM   30  H   UNL     1     -12.543   3.233 -31.971  1.00  0.00     0.165 HD
HETATM   31  C   UNL     1     -14.602   2.740 -31.743  1.00  0.00     0.088 A 
HETATM   32  C   UNL     1     -15.398   1.881 -32.464  1.00  0.00     0.019 A 
HETATM   33  C   UNL     1     -14.588   1.307 -33.477  1.00  0.00     0.036 A 
ENDBRANCH  25  28
ENDBRANCH  21  24
ENDBRANCH   1  20
TORSDOF 6
ENDMDL
MODEL 3
REMARK VINA RESULT:      -8.3      7.476      9.910
REMARK  6 active torsions:
REMARK  status: ('A' for Active; 'I' for Inactive)
REMARK    1  A    between atoms: C_6  and  C_7 
REMARK    2  A    between atoms: C_7  and  N_8 
REMARK       I    between atoms: N_8  and  C_9 
REMARK       I    between atoms: C_9  and  N_10 
REMARK    3  A    between atoms: N_10  and  C_11 
REMARK    4  A    between atoms: C_11  and  C_12 
REMARK       I    between atoms: C_12  and  N_13 
REMARK    5  A    between atoms: N_13  and  N_14 
REMARK       I    between atoms: N_14  and  C_15 
REMARK    6  A    between atoms: C_15  and  C_16 
ROOT
HETATM    1  C   UNL     1     -11.367   1.548 -34.295  1.00  0.00     0.117 C 
HETATM    2  C   UNL     1     -12.430   1.452 -35.402  1.00  0.00     0.041 C 
HETATM    3  C   UNL     1     -13.696   1.064 -34.657  1.00  0.00     0.003 C 
HETATM    4  C   UNL     1     -13.230   0.081 -33.594  1.00  0.00     0.003 C 
HETATM    5  C   UNL     1     -11.738   0.350 -33.387  1.00  0.00     0.041 C 
ENDROOT
BRANCH   1   6
HETATM    6  N   UNL     1      -9.992   1.353 -34.782  1.00  0.00    -0.325 N 
HETATM    7  C   UNL     1      -8.906   1.374 -33.953  1.00  0.00     0.317 C 
HETATM    8  N   UNL     1      -7.746   1.168 -34.645  1.00  0.00    -0.339 N 
HETATM    9  O   UNL     1      -8.975   1.534 -32.742  1.00  0.00    -0.247 OA
HETATM   10  H   UNL     1      -7.732   1.602 -35.556  1.00  0.00     0.164 HD
HETATM   11  H   UNL     1      -9.889   0.710 -35.556  1.00  0.00     0.165 HD
BRANCH   8  12
HETATM   12  C   UNL     1      -6.493   1.161 -33.920  1.00  0.00     0.162 C 
BRANCH  12  13
HETATM   13  C   UNL     1      -5.819  -0.189 -33.920  1.00  0.00    -0.039 A 
HETATM   14  C   UNL     1      -6.442  -1.331 -34.447  1.00  0.00     0.027 A 
HETATM   15  C   UNL     1      -5.794  -2.567 -34.411  1.00  0.00     0.011 A 
HETATM   16  C   UNL     1      -4.534  -2.691 -33.829  1.00  0.00     0.019 A 
HETATM   17 BR   UNL     1      -6.633  -4.087 -35.158  1.00  0.00    -0.051 Br
HETATM   18  C   UNL     1      -3.919  -1.570 -33.275  1.00  0.00     0.002 A 
HETATM   19  C   UNL     1      -4.558  -0.329 -33.319  1.00  0.00     0.009 A 
ENDBRANCH  12  13
ENDBRANCH   8  12
ENDBRANCH   1   6
BRANCH   1  20
HETATM   20  C   UNL     1     -11.455   2.889 -33.498  1.00  0.00     0.264 C 
HETATM   21  N   UNL     1     -11.671   2.751 -32.140  1.00  0.00    -0.265 N 
HETATM   22  H   UNL     1     -12.025   1.868 -31.749  1.00  0.00     0.190 HD
HETATM   23  O   UNL     1     -11.386   3.999 -34.030  1.00  0.00    -0.269 OA
BRANCH  21  24
HETATM   24  N   UNL     1     -11.898   3.910 -31.388  1.00  0.00    -0.262 N 
HETATM   25  C   UNL     1     -13.177   4.208 -30.966  1.00  0.00     0.286 C 
HETATM   26  O   UNL     1     -14.145   3.501 -31.244  1.00  0.00    -0.264 OA
HETATM   27  H   UNL     1     -11.088   4.484 -31.176  1.00  0.00     0.190 HD
BRANCH  25  28
HETATM   28  C   UNL     1     -13.308   5.412 -30.173  1.00  0.00     0.102 A 
HETATM   29  N   UNL     1     -12.262   6.305 -30.062  1.00  0.00    -0.361 N 
HETATM   30  H   UNL     1     -11.365   6.175 -30.514  1.00  0.00     0.165 HD
HETATM   31  C   UNL     1     -12.622   7.362 -29.271  1.00  0.00     0.088 A 
HETATM   32  C   UNL     1     -13.918   7.158 -28.859  1.00  0.00     0.019 A 
HETATM   33  C   UNL     1     -14.351   5.932 -29.425  1.00  0.00     0.036 A 
ENDBRANCH  25  28
ENDBRANCH  21  24
ENDBRANCH   1  20
TORSDOF 6
ENDMDL
MODEL 4
REMARK VINA RESULT:      -8.1      3.837      9.713
REMARK  6 active torsions:
REMARK  status: ('A' for Active; 'I' for Inactive)
REMARK    1  A    between atoms: C_6  and  C_7 
REMARK    2  A    between atoms: C_7  and  N_8 
REMARK       I    between atoms: N_8  and  C_9 
REMARK       I    between atoms: C_9  and  N_10 
REMARK    3  A    between atoms: N_10  and  C_11 
REMARK    4  A    between atoms: C_11  and  C_12 
REMARK       I    between atoms: C_12  and  N_13 
REMARK    5  A    between atoms: N_13  and  N_14 
REMARK       I    between atoms: N_14  and  C_15 
REMARK    6  A    between atoms: C_15  and  C_16 
ROOT
HETATM    1  C   UNL     1      -6.983   2.756 -31.189  1.00  0.00     0.117 C 
HETATM    2  C   UNL     1      -8.084   3.000 -30.143  1.00  0.00     0.041 C 
HETATM    3  C   UNL     1      -9.364   3.028 -30.964  1.00  0.00     0.003 C 
HETATM    4  C   UNL     1      -8.983   3.757 -32.243  1.00  0.00     0.003 C 
HETATM    5  C   UNL     1      -7.464   3.628 -32.374  1.00  0.00     0.041 C 
ENDROOT
BRANCH   1   6
HETATM    6  N   UNL     1      -5.657   3.234 -30.767  1.00  0.00    -0.325 N 
HETATM    7  C   UNL     1      -4.644   3.473 -31.653  1.00  0.00     0.317 C 
HETATM    8  N   UNL     1      -3.517   3.911 -31.015  1.00  0.00    -0.339 N 
HETATM    9  O   UNL     1      -4.748   3.332 -32.864  1.00  0.00    -0.247 OA
HETATM   10  H   UNL     1      -3.355   3.467 -30.123  1.00  0.00     0.164 HD
HETATM   11  H   UNL     1      -5.650   3.865 -29.977  1.00  0.00     0.165 HD
BRANCH   8  12
HETATM   12  C   UNL     1      -2.341   4.210 -31.805  1.00  0.00     0.162 C 
BRANCH  12  13
HETATM   13  C   UNL     1      -1.479   5.286 -31.193  1.00  0.00    -0.039 A 
HETATM   14  C   UNL     1      -2.027   6.360 -30.475  1.00  0.00     0.027 A 
HETATM   15  C   UNL     1      -1.197   7.348 -29.941  1.00  0.00     0.011 A 
HETATM   16  C   UNL     1       0.181   7.297 -30.134  1.00  0.00     0.019 A 
HETATM   17 BR   UNL     1      -1.952   8.767 -28.946  1.00  0.00    -0.051 Br
HETATM   18  C   UNL     1       0.734   6.252 -30.871  1.00  0.00     0.002 A 
HETATM   19  C   UNL     1      -0.090   5.255 -31.398  1.00  0.00     0.009 A 
ENDBRANCH  12  13
ENDBRANCH   8  12
ENDBRANCH   1   6
BRANCH   1  20
HETATM   20  C   UNL     1      -6.888   1.255 -31.615  1.00  0.00     0.264 C 
HETATM   21  N   UNL     1      -6.761   1.038 -32.974  1.00  0.00    -0.265 N 
HETATM   22  H   UNL     1      -6.998   1.776 -33.650  1.00  0.00     0.190 HD
HETATM   23  O   UNL     1      -6.964   0.318 -30.817  1.00  0.00    -0.269 OA
BRANCH  21  24
HETATM   24  N   UNL     1      -6.809  -0.282 -33.438  1.00  0.00    -0.262 N 
HETATM   25  C   UNL     1      -5.634  -0.940 -33.739  1.00  0.00     0.286 C 
HETATM   26  O   UNL     1      -4.532  -0.403 -33.637  1.00  0.00    -0.264 OA
HETATM   27  H   UNL     1      -7.728  -0.703 -33.523  1.00  0.00     0.190 HD
BRANCH  25  28
HETATM   28  C   UNL     1      -5.785  -2.308 -34.187  1.00  0.00     0.102 A 
HETATM   29  N   UNL     1      -4.706  -3.169 -34.215  1.00  0.00    -0.361 N 
HETATM   30  H   UNL     1      -3.771  -2.902 -33.934  1.00  0.00     0.165 HD
HETATM   31  C   UNL     1      -5.093  -4.402 -34.666  1.00  0.00     0.088 A 
HETATM   32  C   UNL     1      -6.440  -4.347 -34.937  1.00  0.00     0.019 A 
HETATM   33  C   UNL     1      -6.877  -3.032 -34.637  1.00  0.00     0.036 A 
ENDBRANCH  25  28
ENDBRANCH  21  24
ENDBRANCH   1  20
TORSDOF 6
ENDMDL
MODEL 5
REMARK VINA RESULT:      -8.1      2.200      2.498
REMARK  6 active torsions:
REMARK  status: ('A' for Active; 'I' for Inactive)
REMARK    1  A    between atoms: C_6  and  C_7 
REMARK    2  A    between atoms: C_7  and  N_8 
REMARK       I    between atoms: N_8  and  C_9 
REMARK       I    between atoms: C_9  and  N_10 
REMARK    3  A    between atoms: N_10  and  C_11 
REMARK    4  A    between atoms: C_11  and  C_12 
REMARK       I    between atoms: C_12  and  N_13 
REMARK    5  A    between atoms: N_13  and  N_14 
REMARK       I    between atoms: N_14  and  C_15 
REMARK    6  A    between atoms: C_15  and  C_16 
ROOT
HETATM    1  C   UNL     1      -2.883   5.339 -32.617  1.00  0.00     0.117 C 
HETATM    2  C   UNL     1      -1.367   5.083 -32.610  1.00  0.00     0.041 C 
HETATM    3  C   UNL     1      -0.768   6.439 -32.946  1.00  0.00     0.003 C 
HETATM    4  C   UNL     1      -1.706   7.023 -33.991  1.00  0.00     0.003 C 
HETATM    5  C   UNL     1      -3.043   6.299 -33.820  1.00  0.00     0.041 C 
ENDROOT
BRANCH   1   6
HETATM    6  N   UNL     1      -3.681   4.130 -32.877  1.00  0.00    -0.325 N 
HETATM    7  C   UNL     1      -3.500   2.965 -32.186  1.00  0.00     0.317 C 
HETATM    8  N   UNL     1      -4.363   1.994 -32.612  1.00  0.00    -0.339 N 
HETATM    9  O   UNL     1      -2.683   2.824 -31.286  1.00  0.00    -0.247 OA
HETATM   10  H   UNL     1      -4.532   2.006 -33.607  1.00  0.00     0.164 HD
HETATM   11  H   UNL     1      -4.644   4.290 -33.141  1.00  0.00     0.165 HD
BRANCH   8  12
HETATM   12  C   UNL     1      -4.307   0.689 -31.988  1.00  0.00     0.162 C 
BRANCH  12  13
HETATM   13  C   UNL     1      -4.777  -0.420 -32.897  1.00  0.00    -0.039 A 
HETATM   14  C   UNL     1      -4.142  -1.670 -32.935  1.00  0.00     0.027 A 
HETATM   15  C   UNL     1      -4.594  -2.664 -33.805  1.00  0.00     0.011 A 
HETATM   16  C   UNL     1      -5.664  -2.423 -34.663  1.00  0.00     0.019 A 
HETATM   17 BR   UNL     1      -3.748  -4.355 -33.816  1.00  0.00    -0.051 Br
HETATM   18  C   UNL     1      -6.284  -1.174 -34.655  1.00  0.00     0.002 A 
HETATM   19  C   UNL     1      -5.842  -0.180 -33.780  1.00  0.00     0.009 A 
ENDBRANCH  12  13
ENDBRANCH   8  12
ENDBRANCH   1   6
BRANCH   1  20
HETATM   20  C   UNL     1      -3.378   6.020 -31.301  1.00  0.00     0.264 C 
HETATM   21  N   UNL     1      -2.492   5.964 -30.241  1.00  0.00    -0.265 N 
HETATM   22  H   UNL     1      -1.713   5.291 -30.241  1.00  0.00     0.190 HD
HETATM   23  O   UNL     1      -4.492   6.534 -31.181  1.00  0.00    -0.269 OA
BRANCH  21  24
HETATM   24  N   UNL     1      -2.924   6.431 -28.994  1.00  0.00    -0.262 N 
HETATM   25  C   UNL     1      -2.081   7.212 -28.231  1.00  0.00     0.286 C 
HETATM   26  O   UNL     1      -0.943   7.503 -28.594  1.00  0.00    -0.264 OA
HETATM   27  H   UNL     1      -3.863   6.172 -28.710  1.00  0.00     0.190 HD
BRANCH  25  28
HETATM   28  C   UNL     1      -2.626   7.667 -26.970  1.00  0.00     0.102 A 
HETATM   29  N   UNL     1      -3.585   8.659 -26.927  1.00  0.00    -0.361 N 
HETATM   30  H   UNL     1      -3.953   9.117 -27.752  1.00  0.00     0.165 HD
HETATM   31  C   UNL     1      -3.948   8.914 -25.632  1.00  0.00     0.088 A 
HETATM   32  C   UNL     1      -3.219   8.079 -24.818  1.00  0.00     0.019 A 
HETATM   33  C   UNL     1      -2.387   7.295 -25.657  1.00  0.00     0.036 A 
ENDBRANCH  25  28
ENDBRANCH  21  24
ENDBRANCH   1  20
TORSDOF 6
ENDMDL
MODEL 6
REMARK VINA RESULT:      -8.0     18.800     21.649
REMARK  6 active torsions:
REMARK  status: ('A' for Active; 'I' for Inactive)
REMARK    1  A    between atoms: C_6  and  C_7 
REMARK    2  A    between atoms: C_7  and  N_8 
REMARK       I    between atoms: N_8  and  C_9 
REMARK       I    between atoms: C_9  and  N_10 
REMARK    3  A    between atoms: N_10  and  C_11 
REMARK    4  A    between atoms: C_11  and  C_12 
REMARK       I    between atoms: C_12  and  N_13 
REMARK    5  A    between atoms: N_13  and  N_14 
REMARK       I    between atoms: N_14  and  C_15 
REMARK    6  A    between atoms: C_15  and  C_16 
ROOT
HETATM    1  C   UNL     1      -7.883 -13.188 -39.523  1.00  0.00     0.117 C 
HETATM    2  C   UNL     1      -8.965 -13.893 -38.687  1.00  0.00     0.041 C 
HETATM    3  C   UNL     1     -10.176 -13.914 -39.605  1.00  0.00     0.003 C 
HETATM    4  C   UNL     1     -10.141 -12.571 -40.316  1.00  0.00     0.003 C 
HETATM    5  C   UNL     1      -8.695 -12.078 -40.232  1.00  0.00     0.041 C 
ENDROOT
BRANCH   1   6
HETATM    6  N   UNL     1      -6.835 -12.551 -38.710  1.00  0.00    -0.325 N 
HETATM    7  C   UNL     1      -5.980 -13.265 -37.919  1.00  0.00     0.317 C 
HETATM    8  N   UNL     1      -5.100 -12.445 -37.268  1.00  0.00    -0.339 N 
HETATM    9  O   UNL     1      -5.991 -14.485 -37.828  1.00  0.00    -0.247 OA
HETATM   10  H   UNL     1      -5.504 -11.570 -36.967  1.00  0.00     0.164 HD
HETATM   11  H   UNL     1      -6.409 -11.727 -39.113  1.00  0.00     0.165 HD
BRANCH   8  12
HETATM   12  C   UNL     1      -4.121 -13.036 -36.382  1.00  0.00     0.162 C 
BRANCH  12  13
HETATM   13  C   UNL     1      -2.824 -13.373 -37.077  1.00  0.00    -0.039 A 
HETATM   14  C   UNL     1      -1.995 -14.416 -36.639  1.00  0.00     0.027 A 
HETATM   15  C   UNL     1      -0.792 -14.684 -37.296  1.00  0.00     0.011 A 
HETATM   16  C   UNL     1      -0.387 -13.907 -38.378  1.00  0.00     0.019 A 
HETATM   17 BR   UNL     1       0.295 -16.117 -36.713  1.00  0.00    -0.051 Br
HETATM   18  C   UNL     1      -1.188 -12.849 -38.804  1.00  0.00     0.002 A 
HETATM   19  C   UNL     1      -2.397 -12.583 -38.157  1.00  0.00     0.009 A 
ENDBRANCH  12  13
ENDBRANCH   8  12
ENDBRANCH   1   6
BRANCH   1  20
HETATM   20  C   UNL     1      -7.225 -14.142 -40.571  1.00  0.00     0.264 C 
HETATM   21  N   UNL     1      -6.293 -13.548 -41.401  1.00  0.00    -0.265 N 
HETATM   22  H   UNL     1      -6.256 -12.525 -41.505  1.00  0.00     0.190 HD
HETATM   23  O   UNL     1      -7.532 -15.330 -40.694  1.00  0.00    -0.269 OA
BRANCH  21  24
HETATM   24  N   UNL     1      -5.766 -14.309 -42.452  1.00  0.00    -0.262 N 
HETATM   25  C   UNL     1      -4.409 -14.281 -42.698  1.00  0.00     0.286 C 
HETATM   26  O   UNL     1      -3.633 -13.591 -42.038  1.00  0.00    -0.264 OA
HETATM   27  H   UNL     1      -6.425 -14.864 -42.989  1.00  0.00     0.190 HD
BRANCH  25  28
HETATM   28  C   UNL     1      -3.956 -15.119 -43.787  1.00  0.00     0.102 A 
HETATM   29  N   UNL     1      -4.362 -14.879 -45.084  1.00  0.00    -0.361 N 
HETATM   30  H   UNL     1      -4.986 -14.125 -45.344  1.00  0.00     0.165 HD
HETATM   31  C   UNL     1      -3.803 -15.794 -45.935  1.00  0.00     0.088 A 
HETATM   32  C   UNL     1      -3.022 -16.643 -45.186  1.00  0.00     0.019 A 
HETATM   33  C   UNL     1      -3.117 -16.221 -43.836  1.00  0.00     0.036 A 
ENDBRANCH  25  28
ENDBRANCH  21  24
ENDBRANCH   1  20
TORSDOF 6
ENDMDL
MODEL 7
REMARK VINA RESULT:      -8.0      4.481      7.076
REMARK  6 active torsions:
REMARK  status: ('A' for Active; 'I' for Inactive)
REMARK    1  A    between atoms: C_6  and  C_7 
REMARK    2  A    between atoms: C_7  and  N_8 
REMARK       I    between atoms: N_8  and  C_9 
REMARK       I    between atoms: C_9  and  N_10 
REMARK    3  A    between atoms: N_10  and  C_11 
REMARK    4  A    between atoms: C_11  and  C_12 
REMARK       I    between atoms: C_12  and  N_13 
REMARK    5  A    between atoms: N_13  and  N_14 
REMARK       I    between atoms: N_14  and  C_15 
REMARK    6  A    between atoms: C_15  and  C_16 
ROOT
HETATM    1  C   UNL     1      -6.869   1.349 -31.361  1.00  0.00     0.117 C 
HETATM    2  C   UNL     1      -6.326   0.525 -30.182  1.00  0.00     0.041 C 
HETATM    3  C   UNL     1      -5.093  -0.157 -30.754  1.00  0.00     0.003 C 
HETATM    4  C   UNL     1      -5.487  -0.533 -32.174  1.00  0.00     0.003 C 
HETATM    5  C   UNL     1      -6.647   0.390 -32.555  1.00  0.00     0.041 C 
ENDROOT
BRANCH   1   6
HETATM    6  N   UNL     1      -8.309   1.640 -31.260  1.00  0.00    -0.325 N 
HETATM    7  C   UNL     1      -9.000   2.290 -32.244  1.00  0.00     0.317 C 
HETATM    8  N   UNL     1     -10.318   2.436 -31.913  1.00  0.00    -0.339 N 
HETATM    9  O   UNL     1      -8.499   2.668 -33.294  1.00  0.00    -0.247 OA
HETATM   10  H   UNL     1     -10.475   2.626 -30.934  1.00  0.00     0.164 HD
HETATM   11  H   UNL     1      -8.863   0.945 -30.778  1.00  0.00     0.165 HD
BRANCH   8  12
HETATM   12  C   UNL     1     -11.199   3.108 -32.844  1.00  0.00     0.162 C 
BRANCH  12  13
HETATM   13  C   UNL     1     -12.451   2.320 -33.145  1.00  0.00    -0.039 A 
HETATM   14  C   UNL     1     -13.705   2.693 -32.638  1.00  0.00     0.027 A 
HETATM   15  C   UNL     1     -14.836   1.926 -32.922  1.00  0.00     0.011 A 
HETATM   16  C   UNL     1     -14.734   0.768 -33.689  1.00  0.00     0.019 A 
HETATM   17 BR   UNL     1     -16.523   2.465 -32.260  1.00  0.00    -0.051 Br
HETATM   18  C   UNL     1     -13.489   0.371 -34.172  1.00  0.00     0.002 A 
HETATM   19  C   UNL     1     -12.356   1.140 -33.901  1.00  0.00     0.009 A 
ENDBRANCH  12  13
ENDBRANCH   8  12
ENDBRANCH   1   6
BRANCH   1  20
HETATM   20  C   UNL     1      -6.080   2.681 -31.571  1.00  0.00     0.264 C 
HETATM   21  N   UNL     1      -5.472   2.815 -32.805  1.00  0.00    -0.265 N 
HETATM   22  H   UNL     1      -5.318   1.995 -33.408  1.00  0.00     0.190 HD
HETATM   23  O   UNL     1      -5.957   3.542 -30.697  1.00  0.00    -0.269 OA
BRANCH  21  24
HETATM   24  N   UNL     1      -4.636   3.918 -33.013  1.00  0.00    -0.262 N 
HETATM   25  C   UNL     1      -3.276   3.785 -32.824  1.00  0.00     0.286 C 
HETATM   26  O   UNL     1      -2.761   2.730 -32.455  1.00  0.00    -0.264 OA
HETATM   27  H   UNL     1      -5.081   4.780 -33.308  1.00  0.00     0.190 HD
BRANCH  25  28
HETATM   28  C   UNL     1      -2.491   4.973 -33.087  1.00  0.00     0.102 A 
HETATM   29  N   UNL     1      -2.982   5.986 -33.885  1.00  0.00    -0.361 N 
HETATM   30  H   UNL     1      -3.895   5.959 -34.324  1.00  0.00     0.165 HD
HETATM   31  C   UNL     1      -2.069   7.000 -33.983  1.00  0.00     0.088 A 
HETATM   32  C   UNL     1      -0.967   6.647 -33.239  1.00  0.00     0.019 A 
HETATM   33  C   UNL     1      -1.230   5.373 -32.676  1.00  0.00     0.036 A 
ENDBRANCH  25  28
ENDBRANCH  21  24
ENDBRANCH   1  20
TORSDOF 6
ENDMDL
MODEL 8
REMARK VINA RESULT:      -7.9      4.241     10.282
REMARK  6 active torsions:
REMARK  status: ('A' for Active; 'I' for Inactive)
REMARK    1  A    between atoms: C_6  and  C_7 
REMARK    2  A    between atoms: C_7  and  N_8 
REMARK       I    between atoms: N_8  and  C_9 
REMARK       I    between atoms: C_9  and  N_10 
REMARK    3  A    between atoms: N_10  and  C_11 
REMARK    4  A    between atoms: C_11  and  C_12 
REMARK       I    between atoms: C_12  and  N_13 
REMARK    5  A    between atoms: N_13  and  N_14 
REMARK       I    between atoms: N_14  and  C_15 
REMARK    6  A    between atoms: C_15  and  C_16 
ROOT
HETATM    1  C   UNL     1      -6.185   1.975 -31.852  1.00  0.00     0.117 C 
HETATM    2  C   UNL     1      -5.632   0.567 -32.124  1.00  0.00     0.041 C 
HETATM    3  C   UNL     1      -6.045  -0.228 -30.896  1.00  0.00     0.003 C 
HETATM    4  C   UNL     1      -5.867   0.739 -29.736  1.00  0.00     0.003 C 
HETATM    5  C   UNL     1      -5.910   2.144 -30.339  1.00  0.00     0.041 C 
ENDROOT
BRANCH   1   6
HETATM    6  N   UNL     1      -5.468   3.037 -32.577  1.00  0.00    -0.325 N 
HETATM    7  C   UNL     1      -4.104   3.090 -32.646  1.00  0.00     0.317 C 
HETATM    8  N   UNL     1      -3.684   4.167 -33.375  1.00  0.00    -0.339 N 
HETATM    9  O   UNL     1      -3.362   2.262 -32.137  1.00  0.00    -0.247 OA
HETATM   10  H   UNL     1      -4.245   4.995 -33.241  1.00  0.00     0.164 HD
HETATM   11  H   UNL     1      -5.922   3.380 -33.412  1.00  0.00     0.165 HD
BRANCH   8  12
HETATM   12  C   UNL     1      -2.262   4.379 -33.548  1.00  0.00     0.162 C 
BRANCH  12  13
HETATM   13  C   UNL     1      -1.711   5.450 -32.639  1.00  0.00    -0.039 A 
HETATM   14  C   UNL     1      -1.017   5.139 -31.460  1.00  0.00     0.027 A 
HETATM   15  C   UNL     1      -0.540   6.158 -30.633  1.00  0.00     0.011 A 
HETATM   16  C   UNL     1      -0.767   7.495 -30.952  1.00  0.00     0.019 A 
HETATM   17 BR   UNL     1       0.424   5.720 -29.067  1.00  0.00    -0.051 Br
HETATM   18  C   UNL     1      -1.481   7.815 -32.105  1.00  0.00     0.002 A 
HETATM   19  C   UNL     1      -1.952   6.800 -32.941  1.00  0.00     0.009 A 
ENDBRANCH  12  13
ENDBRANCH   8  12
ENDBRANCH   1   6
BRANCH   1  20
HETATM   20  C   UNL     1      -7.716   2.082 -32.148  1.00  0.00     0.264 C 
HETATM   21  N   UNL     1      -8.157   1.341 -33.229  1.00  0.00    -0.265 N 
HETATM   22  H   UNL     1      -7.494   0.991 -33.934  1.00  0.00     0.190 HD
HETATM   23  O   UNL     1      -8.482   2.802 -31.506  1.00  0.00    -0.269 OA
BRANCH  21  24
HETATM   24  N   UNL     1      -9.487   1.497 -33.636  1.00  0.00    -0.262 N 
HETATM   25  C   UNL     1     -10.423   0.548 -33.278  1.00  0.00     0.286 C 
HETATM   26  O   UNL     1     -10.132  -0.453 -32.625  1.00  0.00    -0.264 OA
HETATM   27  H   UNL     1      -9.705   2.325 -34.180  1.00  0.00     0.190 HD
BRANCH  25  28
HETATM   28  C   UNL     1     -11.776   0.809 -33.723  1.00  0.00     0.102 A 
HETATM   29  N   UNL     1     -12.848   0.146 -33.163  1.00  0.00    -0.361 N 
HETATM   30  H   UNL     1     -12.756  -0.546 -32.429  1.00  0.00     0.165 HD
HETATM   31  C   UNL     1     -14.018   0.561 -33.739  1.00  0.00     0.088 A 
HETATM   32  C   UNL     1     -13.708   1.508 -34.686  1.00  0.00     0.019 A 
HETATM   33  C   UNL     1     -12.299   1.665 -34.679  1.00  0.00     0.036 A 
ENDBRANCH  25  28
ENDBRANCH  21  24
ENDBRANCH   1  20
TORSDOF 6
ENDMDL
MODEL 9
REMARK VINA RESULT:      -7.9      2.290      3.152
REMARK  6 active torsions:
REMARK  status: ('A' for Active; 'I' for Inactive)
REMARK    1  A    between atoms: C_6  and  C_7 
REMARK    2  A    between atoms: C_7  and  N_8 
REMARK       I    between atoms: N_8  and  C_9 
REMARK       I    between atoms: C_9  and  N_10 
REMARK    3  A    between atoms: N_10  and  C_11 
REMARK    4  A    between atoms: C_11  and  C_12 
REMARK       I    between atoms: C_12  and  N_13 
REMARK    5  A    between atoms: N_13  and  N_14 
REMARK       I    between atoms: N_14  and  C_15 
REMARK    6  A    between atoms: C_15  and  C_16 
ROOT
HETATM    1  C   UNL     1      -6.254   4.457 -31.473  1.00  0.00     0.117 C 
HETATM    2  C   UNL     1      -6.159   4.998 -32.909  1.00  0.00     0.041 C 
HETATM    3  C   UNL     1      -6.901   6.323 -32.848  1.00  0.00     0.003 C 
HETATM    4  C   UNL     1      -8.082   6.059 -31.926  1.00  0.00     0.003 C 
HETATM    5  C   UNL     1      -7.699   4.845 -31.077  1.00  0.00     0.041 C 
ENDROOT
BRANCH   1   6
HETATM    6  N   UNL     1      -6.126   2.993 -31.387  1.00  0.00    -0.325 N 
HETATM    7  C   UNL     1      -5.052   2.317 -31.895  1.00  0.00     0.317 C 
HETATM    8  N   UNL     1      -5.168   0.970 -31.688  1.00  0.00    -0.339 N 
HETATM    9  O   UNL     1      -4.102   2.858 -32.443  1.00  0.00    -0.247 OA
HETATM   10  H   UNL     1      -6.112   0.623 -31.779  1.00  0.00     0.164 HD
HETATM   11  H   UNL     1      -6.503   2.569 -30.550  1.00  0.00     0.165 HD
BRANCH   8  12
HETATM   12  C   UNL     1      -4.116   0.099 -32.166  1.00  0.00     0.162 C 
BRANCH  12  13
HETATM   13  C   UNL     1      -4.628  -1.007 -33.056  1.00  0.00    -0.039 A 
HETATM   14  C   UNL     1      -4.003  -2.263 -33.116  1.00  0.00     0.027 A 
HETATM   15  C   UNL     1      -4.494  -3.254 -33.967  1.00  0.00     0.011 A 
HETATM   16  C   UNL     1      -5.592  -3.006 -34.787  1.00  0.00     0.019 A 
HETATM   17 BR   UNL     1      -3.660  -4.951 -34.007  1.00  0.00    -0.051 Br
HETATM   18  C   UNL     1      -6.202  -1.753 -34.759  1.00  0.00     0.002 A 
HETATM   19  C   UNL     1      -5.722  -0.761 -33.901  1.00  0.00     0.009 A 
ENDBRANCH  12  13
ENDBRANCH   8  12
ENDBRANCH   1   6
BRANCH   1  20
HETATM   20  C   UNL     1      -5.221   5.130 -30.513  1.00  0.00     0.264 C 
HETATM   21  N   UNL     1      -4.076   5.605 -31.123  1.00  0.00    -0.265 N 
HETATM   22  H   UNL     1      -3.809   5.286 -32.065  1.00  0.00     0.190 HD
HETATM   23  O   UNL     1      -5.377   5.201 -29.292  1.00  0.00    -0.269 OA
BRANCH  21  24
HETATM   24  N   UNL     1      -3.049   6.094 -30.308  1.00  0.00    -0.262 N 
HETATM   25  C   UNL     1      -1.737   5.792 -30.611  1.00  0.00     0.286 C 
HETATM   26  O   UNL     1      -1.428   5.083 -31.567  1.00  0.00    -0.264 OA
HETATM   27  H   UNL     1      -3.326   6.670 -29.520  1.00  0.00     0.190 HD
BRANCH  25  28
HETATM   28  C   UNL     1      -0.746   6.364 -29.725  1.00  0.00     0.102 A 
HETATM   29  N   UNL     1      -0.167   5.610 -28.725  1.00  0.00    -0.361 N 
HETATM   30  H   UNL     1      -0.397   4.639 -28.553  1.00  0.00     0.165 HD
HETATM   31  C   UNL     1       0.738   6.361 -28.026  1.00  0.00     0.088 A 
HETATM   32  C   UNL     1       0.753   7.621 -28.576  1.00  0.00     0.019 A 
HETATM   33  C   UNL     1      -0.179   7.626 -29.643  1.00  0.00     0.036 A 
ENDBRANCH  25  28
ENDBRANCH  21  24
ENDBRANCH   1  20
TORSDOF 6
ENDMDL
MODEL 10
REMARK VINA RESULT:      -7.8      4.203     10.112
REMARK  6 active torsions:
REMARK  status: ('A' for Active; 'I' for Inactive)
REMARK    1  A    between atoms: C_6  and  C_7 
REMARK    2  A    between atoms: C_7  and  N_8 
REMARK       I    between atoms: N_8  and  C_9 
REMARK       I    between atoms: C_9  and  N_10 
REMARK    3  A    between atoms: N_10  and  C_11 
REMARK    4  A    between atoms: C_11  and  C_12 
REMARK       I    between atoms: C_12  and  N_13 
REMARK    5  A    between atoms: N_13  and  N_14 
REMARK       I    between atoms: N_14  and  C_15 
REMARK    6  A    between atoms: C_15  and  C_16 
ROOT
HETATM    1  C   UNL     1      -5.575   1.683 -31.807  1.00  0.00     0.117 C 
HETATM    2  C   UNL     1      -4.463   1.131 -32.715  1.00  0.00     0.041 C 
HETATM    3  C   UNL     1      -4.886  -0.306 -32.973  1.00  0.00     0.003 C 
HETATM    4  C   UNL     1      -5.459  -0.781 -31.647  1.00  0.00     0.003 C 
HETATM    5  C   UNL     1      -5.861   0.479 -30.878  1.00  0.00     0.041 C 
ENDROOT
BRANCH   1   6
HETATM    6  N   UNL     1      -5.145   2.820 -30.977  1.00  0.00    -0.325 N 
HETATM    7  C   UNL     1      -4.588   3.950 -31.507  1.00  0.00     0.317 C 
HETATM    8  N   UNL     1      -4.277   4.857 -30.532  1.00  0.00    -0.339 N 
HETATM    9  O   UNL     1      -4.414   4.128 -32.704  1.00  0.00    -0.247 OA
HETATM   10  H   UNL     1      -3.933   4.438 -29.680  1.00  0.00     0.164 HD
HETATM   11  H   UNL     1      -5.710   3.002 -30.158  1.00  0.00     0.165 HD
BRANCH   8  12
HETATM   12  C   UNL     1      -3.673   6.114 -30.917  1.00  0.00     0.162 C 
BRANCH  12  13
HETATM   13  C   UNL     1      -2.175   6.128 -30.737  1.00  0.00    -0.039 A 
HETATM   14  C   UNL     1      -1.550   6.924 -29.766  1.00  0.00     0.027 A 
HETATM   15  C   UNL     1      -0.159   6.924 -29.644  1.00  0.00     0.011 A 
HETATM   16  C   UNL     1       0.629   6.157 -30.499  1.00  0.00     0.019 A 
HETATM   17 BR   UNL     1       0.663   7.976 -28.305  1.00  0.00    -0.051 Br
HETATM   18  C   UNL     1       0.020   5.386 -31.487  1.00  0.00     0.002 A 
HETATM   19  C   UNL     1      -1.371   5.373 -31.607  1.00  0.00     0.009 A 
ENDBRANCH  12  13
ENDBRANCH   8  12
ENDBRANCH   1   6
BRANCH   1  20
HETATM   20  C   UNL     1      -6.858   2.076 -32.608  1.00  0.00     0.264 C 
HETATM   21  N   UNL     1      -8.054   1.801 -31.971  1.00  0.00    -0.265 N 
HETATM   22  H   UNL     1      -8.092   1.143 -31.181  1.00  0.00     0.190 HD
HETATM   23  O   UNL     1      -6.829   2.554 -33.744  1.00  0.00    -0.269 OA
BRANCH  21  24
HETATM   24  N   UNL     1      -9.242   1.998 -32.686  1.00  0.00    -0.262 N 
HETATM   25  C   UNL     1      -9.947   0.906 -33.148  1.00  0.00     0.286 C 
HETATM   26  O   UNL     1      -9.561  -0.249 -32.976  1.00  0.00    -0.264 OA
HETATM   27  H   UNL     1      -9.538   2.959 -32.824  1.00  0.00     0.190 HD
BRANCH  25  28
HETATM   28  C   UNL     1     -11.174   1.210 -33.852  1.00  0.00     0.102 A 
HETATM   29  N   UNL     1     -11.176   2.053 -34.945  1.00  0.00    -0.361 N 
HETATM   30  H   UNL     1     -10.343   2.498 -35.309  1.00  0.00     0.165 HD
HETATM   31  C   UNL     1     -12.444   2.183 -35.444  1.00  0.00     0.088 A 
HETATM   32  C   UNL     1     -13.282   1.416 -34.668  1.00  0.00     0.019 A 
HETATM   33  C   UNL     1     -12.486   0.805 -33.667  1.00  0.00     0.036 A 
ENDBRANCH  25  28
ENDBRANCH  21  24
ENDBRANCH   1  20
TORSDOF 6
ENDMDL
