MODEL 1
REMARK VINA RESULT:      -9.3      0.000      0.000
REMARK  6 active torsions:
REMARK  status: ('A' for Active; 'I' for Inactive)
REMARK    1  A    between atoms: C_5  and  O_6 
REMARK    2  A    between atoms: O_6  and  C_7 
REMARK    3  A    between atoms: C_7  and  C_8 
REMARK       I    between atoms: C_8  and  N_9 
REMARK    4  A    between atoms: N_9  and  C_10 
REMARK    5  A    between atoms: C_10  and  C_11 
REMARK       I    between atoms: C_11  and  N_12 
REMARK    6  A    between atoms: N_12  and  N_13 
ROOT
HETATM    1  C   UNL     1      -5.425   2.621 -32.177  1.00  0.00     0.255 C 
HETATM    2  N   UNL     1      -4.443   1.685 -32.461  1.00  0.00    -0.245 N 
HETATM    3  O   UNL     1      -6.627   2.483 -32.401  1.00  0.00    -0.270 OA
HETATM    4  H   UNL     1      -3.474   1.832 -32.167  1.00  0.00     0.192 HD
ENDROOT
BRANCH   1   5
HETATM    5  C   UNL     1      -4.859   3.925 -31.610  1.00  0.00     0.227 C 
BRANCH   5   6
HETATM    6  N   UNL     1      -4.625   4.879 -32.682  1.00  0.00    -0.350 N 
HETATM    7  C   UNL     1      -3.432   5.261 -33.229  1.00  0.00     0.242 C 
HETATM    8  O   UNL     1      -3.410   6.191 -34.036  1.00  0.00    -0.271 OA
HETATM    9  H   UNL     1      -5.400   5.497 -32.910  1.00  0.00     0.163 HD
BRANCH   7  10
HETATM   10  C   UNL     1      -2.176   4.470 -32.879  1.00  0.00     0.278 C 
BRANCH  10  11
HETATM   11  O   UNL     1      -1.043   5.333 -32.949  1.00  0.00    -0.342 OA
BRANCH  11  12
HETATM   12  C   UNL     1      -0.641   5.822 -31.736  1.00  0.00     0.069 A 
HETATM   13  C   UNL     1       0.026   4.926 -30.903  1.00  0.00     0.037 A 
HETATM   14  C   UNL     1       0.500   5.341 -29.657  1.00  0.00     0.009 A 
HETATM   15  C   UNL     1       0.321   6.664 -29.238  1.00  0.00    -0.062 A 
HETATM   16  C   UNL     1       0.860   7.128 -27.917  1.00  0.00     0.048 C 
HETATM   17  C   UNL     1      -0.314   7.568 -30.097  1.00  0.00     0.009 A 
HETATM   18  C   UNL     1      -0.793   7.151 -31.342  1.00  0.00     0.037 A 
ENDBRANCH  11  12
ENDBRANCH  10  11
ENDBRANCH   7  10
ENDBRANCH   5   6
ENDBRANCH   1   5
BRANCH   2  19
HETATM   19  N   UNL     1      -4.780   0.493 -33.039  1.00  0.00    -0.166 NA
HETATM   20  C   UNL     1      -4.103  -0.544 -32.664  1.00  0.00     0.157 A 
HETATM   21  C   UNL     1      -2.964  -0.618 -31.642  1.00  0.00     0.277 A 
HETATM   22  C   UNL     1      -4.293  -1.905 -33.149  1.00  0.00     0.028 A 
HETATM   23  O   UNL     1      -2.512   0.337 -31.047  1.00  0.00    -0.266 OA
HETATM   24  N   UNL     1      -2.603  -1.946 -31.584  1.00  0.00    -0.321 N 
HETATM   25  C   UNL     1      -3.373  -2.701 -32.466  1.00  0.00     0.048 A 
HETATM   26  H   UNL     1      -1.869  -2.296 -30.986  1.00  0.00     0.169 HD
HETATM   27  C   UNL     1      -3.290  -4.058 -32.698  1.00  0.00     0.032 A 
HETATM   28  C   UNL     1      -4.165  -4.600 -33.648  1.00  0.00     0.021 A 
HETATM   29  C   UNL     1      -5.088  -3.782 -34.333  1.00  0.00     0.012 A 
HETATM   30 BR   UNL     1      -6.242  -4.564 -35.614  1.00  0.00    -0.051 Br
HETATM   31  C   UNL     1      -5.166  -2.411 -34.089  1.00  0.00     0.035 A 
ENDBRANCH   2  19
TORSDOF 6
ENDMDL
MODEL 2
REMARK VINA RESULT:      -9.0      4.500      8.092
REMARK  6 active torsions:
REMARK  status: ('A' for Active; 'I' for Inactive)
REMARK    1  A    between atoms: C_5  and  O_6 
REMARK    2  A    between atoms: O_6  and  C_7 
REMARK    3  A    between atoms: C_7  and  C_8 
REMARK       I    between atoms: C_8  and  N_9 
REMARK    4  A    between atoms: N_9  and  C_10 
REMARK    5  A    between atoms: C_10  and  C_11 
REMARK       I    between atoms: C_11  and  N_12 
REMARK    6  A    between atoms: N_12  and  N_13 
ROOT
HETATM    1  C   UNL     1      -7.002   2.921 -30.503  1.00  0.00     0.255 C 
HETATM    2  N   UNL     1      -7.244   2.416 -31.772  1.00  0.00    -0.245 N 
HETATM    3  O   UNL     1      -7.672   3.787 -29.942  1.00  0.00    -0.270 OA
HETATM    4  H   UNL     1      -6.698   1.634 -32.139  1.00  0.00     0.192 HD
ENDROOT
BRANCH   1   5
HETATM    5  C   UNL     1      -5.738   2.344 -29.864  1.00  0.00     0.227 C 
BRANCH   5   6
HETATM    6  N   UNL     1      -4.555   2.934 -30.471  1.00  0.00    -0.350 N 
HETATM    7  C   UNL     1      -3.636   2.337 -31.287  1.00  0.00     0.242 C 
HETATM    8  O   UNL     1      -2.614   2.951 -31.595  1.00  0.00    -0.271 OA
HETATM    9  H   UNL     1      -4.245   3.820 -30.081  1.00  0.00     0.163 HD
BRANCH   7  10
HETATM   10  C   UNL     1      -3.945   0.954 -31.854  1.00  0.00     0.278 C 
BRANCH  10  11
HETATM   11  O   UNL     1      -4.863   1.085 -32.936  1.00  0.00    -0.342 OA
BRANCH  11  12
HETATM   12  C   UNL     1      -5.201  -0.102 -33.525  1.00  0.00     0.069 A 
HETATM   13  C   UNL     1      -4.339  -1.171 -33.292  1.00  0.00     0.037 A 
HETATM   14  C   UNL     1      -4.617  -2.431 -33.829  1.00  0.00     0.009 A 
HETATM   15  C   UNL     1      -5.769  -2.634 -34.595  1.00  0.00    -0.062 A 
HETATM   16  C   UNL     1      -6.094  -3.992 -35.143  1.00  0.00     0.048 C 
HETATM   17  C   UNL     1      -6.651  -1.565 -34.791  1.00  0.00     0.009 A 
HETATM   18  C   UNL     1      -6.370  -0.303 -34.259  1.00  0.00     0.037 A 
ENDBRANCH  11  12
ENDBRANCH  10  11
ENDBRANCH   7  10
ENDBRANCH   5   6
ENDBRANCH   1   5
BRANCH   2  19
HETATM   19  N   UNL     1      -8.299   2.883 -32.505  1.00  0.00    -0.166 NA
HETATM   20  C   UNL     1      -9.263   2.049 -32.729  1.00  0.00     0.157 A 
HETATM   21  C   UNL     1      -9.385   0.593 -32.273  1.00  0.00     0.277 A 
HETATM   22  C   UNL     1     -10.475   2.334 -33.486  1.00  0.00     0.028 A 
HETATM   23  O   UNL     1      -8.541  -0.002 -31.636  1.00  0.00    -0.266 OA
HETATM   24  N   UNL     1     -10.604   0.157 -32.745  1.00  0.00    -0.321 N 
HETATM   25  C   UNL     1     -11.242   1.169 -33.458  1.00  0.00     0.048 A 
HETATM   26  H   UNL     1     -10.956  -0.776 -32.593  1.00  0.00     0.169 HD
HETATM   27  C   UNL     1     -12.466   1.103 -34.090  1.00  0.00     0.032 A 
HETATM   28  C   UNL     1     -12.902   2.253 -34.762  1.00  0.00     0.021 A 
HETATM   29  C   UNL     1     -12.115   3.423 -34.784  1.00  0.00     0.012 A 
HETATM   30 BR   UNL     1     -12.748   4.945 -35.713  1.00  0.00    -0.051 Br
HETATM   31  C   UNL     1     -10.879   3.480 -34.138  1.00  0.00     0.035 A 
ENDBRANCH   2  19
TORSDOF 6
ENDMDL
MODEL 3
REMARK VINA RESULT:      -8.9      3.643      8.835
REMARK  6 active torsions:
REMARK  status: ('A' for Active; 'I' for Inactive)
REMARK    1  A    between atoms: C_5  and  O_6 
REMARK    2  A    between atoms: O_6  and  C_7 
REMARK    3  A    between atoms: C_7  and  C_8 
REMARK       I    between atoms: C_8  and  N_9 
REMARK    4  A    between atoms: N_9  and  C_10 
REMARK    5  A    between atoms: C_10  and  C_11 
REMARK       I    between atoms: C_11  and  N_12 
REMARK    6  A    between atoms: N_12  and  N_13 
ROOT
HETATM    1  C   UNL     1      -5.672   1.489 -31.078  1.00  0.00     0.255 C 
HETATM    2  N   UNL     1      -5.693   2.843 -31.375  1.00  0.00    -0.245 N 
HETATM    3  O   UNL     1      -4.673   0.846 -30.756  1.00  0.00    -0.270 OA
HETATM    4  H   UNL     1      -6.576   3.328 -31.551  1.00  0.00     0.192 HD
ENDROOT
BRANCH   1   5
HETATM    5  C   UNL     1      -7.032   0.815 -31.267  1.00  0.00     0.227 C 
BRANCH   5   6
HETATM    6  N   UNL     1      -7.778   1.478 -32.326  1.00  0.00    -0.350 N 
HETATM    7  C   UNL     1      -8.228   0.949 -33.502  1.00  0.00     0.242 C 
HETATM    8  O   UNL     1      -8.720   1.694 -34.349  1.00  0.00    -0.271 OA
HETATM    9  H   UNL     1      -7.782   2.494 -32.302  1.00  0.00     0.163 HD
BRANCH   7  10
HETATM   10  C   UNL     1      -8.177  -0.564 -33.695  1.00  0.00     0.278 C 
BRANCH  10  11
HETATM   11  O   UNL     1      -7.391  -0.863 -34.846  1.00  0.00    -0.342 OA
BRANCH  11  12
HETATM   12  C   UNL     1      -6.465  -1.850 -34.646  1.00  0.00     0.069 A 
HETATM   13  C   UNL     1      -5.290  -1.469 -34.003  1.00  0.00     0.037 A 
HETATM   14  C   UNL     1      -4.297  -2.414 -33.730  1.00  0.00     0.009 A 
HETATM   15  C   UNL     1      -4.479  -3.754 -34.087  1.00  0.00    -0.062 A 
HETATM   16  C   UNL     1      -3.435  -4.781 -33.764  1.00  0.00     0.048 C 
HETATM   17  C   UNL     1      -5.680  -4.136 -34.697  1.00  0.00     0.009 A 
HETATM   18  C   UNL     1      -6.670  -3.190 -34.975  1.00  0.00     0.037 A 
ENDBRANCH  11  12
ENDBRANCH  10  11
ENDBRANCH   7  10
ENDBRANCH   5   6
ENDBRANCH   1   5
BRANCH   2  19
HETATM   19  N   UNL     1      -4.539   3.574 -31.323  1.00  0.00    -0.166 NA
HETATM   20  C   UNL     1      -4.233   4.248 -32.385  1.00  0.00     0.157 A 
HETATM   21  C   UNL     1      -5.003   4.343 -33.706  1.00  0.00     0.277 A 
HETATM   22  C   UNL     1      -3.055   5.090 -32.547  1.00  0.00     0.028 A 
HETATM   23  O   UNL     1      -6.032   3.747 -33.947  1.00  0.00    -0.266 OA
HETATM   24  N   UNL     1      -4.276   5.205 -34.497  1.00  0.00    -0.321 N 
HETATM   25  C   UNL     1      -3.134   5.640 -33.827  1.00  0.00     0.048 A 
HETATM   26  H   UNL     1      -4.547   5.459 -35.435  1.00  0.00     0.169 HD
HETATM   27  C   UNL     1      -2.160   6.492 -34.301  1.00  0.00     0.032 A 
HETATM   28  C   UNL     1      -1.088   6.779 -33.445  1.00  0.00     0.021 A 
HETATM   29  C   UNL     1      -1.019   6.213 -32.155  1.00  0.00     0.012 A 
HETATM   30 BR   UNL     1       0.455   6.626 -31.042  1.00  0.00    -0.051 Br
HETATM   31  C   UNL     1      -2.012   5.353 -31.684  1.00  0.00     0.035 A 
ENDBRANCH   2  19
TORSDOF 6
ENDMDL
MODEL 4
REMARK VINA RESULT:      -8.7      1.455      2.618
REMARK  6 active torsions:
REMARK  status: ('A' for Active; 'I' for Inactive)
REMARK    1  A    between atoms: C_5  and  O_6 
REMARK    2  A    between atoms: O_6  and  C_7 
REMARK    3  A    between atoms: C_7  and  C_8 
REMARK       I    between atoms: C_8  and  N_9 
REMARK    4  A    between atoms: N_9  and  C_10 
REMARK    5  A    between atoms: C_10  and  C_11 
REMARK       I    between atoms: C_11  and  N_12 
REMARK    6  A    between atoms: N_12  and  N_13 
ROOT
HETATM    1  C   UNL     1      -3.648   2.842 -31.715  1.00  0.00     0.255 C 
HETATM    2  N   UNL     1      -4.520   2.181 -32.566  1.00  0.00    -0.245 N 
HETATM    3  O   UNL     1      -2.694   2.327 -31.133  1.00  0.00    -0.270 OA
HETATM    4  H   UNL     1      -5.239   2.693 -33.083  1.00  0.00     0.192 HD
ENDROOT
BRANCH   1   5
HETATM    5  C   UNL     1      -4.031   4.305 -31.487  1.00  0.00     0.227 C 
BRANCH   5   6
HETATM    6  N   UNL     1      -4.137   5.000 -32.761  1.00  0.00    -0.350 N 
HETATM    7  C   UNL     1      -3.128   5.459 -33.560  1.00  0.00     0.242 C 
HETATM    8  O   UNL     1      -3.403   6.155 -34.538  1.00  0.00    -0.271 OA
HETATM    9  H   UNL     1      -5.050   5.387 -32.986  1.00  0.00     0.163 HD
BRANCH   7  10
HETATM   10  C   UNL     1      -1.696   5.028 -33.257  1.00  0.00     0.278 C 
BRANCH  10  11
HETATM   11  O   UNL     1      -0.911   6.181 -32.967  1.00  0.00    -0.342 OA
BRANCH  11  12
HETATM   12  C   UNL     1      -0.442   6.226 -31.683  1.00  0.00     0.069 A 
HETATM   13  C   UNL     1      -0.768   7.365 -30.950  1.00  0.00     0.037 A 
HETATM   14  C   UNL     1      -0.358   7.489 -29.620  1.00  0.00     0.009 A 
HETATM   15  C   UNL     1       0.373   6.465 -29.008  1.00  0.00    -0.062 A 
HETATM   16  C   UNL     1       0.784   6.573 -27.569  1.00  0.00     0.048 C 
HETATM   17  C   UNL     1       0.662   5.307 -29.739  1.00  0.00     0.009 A 
HETATM   18  C   UNL     1       0.256   5.186 -31.071  1.00  0.00     0.037 A 
ENDBRANCH  11  12
ENDBRANCH  10  11
ENDBRANCH   7  10
ENDBRANCH   5   6
ENDBRANCH   1   5
BRANCH   2  19
HETATM   19  N   UNL     1      -4.355   0.847 -32.816  1.00  0.00    -0.166 NA
HETATM   20  C   UNL     1      -5.309   0.257 -33.462  1.00  0.00     0.157 A 
HETATM   21  C   UNL     1      -6.611   0.861 -33.996  1.00  0.00     0.277 A 
HETATM   22  C   UNL     1      -5.341  -1.152 -33.831  1.00  0.00     0.028 A 
HETATM   23  O   UNL     1      -6.944   2.018 -33.850  1.00  0.00    -0.266 OA
HETATM   24  N   UNL     1      -7.267  -0.173 -34.627  1.00  0.00    -0.321 N 
HETATM   25  C   UNL     1      -6.532  -1.352 -34.530  1.00  0.00     0.048 A 
HETATM   26  H   UNL     1      -8.163  -0.067 -35.080  1.00  0.00     0.169 HD
HETATM   27  C   UNL     1      -6.872  -2.593 -35.023  1.00  0.00     0.032 A 
HETATM   28  C   UNL     1      -5.974  -3.643 -34.790  1.00  0.00     0.021 A 
HETATM   29  C   UNL     1      -4.775  -3.427 -34.079  1.00  0.00     0.012 A 
HETATM   30 BR   UNL     1      -3.601  -4.882 -33.785  1.00  0.00    -0.051 Br
HETATM   31  C   UNL     1      -4.438  -2.166 -33.587  1.00  0.00     0.035 A 
ENDBRANCH   2  19
TORSDOF 6
ENDMDL
MODEL 5
REMARK VINA RESULT:      -8.7      3.860      8.352
REMARK  6 active torsions:
REMARK  status: ('A' for Active; 'I' for Inactive)
REMARK    1  A    between atoms: C_5  and  O_6 
REMARK    2  A    between atoms: O_6  and  C_7 
REMARK    3  A    between atoms: C_7  and  C_8 
REMARK       I    between atoms: C_8  and  N_9 
REMARK    4  A    between atoms: N_9  and  C_10 
REMARK    5  A    between atoms: C_10  and  C_11 
REMARK       I    between atoms: C_11  and  N_12 
REMARK    6  A    between atoms: N_12  and  N_13 
ROOT
HETATM    1  C   UNL     1      -7.614   3.864 -30.600  1.00  0.00     0.255 C 
HETATM    2  N   UNL     1      -6.760   3.716 -31.682  1.00  0.00    -0.245 N 
HETATM    3  O   UNL     1      -7.283   4.253 -29.480  1.00  0.00    -0.270 OA
HETATM    4  H   UNL     1      -7.122   3.471 -32.607  1.00  0.00     0.192 HD
ENDROOT
BRANCH   1   5
HETATM    5  C   UNL     1      -9.044   3.412 -30.902  1.00  0.00     0.227 C 
BRANCH   5   6
HETATM    6  N   UNL     1      -9.129   1.960 -30.867  1.00  0.00    -0.350 N 
HETATM    7  C   UNL     1      -9.288   1.097 -31.915  1.00  0.00     0.242 C 
HETATM    8  O   UNL     1      -9.484  -0.097 -31.687  1.00  0.00    -0.271 OA
HETATM    9  H   UNL     1      -9.311   1.543 -29.958  1.00  0.00     0.163 HD
BRANCH   7  10
HETATM   10  C   UNL     1      -9.139   1.631 -33.336  1.00  0.00     0.278 C 
BRANCH  10  11
HETATM   11  O   UNL     1      -7.758   1.851 -33.613  1.00  0.00    -0.342 OA
BRANCH  11  12
HETATM   12  C   UNL     1      -7.030   0.702 -33.757  1.00  0.00     0.069 A 
HETATM   13  C   UNL     1      -7.447  -0.168 -34.762  1.00  0.00     0.037 A 
HETATM   14  C   UNL     1      -6.748  -1.354 -35.003  1.00  0.00     0.009 A 
HETATM   15  C   UNL     1      -5.616  -1.673 -34.246  1.00  0.00    -0.062 A 
HETATM   16  C   UNL     1      -4.838  -2.925 -34.524  1.00  0.00     0.048 C 
HETATM   17  C   UNL     1      -5.180  -0.775 -33.265  1.00  0.00     0.009 A 
HETATM   18  C   UNL     1      -5.882   0.409 -33.020  1.00  0.00     0.037 A 
ENDBRANCH  11  12
ENDBRANCH  10  11
ENDBRANCH   7  10
ENDBRANCH   5   6
ENDBRANCH   1   5
BRANCH   2  19
HETATM   19  N   UNL     1      -5.432   4.011 -31.552  1.00  0.00    -0.166 NA
HETATM   20  C   UNL     1      -4.833   4.460 -32.607  1.00  0.00     0.157 A 
HETATM   21  C   UNL     1      -5.421   4.715 -33.998  1.00  0.00     0.277 A 
HETATM   22  C   UNL     1      -3.427   4.833 -32.693  1.00  0.00     0.028 A 
HETATM   23  O   UNL     1      -6.571   4.490 -34.311  1.00  0.00    -0.266 OA
HETATM   24  N   UNL     1      -4.383   5.215 -34.753  1.00  0.00    -0.321 N 
HETATM   25  C   UNL     1      -3.215   5.282 -33.997  1.00  0.00     0.048 A 
HETATM   26  H   UNL     1      -4.479   5.478 -35.723  1.00  0.00     0.169 HD
HETATM   27  C   UNL     1      -1.973   5.713 -34.412  1.00  0.00     0.032 A 
HETATM   28  C   UNL     1      -0.936   5.678 -33.472  1.00  0.00     0.021 A 
HETATM   29  C   UNL     1      -1.163   5.219 -32.158  1.00  0.00     0.012 A 
HETATM   30 BR   UNL     1       0.275   5.184 -30.929  1.00  0.00    -0.051 Br
HETATM   31  C   UNL     1      -2.425   4.788 -31.747  1.00  0.00     0.035 A 
ENDBRANCH   2  19
TORSDOF 6
ENDMDL
MODEL 6
REMARK VINA RESULT:      -8.5      4.092      9.926
REMARK  6 active torsions:
REMARK  status: ('A' for Active; 'I' for Inactive)
REMARK    1  A    between atoms: C_5  and  O_6 
REMARK    2  A    between atoms: O_6  and  C_7 
REMARK    3  A    between atoms: C_7  and  C_8 
REMARK       I    between atoms: C_8  and  N_9 
REMARK    4  A    between atoms: N_9  and  C_10 
REMARK    5  A    between atoms: C_10  and  C_11 
REMARK       I    between atoms: C_11  and  N_12 
REMARK    6  A    between atoms: N_12  and  N_13 
ROOT
HETATM    1  C   UNL     1      -3.934   5.299 -32.056  1.00  0.00     0.255 C 
HETATM    2  N   UNL     1      -3.009   5.224 -31.026  1.00  0.00    -0.245 N 
HETATM    3  O   UNL     1      -4.539   6.315 -32.397  1.00  0.00    -0.270 OA
HETATM    4  H   UNL     1      -2.480   4.365 -30.856  1.00  0.00     0.192 HD
ENDROOT
BRANCH   1   5
HETATM    5  C   UNL     1      -4.210   3.943 -32.709  1.00  0.00     0.227 C 
BRANCH   5   6
HETATM    6  N   UNL     1      -3.334   2.927 -32.148  1.00  0.00    -0.350 N 
HETATM    7  C   UNL     1      -3.663   1.677 -31.705  1.00  0.00     0.242 C 
HETATM    8  O   UNL     1      -2.814   1.000 -31.125  1.00  0.00    -0.271 OA
HETATM    9  H   UNL     1      -2.417   3.244 -31.843  1.00  0.00     0.163 HD
BRANCH   7  10
HETATM   10  C   UNL     1      -5.054   1.131 -32.013  1.00  0.00     0.278 C 
BRANCH  10  11
HETATM   11  O   UNL     1      -5.170   0.910 -33.417  1.00  0.00    -0.342 OA
BRANCH  11  12
HETATM   12  C   UNL     1      -5.389  -0.397 -33.757  1.00  0.00     0.069 A 
HETATM   13  C   UNL     1      -6.659  -0.702 -34.240  1.00  0.00     0.037 A 
HETATM   14  C   UNL     1      -6.968  -2.005 -34.641  1.00  0.00     0.009 A 
HETATM   15  C   UNL     1      -6.001  -3.013 -34.572  1.00  0.00    -0.062 A 
HETATM   16  C   UNL     1      -6.312  -4.405 -35.034  1.00  0.00     0.048 C 
HETATM   17  C   UNL     1      -4.714  -2.690 -34.122  1.00  0.00     0.009 A 
HETATM   18  C   UNL     1      -4.408  -1.388 -33.717  1.00  0.00     0.037 A 
ENDBRANCH  11  12
ENDBRANCH  10  11
ENDBRANCH   7  10
ENDBRANCH   5   6
ENDBRANCH   1   5
BRANCH   2  19
HETATM   19  N   UNL     1      -2.705   6.338 -30.295  1.00  0.00    -0.166 NA
HETATM   20  C   UNL     1      -1.495   6.423 -29.845  1.00  0.00     0.157 A 
HETATM   21  C   UNL     1      -0.340   5.434 -30.029  1.00  0.00     0.277 A 
HETATM   22  C   UNL     1      -0.960   7.518 -29.046  1.00  0.00     0.028 A 
HETATM   23  O   UNL     1      -0.425   4.380 -30.624  1.00  0.00    -0.266 OA
HETATM   24  N   UNL     1       0.737   5.998 -29.383  1.00  0.00    -0.321 N 
HETATM   25  C   UNL     1       0.380   7.213 -28.803  1.00  0.00     0.048 A 
HETATM   26  H   UNL     1       1.647   5.563 -29.339  1.00  0.00     0.169 HD
HETATM   27  C   UNL     1       1.182   8.055 -28.063  1.00  0.00     0.032 A 
HETATM   28  C   UNL     1       0.595   9.226 -27.566  1.00  0.00     0.021 A 
HETATM   29  C   UNL     1      -0.761   9.520 -27.817  1.00  0.00     0.012 A 
HETATM   30 BR   UNL     1      -1.507  11.111 -27.114  1.00  0.00    -0.051 Br
HETATM   31  C   UNL     1      -1.564   8.662 -28.569  1.00  0.00     0.035 A 
ENDBRANCH   2  19
TORSDOF 6
ENDMDL
MODEL 7
REMARK VINA RESULT:      -8.5      1.947      3.065
REMARK  6 active torsions:
REMARK  status: ('A' for Active; 'I' for Inactive)
REMARK    1  A    between atoms: C_5  and  O_6 
REMARK    2  A    between atoms: O_6  and  C_7 
REMARK    3  A    between atoms: C_7  and  C_8 
REMARK       I    between atoms: C_8  and  N_9 
REMARK    4  A    between atoms: N_9  and  C_10 
REMARK    5  A    between atoms: C_10  and  C_11 
REMARK       I    between atoms: C_11  and  N_12 
REMARK    6  A    between atoms: N_12  and  N_13 
ROOT
HETATM    1  C   UNL     1      -5.304   2.248 -31.367  1.00  0.00     0.255 C 
HETATM    2  N   UNL     1      -4.879   1.840 -32.622  1.00  0.00    -0.245 N 
HETATM    3  O   UNL     1      -5.455   1.513 -30.392  1.00  0.00    -0.270 OA
HETATM    4  H   UNL     1      -4.693   2.522 -33.361  1.00  0.00     0.192 HD
ENDROOT
BRANCH   1   5
HETATM    5  C   UNL     1      -5.660   3.735 -31.313  1.00  0.00     0.227 C 
BRANCH   5   6
HETATM    6  N   UNL     1      -6.486   4.096 -32.455  1.00  0.00    -0.350 N 
HETATM    7  C   UNL     1      -6.532   5.287 -33.122  1.00  0.00     0.242 C 
HETATM    8  O   UNL     1      -7.397   5.464 -33.980  1.00  0.00    -0.271 OA
HETATM    9  H   UNL     1      -7.273   3.483 -32.651  1.00  0.00     0.163 HD
BRANCH   7  10
HETATM   10  C   UNL     1      -5.459   6.332 -32.836  1.00  0.00     0.278 C 
BRANCH  10  11
HETATM   11  O   UNL     1      -4.316   6.066 -33.646  1.00  0.00    -0.342 OA
BRANCH  11  12
HETATM   12  C   UNL     1      -3.123   6.270 -33.009  1.00  0.00     0.069 A 
HETATM   13  C   UNL     1      -2.289   5.159 -32.896  1.00  0.00     0.037 A 
HETATM   14  C   UNL     1      -1.038   5.277 -32.286  1.00  0.00     0.009 A 
HETATM   15  C   UNL     1      -0.604   6.512 -31.794  1.00  0.00    -0.062 A 
HETATM   16  C   UNL     1       0.753   6.654 -31.172  1.00  0.00     0.048 C 
HETATM   17  C   UNL     1      -1.431   7.632 -31.946  1.00  0.00     0.009 A 
HETATM   18  C   UNL     1      -2.685   7.513 -32.552  1.00  0.00     0.037 A 
ENDBRANCH  11  12
ENDBRANCH  10  11
ENDBRANCH   7  10
ENDBRANCH   5   6
ENDBRANCH   1   5
BRANCH   2  19
HETATM   19  N   UNL     1      -4.590   0.524 -32.853  1.00  0.00    -0.166 NA
HETATM   20  C   UNL     1      -5.457  -0.147 -33.539  1.00  0.00     0.157 A 
HETATM   21  C   UNL     1      -6.778   0.342 -34.141  1.00  0.00     0.277 A 
HETATM   22  C   UNL     1      -5.352  -1.555 -33.899  1.00  0.00     0.028 A 
HETATM   23  O   UNL     1      -7.214   1.468 -34.020  1.00  0.00    -0.266 OA
HETATM   24  N   UNL     1      -7.313  -0.746 -34.795  1.00  0.00    -0.321 N 
HETATM   25  C   UNL     1      -6.486  -1.858 -34.653  1.00  0.00     0.048 A 
HETATM   26  H   UNL     1      -8.192  -0.718 -35.291  1.00  0.00     0.169 HD
HETATM   27  C   UNL     1      -6.696  -3.125 -35.152  1.00  0.00     0.032 A 
HETATM   28  C   UNL     1      -5.725  -4.095 -34.868  1.00  0.00     0.021 A 
HETATM   29  C   UNL     1      -4.584  -3.775 -34.101  1.00  0.00     0.012 A 
HETATM   30 BR   UNL     1      -3.308  -5.124 -33.739  1.00  0.00    -0.051 Br
HETATM   31  C   UNL     1      -4.380  -2.488 -33.603  1.00  0.00     0.035 A 
ENDBRANCH   2  19
TORSDOF 6
ENDMDL
MODEL 8
REMARK VINA RESULT:      -8.4      3.731      9.264
REMARK  6 active torsions:
REMARK  status: ('A' for Active; 'I' for Inactive)
REMARK    1  A    between atoms: C_5  and  O_6 
REMARK    2  A    between atoms: O_6  and  C_7 
REMARK    3  A    between atoms: C_7  and  C_8 
REMARK       I    between atoms: C_8  and  N_9 
REMARK    4  A    between atoms: N_9  and  C_10 
REMARK    5  A    between atoms: C_10  and  C_11 
REMARK       I    between atoms: C_11  and  N_12 
REMARK    6  A    between atoms: N_12  and  N_13 
ROOT
HETATM    1  C   UNL     1      -6.590   3.325 -32.766  1.00  0.00     0.255 C 
HETATM    2  N   UNL     1      -6.021   4.564 -33.017  1.00  0.00    -0.245 N 
HETATM    3  O   UNL     1      -6.230   2.541 -31.887  1.00  0.00    -0.270 OA
HETATM    4  H   UNL     1      -6.430   5.199 -33.707  1.00  0.00     0.192 HD
ENDROOT
BRANCH   1   5
HETATM    5  C   UNL     1      -7.695   2.963 -33.760  1.00  0.00     0.227 C 
BRANCH   5   6
HETATM    6  N   UNL     1      -8.501   1.871 -33.238  1.00  0.00    -0.350 N 
HETATM    7  C   UNL     1      -8.436   0.544 -33.556  1.00  0.00     0.242 C 
HETATM    8  O   UNL     1      -9.296  -0.223 -33.122  1.00  0.00    -0.271 OA
HETATM    9  H   UNL     1      -9.352   2.136 -32.749  1.00  0.00     0.163 HD
BRANCH   7  10
HETATM   10  C   UNL     1      -7.253   0.043 -34.379  1.00  0.00     0.278 C 
BRANCH  10  11
HETATM   11  O   UNL     1      -7.553  -1.253 -34.892  1.00  0.00    -0.342 OA
BRANCH  11  12
HETATM   12  C   UNL     1      -6.565  -2.176 -34.686  1.00  0.00     0.069 A 
HETATM   13  C   UNL     1      -5.384  -1.696 -34.124  1.00  0.00     0.037 A 
HETATM   14  C   UNL     1      -4.328  -2.569 -33.850  1.00  0.00     0.009 A 
HETATM   15  C   UNL     1      -4.450  -3.934 -34.126  1.00  0.00    -0.062 A 
HETATM   16  C   UNL     1      -3.336  -4.884 -33.800  1.00  0.00     0.048 C 
HETATM   17  C   UNL     1      -5.655  -4.415 -34.653  1.00  0.00     0.009 A 
HETATM   18  C   UNL     1      -6.709  -3.541 -34.932  1.00  0.00     0.037 A 
ENDBRANCH  11  12
ENDBRANCH  10  11
ENDBRANCH   7  10
ENDBRANCH   5   6
ENDBRANCH   1   5
BRANCH   2  19
HETATM   19  N   UNL     1      -4.972   5.003 -32.259  1.00  0.00    -0.166 NA
HETATM   20  C   UNL     1      -3.937   5.440 -32.902  1.00  0.00     0.157 A 
HETATM   21  C   UNL     1      -3.730   5.539 -34.416  1.00  0.00     0.277 A 
HETATM   22  C   UNL     1      -2.714   5.951 -32.297  1.00  0.00     0.028 A 
HETATM   23  O   UNL     1      -4.537   5.176 -35.246  1.00  0.00    -0.266 OA
HETATM   24  N   UNL     1      -2.480   6.093 -34.584  1.00  0.00    -0.321 N 
HETATM   25  C   UNL     1      -1.880   6.331 -33.350  1.00  0.00     0.048 A 
HETATM   26  H   UNL     1      -2.073   6.278 -35.489  1.00  0.00     0.169 HD
HETATM   27  C   UNL     1      -0.629   6.859 -33.116  1.00  0.00     0.032 A 
HETATM   28  C   UNL     1      -0.230   6.995 -31.780  1.00  0.00     0.021 A 
HETATM   29  C   UNL     1      -1.082   6.604 -30.726  1.00  0.00     0.012 A 
HETATM   30 BR   UNL     1      -0.491   6.801 -28.939  1.00  0.00    -0.051 Br
HETATM   31  C   UNL     1      -2.348   6.073 -30.973  1.00  0.00     0.035 A 
ENDBRANCH   2  19
TORSDOF 6
ENDMDL
MODEL 9
REMARK VINA RESULT:      -8.3      4.027      9.421
REMARK  6 active torsions:
REMARK  status: ('A' for Active; 'I' for Inactive)
REMARK    1  A    between atoms: C_5  and  O_6 
REMARK    2  A    between atoms: O_6  and  C_7 
REMARK    3  A    between atoms: C_7  and  C_8 
REMARK       I    between atoms: C_8  and  N_9 
REMARK    4  A    between atoms: N_9  and  C_10 
REMARK    5  A    between atoms: C_10  and  C_11 
REMARK       I    between atoms: C_11  and  N_12 
REMARK    6  A    between atoms: N_12  and  N_13 
ROOT
HETATM    1  C   UNL     1      -4.528   5.255 -33.542  1.00  0.00     0.255 C 
HETATM    2  N   UNL     1      -4.520   5.149 -32.159  1.00  0.00    -0.245 N 
HETATM    3  O   UNL     1      -4.045   6.184 -34.187  1.00  0.00    -0.270 OA
HETATM    4  H   UNL     1      -4.864   4.304 -31.695  1.00  0.00     0.192 HD
ENDROOT
BRANCH   1   5
HETATM    5  C   UNL     1      -5.286   4.114 -34.223  1.00  0.00     0.227 C 
BRANCH   5   6
HETATM    6  N   UNL     1      -6.483   3.783 -33.465  1.00  0.00    -0.350 N 
HETATM    7  C   UNL     1      -7.234   2.643 -33.526  1.00  0.00     0.242 C 
HETATM    8  O   UNL     1      -8.301   2.592 -32.914  1.00  0.00    -0.271 OA
HETATM    9  H   UNL     1      -6.946   4.558 -32.998  1.00  0.00     0.163 HD
BRANCH   7  10
HETATM   10  C   UNL     1      -6.686   1.441 -34.289  1.00  0.00     0.278 C 
BRANCH  10  11
HETATM   11  O   UNL     1      -5.890   0.651 -33.410  1.00  0.00    -0.342 OA
BRANCH  11  12
HETATM   12  C   UNL     1      -5.803  -0.666 -33.771  1.00  0.00     0.069 A 
HETATM   13  C   UNL     1      -6.992  -1.273 -34.170  1.00  0.00     0.037 A 
HETATM   14  C   UNL     1      -6.998  -2.607 -34.584  1.00  0.00     0.009 A 
HETATM   15  C   UNL     1      -5.810  -3.344 -34.613  1.00  0.00    -0.062 A 
HETATM   16  C   UNL     1      -5.801  -4.765 -35.091  1.00  0.00     0.048 C 
HETATM   17  C   UNL     1      -4.612  -2.715 -34.249  1.00  0.00     0.009 A 
HETATM   18  C   UNL     1      -4.608  -1.382 -33.830  1.00  0.00     0.037 A 
ENDBRANCH  11  12
ENDBRANCH  10  11
ENDBRANCH   7  10
ENDBRANCH   5   6
ENDBRANCH   1   5
BRANCH   2  19
HETATM   19  N   UNL     1      -3.943   6.128 -31.400  1.00  0.00    -0.166 NA
HETATM   20  C   UNL     1      -2.746   5.896 -30.968  1.00  0.00     0.157 A 
HETATM   21  C   UNL     1      -1.875   4.657 -31.201  1.00  0.00     0.277 A 
HETATM   22  C   UNL     1      -1.948   6.796 -30.146  1.00  0.00     0.028 A 
HETATM   23  O   UNL     1      -2.224   3.678 -31.826  1.00  0.00    -0.266 OA
HETATM   24  N   UNL     1      -0.685   4.915 -30.556  1.00  0.00    -0.321 N 
HETATM   25  C   UNL     1      -0.725   6.161 -29.934  1.00  0.00     0.048 A 
HETATM   26  H   UNL     1       0.088   4.267 -30.540  1.00  0.00     0.169 HD
HETATM   27  C   UNL     1       0.268   6.753 -29.183  1.00  0.00     0.032 A 
HETATM   28  C   UNL     1      -0.005   8.015 -28.641  1.00  0.00     0.021 A 
HETATM   29  C   UNL     1      -1.248   8.645 -28.861  1.00  0.00     0.012 A 
HETATM   30 BR   UNL     1      -1.569  10.347 -28.099  1.00  0.00    -0.051 Br
HETATM   31  C   UNL     1      -2.245   8.038 -29.625  1.00  0.00     0.035 A 
ENDBRANCH   2  19
TORSDOF 6
ENDMDL
MODEL 10
REMARK VINA RESULT:      -8.3      3.004      3.916
REMARK  6 active torsions:
REMARK  status: ('A' for Active; 'I' for Inactive)
REMARK    1  A    between atoms: C_5  and  O_6 
REMARK    2  A    between atoms: O_6  and  C_7 
REMARK    3  A    between atoms: C_7  and  C_8 
REMARK       I    between atoms: C_8  and  N_9 
REMARK    4  A    between atoms: N_9  and  C_10 
REMARK    5  A    between atoms: C_10  and  C_11 
REMARK       I    between atoms: C_11  and  N_12 
REMARK    6  A    between atoms: N_12  and  N_13 
ROOT
HETATM    1  C   UNL     1      -8.922   2.135 -31.504  1.00  0.00     0.255 C 
HETATM    2  N   UNL     1      -7.726   1.445 -31.377  1.00  0.00    -0.245 N 
HETATM    3  O   UNL     1      -9.824   1.857 -32.294  1.00  0.00    -0.270 OA
HETATM    4  H   UNL     1      -7.059   1.681 -30.638  1.00  0.00     0.192 HD
ENDROOT
BRANCH   1   5
HETATM    5  C   UNL     1      -8.999   3.366 -30.600  1.00  0.00     0.227 C 
BRANCH   5   6
HETATM    6  N   UNL     1      -8.842   4.579 -31.387  1.00  0.00    -0.350 N 
HETATM    7  C   UNL     1      -7.690   5.248 -31.690  1.00  0.00     0.242 C 
HETATM    8  O   UNL     1      -7.758   6.342 -32.251  1.00  0.00    -0.271 OA
HETATM    9  H   UNL     1      -9.688   5.118 -31.553  1.00  0.00     0.163 HD
BRANCH   7  10
HETATM   10  C   UNL     1      -6.352   4.580 -31.391  1.00  0.00     0.278 C 
BRANCH  10  11
HETATM   11  O   UNL     1      -5.959   3.793 -32.513  1.00  0.00    -0.342 OA
BRANCH  11  12
HETATM   12  C   UNL     1      -4.831   4.245 -33.141  1.00  0.00     0.069 A 
HETATM   13  C   UNL     1      -3.623   3.991 -32.494  1.00  0.00     0.037 A 
HETATM   14  C   UNL     1      -2.416   4.389 -33.073  1.00  0.00     0.009 A 
HETATM   15  C   UNL     1      -2.406   5.037 -34.312  1.00  0.00    -0.062 A 
HETATM   16  C   UNL     1      -1.112   5.434 -34.958  1.00  0.00     0.048 C 
HETATM   17  C   UNL     1      -3.620   5.253 -34.975  1.00  0.00     0.009 A 
HETATM   18  C   UNL     1      -4.828   4.859 -34.393  1.00  0.00     0.037 A 
ENDBRANCH  11  12
ENDBRANCH  10  11
ENDBRANCH   7  10
ENDBRANCH   5   6
ENDBRANCH   1   5
BRANCH   2  19
HETATM   19  N   UNL     1      -7.473   0.360 -32.169  1.00  0.00    -0.166 NA
HETATM   20  C   UNL     1      -6.273  -0.120 -32.127  1.00  0.00     0.157 A 
HETATM   21  C   UNL     1      -5.083   0.366 -31.294  1.00  0.00     0.277 A 
HETATM   22  C   UNL     1      -5.787  -1.265 -32.886  1.00  0.00     0.028 A 
HETATM   23  O   UNL     1      -5.108   1.327 -30.553  1.00  0.00    -0.266 OA
HETATM   24  N   UNL     1      -4.049  -0.495 -31.587  1.00  0.00    -0.321 N 
HETATM   25  C   UNL     1      -4.453  -1.447 -32.521  1.00  0.00     0.048 A 
HETATM   26  H   UNL     1      -3.129  -0.417 -31.178  1.00  0.00     0.169 HD
HETATM   27  C   UNL     1      -3.694  -2.459 -33.066  1.00  0.00     0.032 A 
HETATM   28  C   UNL     1      -4.316  -3.293 -34.004  1.00  0.00     0.021 A 
HETATM   29  C   UNL     1      -5.665  -3.096 -34.366  1.00  0.00     0.012 A 
HETATM   30 BR   UNL     1      -6.456  -4.247 -35.644  1.00  0.00    -0.051 Br
HETATM   31  C   UNL     1      -6.426  -2.070 -33.806  1.00  0.00     0.035 A 
ENDBRANCH   2  19
TORSDOF 6
ENDMDL
