MODEL 1
REMARK VINA RESULT:      -9.5      0.000      0.000
REMARK  3 active torsions:
REMARK  status: ('A' for Active; 'I' for Inactive)
REMARK    1  A    between atoms: C_9  and  C_10 
REMARK       I    between atoms: C_10  and  N_11 
REMARK    2  A    between atoms: N_11  and  C_12 
REMARK    3  A    between atoms: C_14  and  C_15 
ROOT
HETATM    1  C   UNL     1      -4.572   2.554 -32.625  1.00  0.00     0.252 C 
HETATM    2  N   UNL     1      -3.213   2.758 -32.432  1.00  0.00    -0.325 N 
HETATM    3  O   UNL     1      -5.401   3.418 -32.892  1.00  0.00    -0.270 OA
HETATM    4  H   UNL     1      -2.704   1.966 -32.051  1.00  0.00     0.169 HD
ENDROOT
BRANCH   2   5
HETATM    5  C   UNL     1      -2.494   3.954 -32.634  1.00  0.00     0.035 A 
HETATM    6  C   UNL     1      -2.001   4.743 -31.588  1.00  0.00     0.042 A 
HETATM    7  C   UNL     1      -1.319   5.948 -31.832  1.00  0.00    -0.021 A 
HETATM    8  C   UNL     1      -1.132   6.350 -33.160  1.00  0.00     0.012 A 
HETATM    9  C   UNL     1      -1.623   5.573 -34.212  1.00  0.00     0.003 A 
HETATM   10  C   UNL     1      -2.305   4.383 -33.949  1.00  0.00     0.029 A 
BRANCH   7  11
HETATM   11  C   UNL     1      -0.832   6.745 -30.712  1.00  0.00     0.010 A 
HETATM   12  C   UNL     1      -1.500   7.687 -29.889  1.00  0.00     0.152 A 
HETATM   13  N   UNL     1      -0.702   8.235 -28.969  1.00  0.00    -0.187 NA
HETATM   14  N   UNL     1       0.483   7.649 -29.196  1.00  0.00    -0.289 N 
HETATM   15  H   UNL     1       1.267   7.914 -28.610  1.00  0.00     0.188 HD
HETATM   16  C   UNL     1       0.459   6.754 -30.226  1.00  0.00     0.123 A 
ENDBRANCH   7  11
ENDBRANCH   2   5
BRANCH   1  17
HETATM   17  C   UNL     1      -4.950   1.070 -32.589  1.00  0.00     0.225 C 
HETATM   18  C   UNL     1      -3.708   0.174 -32.565  1.00  0.00     0.083 C 
HETATM   19  C   UNL     1      -4.303  -1.026 -33.193  1.00  0.00    -0.021 A 
HETATM   20  C   UNL     1      -5.475  -0.670 -33.836  1.00  0.00     0.076 A 
HETATM   21  C   UNL     1      -3.829  -2.323 -33.235  1.00  0.00     0.017 A 
HETATM   22  C   UNL     1      -6.221  -1.588 -34.543  1.00  0.00     0.044 A 
HETATM   23  O   UNL     1      -5.795   0.660 -33.690  1.00  0.00    -0.336 OA
HETATM   24  C   UNL     1      -5.782  -2.925 -34.580  1.00  0.00    -0.053 A 
HETATM   25  C   UNL     1      -4.571  -3.292 -33.933  1.00  0.00    -0.055 A 
HETATM   26  C   UNL     1      -6.601  -3.943 -35.327  1.00  0.00     0.049 C 
HETATM   27  C   UNL     1      -4.074  -4.713 -33.944  1.00  0.00     0.049 C 
ENDBRANCH   1  17
TORSDOF 3
ENDMDL
MODEL 2
REMARK VINA RESULT:      -9.2      2.304      3.007
REMARK  3 active torsions:
REMARK  status: ('A' for Active; 'I' for Inactive)
REMARK    1  A    between atoms: C_9  and  C_10 
REMARK       I    between atoms: C_10  and  N_11 
REMARK    2  A    between atoms: N_11  and  C_12 
REMARK    3  A    between atoms: C_14  and  C_15 
ROOT
HETATM    1  C   UNL     1      -6.455   1.809 -31.799  1.00  0.00     0.252 C 
HETATM    2  N   UNL     1      -5.397   2.340 -31.076  1.00  0.00    -0.325 N 
HETATM    3  O   UNL     1      -7.368   2.445 -32.316  1.00  0.00    -0.270 OA
HETATM    4  H   UNL     1      -4.828   1.663 -30.575  1.00  0.00     0.169 HD
ENDROOT
BRANCH   2   5
HETATM    5  C   UNL     1      -5.080   3.704 -30.905  1.00  0.00     0.035 A 
HETATM    6  C   UNL     1      -4.274   4.425 -31.793  1.00  0.00     0.042 A 
HETATM    7  C   UNL     1      -3.953   5.774 -31.567  1.00  0.00    -0.021 A 
HETATM    8  C   UNL     1      -4.468   6.399 -30.424  1.00  0.00     0.012 A 
HETATM    9  C   UNL     1      -5.271   5.688 -29.528  1.00  0.00     0.003 A 
HETATM   10  C   UNL     1      -5.572   4.346 -29.766  1.00  0.00     0.029 A 
BRANCH   7  11
HETATM   11  C   UNL     1      -3.100   6.485 -32.512  1.00  0.00     0.010 A 
HETATM   12  C   UNL     1      -2.311   7.652 -32.347  1.00  0.00     0.152 A 
HETATM   13  N   UNL     1      -1.677   8.015 -33.465  1.00  0.00    -0.187 NA
HETATM   14  N   UNL     1      -2.057   7.087 -34.355  1.00  0.00    -0.289 N 
HETATM   15  H   UNL     1      -1.700   7.156 -35.301  1.00  0.00     0.188 HD
HETATM   16  C   UNL     1      -2.907   6.152 -33.837  1.00  0.00     0.123 A 
ENDBRANCH   7  11
ENDBRANCH   2   5
BRANCH   1  17
HETATM   17  C   UNL     1      -6.320   0.297 -32.006  1.00  0.00     0.225 C 
HETATM   18  C   UNL     1      -4.852  -0.127 -32.111  1.00  0.00     0.083 C 
HETATM   19  C   UNL     1      -5.042  -1.343 -32.930  1.00  0.00    -0.021 A 
HETATM   20  C   UNL     1      -6.292  -1.302 -33.522  1.00  0.00     0.076 A 
HETATM   21  C   UNL     1      -4.169  -2.385 -33.174  1.00  0.00     0.017 A 
HETATM   22  C   UNL     1      -6.721  -2.295 -34.377  1.00  0.00     0.044 A 
HETATM   23  O   UNL     1      -7.027  -0.195 -33.169  1.00  0.00    -0.336 OA
HETATM   24  C   UNL     1      -5.867  -3.386 -34.622  1.00  0.00    -0.053 A 
HETATM   25  C   UNL     1      -4.577  -3.425 -34.027  1.00  0.00    -0.055 A 
HETATM   26  C   UNL     1      -6.335  -4.490 -35.533  1.00  0.00     0.049 C 
HETATM   27  C   UNL     1      -3.640  -4.580 -34.260  1.00  0.00     0.049 C 
ENDBRANCH   1  17
TORSDOF 3
ENDMDL
MODEL 3
REMARK VINA RESULT:      -9.1      2.993      9.146
REMARK  3 active torsions:
REMARK  status: ('A' for Active; 'I' for Inactive)
REMARK    1  A    between atoms: C_9  and  C_10 
REMARK       I    between atoms: C_10  and  N_11 
REMARK    2  A    between atoms: N_11  and  C_12 
REMARK    3  A    between atoms: C_14  and  C_15 
ROOT
HETATM    1  C   UNL     1      -5.385   1.915 -31.453  1.00  0.00     0.252 C 
HETATM    2  N   UNL     1      -5.241   1.666 -32.810  1.00  0.00    -0.325 N 
HETATM    3  O   UNL     1      -6.046   1.248 -30.662  1.00  0.00    -0.270 OA
HETATM    4  H   UNL     1      -4.802   2.410 -33.345  1.00  0.00     0.169 HD
ENDROOT
BRANCH   2   5
HETATM    5  C   UNL     1      -5.701   0.541 -33.524  1.00  0.00     0.035 A 
HETATM    6  C   UNL     1      -5.107  -0.724 -33.436  1.00  0.00     0.042 A 
HETATM    7  C   UNL     1      -5.576  -1.812 -34.192  1.00  0.00    -0.021 A 
HETATM    8  C   UNL     1      -6.667  -1.610 -35.045  1.00  0.00     0.012 A 
HETATM    9  C   UNL     1      -7.265  -0.351 -35.145  1.00  0.00     0.003 A 
HETATM   10  C   UNL     1      -6.781   0.720 -34.391  1.00  0.00     0.029 A 
BRANCH   7  11
HETATM   11  C   UNL     1      -4.921  -3.110 -34.077  1.00  0.00     0.010 A 
HETATM   12  C   UNL     1      -3.738  -3.490 -33.394  1.00  0.00     0.152 A 
HETATM   13  N   UNL     1      -3.443  -4.785 -33.541  1.00  0.00    -0.187 NA
HETATM   14  N   UNL     1      -4.432  -5.242 -34.322  1.00  0.00    -0.289 N 
HETATM   15  H   UNL     1      -4.422  -6.222 -34.582  1.00  0.00     0.188 HD
HETATM   16  C   UNL     1      -5.339  -4.283 -34.671  1.00  0.00     0.123 A 
ENDBRANCH   7  11
ENDBRANCH   2   5
BRANCH   1  17
HETATM   17  C   UNL     1      -4.514   3.082 -30.977  1.00  0.00     0.225 C 
HETATM   18  C   UNL     1      -5.090   4.430 -31.422  1.00  0.00     0.083 C 
HETATM   19  C   UNL     1      -3.827   5.198 -31.450  1.00  0.00    -0.021 A 
HETATM   20  C   UNL     1      -2.759   4.320 -31.471  1.00  0.00     0.076 A 
HETATM   21  C   UNL     1      -3.630   6.565 -31.498  1.00  0.00     0.017 A 
HETATM   22  C   UNL     1      -1.456   4.764 -31.539  1.00  0.00     0.044 A 
HETATM   23  O   UNL     1      -3.139   2.998 -31.417  1.00  0.00    -0.336 OA
HETATM   24  C   UNL     1      -1.220   6.151 -31.559  1.00  0.00    -0.053 A 
HETATM   25  C   UNL     1      -2.314   7.057 -31.552  1.00  0.00    -0.055 A 
HETATM   26  C   UNL     1       0.200   6.650 -31.607  1.00  0.00     0.049 C 
HETATM   27  C   UNL     1      -2.100   8.547 -31.564  1.00  0.00     0.049 C 
ENDBRANCH   1  17
TORSDOF 3
ENDMDL
MODEL 4
REMARK VINA RESULT:      -8.9      2.511      9.348
REMARK  3 active torsions:
REMARK  status: ('A' for Active; 'I' for Inactive)
REMARK    1  A    between atoms: C_9  and  C_10 
REMARK       I    between atoms: C_10  and  N_11 
REMARK    2  A    between atoms: N_11  and  C_12 
REMARK    3  A    between atoms: C_14  and  C_15 
ROOT
HETATM    1  C   UNL     1      -2.061   4.649 -32.886  1.00  0.00     0.252 C 
HETATM    2  N   UNL     1      -2.844   3.902 -32.019  1.00  0.00    -0.325 N 
HETATM    3  O   UNL     1      -1.952   4.472 -34.096  1.00  0.00    -0.270 OA
HETATM    4  H   UNL     1      -2.685   4.074 -31.030  1.00  0.00     0.169 HD
ENDROOT
BRANCH   2   5
HETATM    5  C   UNL     1      -3.767   2.892 -32.359  1.00  0.00     0.035 A 
HETATM    6  C   UNL     1      -3.457   1.527 -32.345  1.00  0.00     0.042 A 
HETATM    7  C   UNL     1      -4.396   0.554 -32.726  1.00  0.00    -0.021 A 
HETATM    8  C   UNL     1      -5.671   0.977 -33.120  1.00  0.00     0.012 A 
HETATM    9  C   UNL     1      -5.991   2.337 -33.143  1.00  0.00     0.003 A 
HETATM   10  C   UNL     1      -5.042   3.289 -32.768  1.00  0.00     0.029 A 
BRANCH   7  11
HETATM   11  C   UNL     1      -4.026  -0.857 -32.707  1.00  0.00     0.010 A 
HETATM   12  C   UNL     1      -4.327  -1.903 -33.616  1.00  0.00     0.152 A 
HETATM   13  N   UNL     1      -3.823  -3.081 -33.241  1.00  0.00    -0.187 NA
HETATM   14  N   UNL     1      -3.197  -2.800 -32.089  1.00  0.00    -0.289 N 
HETATM   15  H   UNL     1      -2.730  -3.556 -31.601  1.00  0.00     0.188 HD
HETATM   16  C   UNL     1      -3.290  -1.487 -31.725  1.00  0.00     0.123 A 
ENDBRANCH   7  11
ENDBRANCH   2   5
BRANCH   1  17
HETATM   17  C   UNL     1      -1.399   5.845 -32.194  1.00  0.00     0.225 C 
HETATM   18  C   UNL     1      -0.208   5.408 -31.334  1.00  0.00     0.083 C 
HETATM   19  C   UNL     1      -0.237   6.516 -30.356  1.00  0.00    -0.021 A 
HETATM   20  C   UNL     1      -1.470   7.142 -30.413  1.00  0.00     0.076 A 
HETATM   21  C   UNL     1       0.727   6.917 -29.452  1.00  0.00     0.017 A 
HETATM   22  C   UNL     1      -1.790   8.190 -29.577  1.00  0.00     0.044 A 
HETATM   23  O   UNL     1      -2.306   6.614 -31.370  1.00  0.00    -0.336 OA
HETATM   24  C   UNL     1      -0.818   8.643 -28.666  1.00  0.00    -0.053 A 
HETATM   25  C   UNL     1       0.444   7.993 -28.594  1.00  0.00    -0.055 A 
HETATM   26  C   UNL     1      -1.145   9.804 -27.765  1.00  0.00     0.049 C 
HETATM   27  C   UNL     1       1.511   8.455 -27.637  1.00  0.00     0.049 C 
ENDBRANCH   1  17
TORSDOF 3
ENDMDL
MODEL 5
REMARK VINA RESULT:      -8.8      1.193      1.626
REMARK  3 active torsions:
REMARK  status: ('A' for Active; 'I' for Inactive)
REMARK    1  A    between atoms: C_9  and  C_10 
REMARK       I    between atoms: C_10  and  N_11 
REMARK    2  A    between atoms: N_11  and  C_12 
REMARK    3  A    between atoms: C_14  and  C_15 
ROOT
HETATM    1  C   UNL     1      -4.042   3.357 -31.198  1.00  0.00     0.252 C 
HETATM    2  N   UNL     1      -2.692   3.524 -31.470  1.00  0.00    -0.325 N 
HETATM    3  O   UNL     1      -4.843   4.251 -30.938  1.00  0.00    -0.270 OA
HETATM    4  H   UNL     1      -2.144   2.670 -31.493  1.00  0.00     0.169 HD
ENDROOT
BRANCH   2   5
HETATM    5  C   UNL     1      -2.001   4.742 -31.639  1.00  0.00     0.035 A 
HETATM    6  C   UNL     1      -1.595   5.552 -30.572  1.00  0.00     0.042 A 
HETATM    7  C   UNL     1      -0.939   6.776 -30.785  1.00  0.00    -0.021 A 
HETATM    8  C   UNL     1      -0.688   7.177 -32.103  1.00  0.00     0.012 A 
HETATM    9  C   UNL     1      -1.093   6.380 -33.176  1.00  0.00     0.003 A 
HETATM   10  C   UNL     1      -1.750   5.170 -32.944  1.00  0.00     0.029 A 
BRANCH   7  11
HETATM   11  C   UNL     1      -0.542   7.594 -29.644  1.00  0.00     0.010 A 
HETATM   12  C   UNL     1       0.638   7.574 -28.859  1.00  0.00     0.152 A 
HETATM   13  N   UNL     1       0.626   8.476 -27.874  1.00  0.00    -0.187 NA
HETATM   14  N   UNL     1      -0.564   9.078 -28.018  1.00  0.00    -0.289 N 
HETATM   15  H   UNL     1      -0.810   9.814 -27.366  1.00  0.00     0.188 HD
HETATM   16  C   UNL     1      -1.300   8.588 -29.059  1.00  0.00     0.123 A 
ENDBRANCH   7  11
ENDBRANCH   2   5
BRANCH   1  17
HETATM   17  C   UNL     1      -4.497   1.905 -31.369  1.00  0.00     0.225 C 
HETATM   18  C   UNL     1      -3.313   0.975 -31.652  1.00  0.00     0.083 C 
HETATM   19  C   UNL     1      -4.044  -0.074 -32.396  1.00  0.00    -0.021 A 
HETATM   20  C   UNL     1      -5.260   0.431 -32.819  1.00  0.00     0.076 A 
HETATM   21  C   UNL     1      -3.652  -1.359 -32.718  1.00  0.00     0.017 A 
HETATM   22  C   UNL     1      -6.134  -0.321 -33.574  1.00  0.00     0.044 A 
HETATM   23  O   UNL     1      -5.486   1.725 -32.410  1.00  0.00    -0.336 OA
HETATM   24  C   UNL     1      -5.779  -1.645 -33.893  1.00  0.00    -0.053 A 
HETATM   25  C   UNL     1      -4.524  -2.163 -33.473  1.00  0.00    -0.055 A 
HETATM   26  C   UNL     1      -6.735  -2.486 -34.695  1.00  0.00     0.049 C 
HETATM   27  C   UNL     1      -4.113  -3.577 -33.788  1.00  0.00     0.049 C 
ENDBRANCH   1  17
TORSDOF 3
ENDMDL
MODEL 6
REMARK VINA RESULT:      -8.6      2.864      9.537
REMARK  3 active torsions:
REMARK  status: ('A' for Active; 'I' for Inactive)
REMARK    1  A    between atoms: C_9  and  C_10 
REMARK       I    between atoms: C_10  and  N_11 
REMARK    2  A    between atoms: N_11  and  C_12 
REMARK    3  A    between atoms: C_14  and  C_15 
ROOT
HETATM    1  C   UNL     1      -4.607   3.081 -32.921  1.00  0.00     0.252 C 
HETATM    2  N   UNL     1      -4.797   1.725 -32.699  1.00  0.00    -0.325 N 
HETATM    3  O   UNL     1      -5.035   3.724 -33.875  1.00  0.00    -0.270 OA
HETATM    4  H   UNL     1      -4.232   1.322 -31.957  1.00  0.00     0.169 HD
ENDROOT
BRANCH   2   5
HETATM    5  C   UNL     1      -5.620   0.848 -33.435  1.00  0.00     0.035 A 
HETATM    6  C   UNL     1      -5.345  -0.515 -33.595  1.00  0.00     0.042 A 
HETATM    7  C   UNL     1      -6.173  -1.348 -34.367  1.00  0.00    -0.021 A 
HETATM    8  C   UNL     1      -7.301  -0.785 -34.978  1.00  0.00     0.012 A 
HETATM    9  C   UNL     1      -7.583   0.575 -34.829  1.00  0.00     0.003 A 
HETATM   10  C   UNL     1      -6.744   1.388 -34.065  1.00  0.00     0.029 A 
BRANCH   7  11
HETATM   11  C   UNL     1      -5.844  -2.761 -34.516  1.00  0.00     0.010 A 
HETATM   12  C   UNL     1      -6.649  -3.861 -34.908  1.00  0.00     0.152 A 
HETATM   13  N   UNL     1      -5.986  -5.020 -34.905  1.00  0.00    -0.187 NA
HETATM   14  N   UNL     1      -4.753  -4.673 -34.509  1.00  0.00    -0.289 N 
HETATM   15  H   UNL     1      -4.054  -5.403 -34.424  1.00  0.00     0.188 HD
HETATM   16  C   UNL     1      -4.616  -3.337 -34.262  1.00  0.00     0.123 A 
ENDBRANCH   7  11
ENDBRANCH   2   5
BRANCH   1  17
HETATM   17  C   UNL     1      -3.880   3.767 -31.761  1.00  0.00     0.225 C 
HETATM   18  C   UNL     1      -4.465   5.154 -31.473  1.00  0.00     0.083 C 
HETATM   19  C   UNL     1      -3.257   5.774 -30.887  1.00  0.00    -0.021 A 
HETATM   20  C   UNL     1      -2.148   5.022 -31.229  1.00  0.00     0.076 A 
HETATM   21  C   UNL     1      -3.135   6.934 -30.148  1.00  0.00     0.017 A 
HETATM   22  C   UNL     1      -0.876   5.392 -30.849  1.00  0.00     0.044 A 
HETATM   23  O   UNL     1      -2.454   3.901 -31.965  1.00  0.00    -0.336 OA
HETATM   24  C   UNL     1      -0.719   6.553 -30.069  1.00  0.00    -0.053 A 
HETATM   25  C   UNL     1      -1.855   7.337 -29.728  1.00  0.00    -0.055 A 
HETATM   26  C   UNL     1       0.662   6.955 -29.625  1.00  0.00     0.049 C 
HETATM   27  C   UNL     1      -1.727   8.580 -28.888  1.00  0.00     0.049 C 
ENDBRANCH   1  17
TORSDOF 3
ENDMDL
MODEL 7
REMARK VINA RESULT:      -8.5      2.236      3.180
REMARK  3 active torsions:
REMARK  status: ('A' for Active; 'I' for Inactive)
REMARK    1  A    between atoms: C_9  and  C_10 
REMARK       I    between atoms: C_10  and  N_11 
REMARK    2  A    between atoms: N_11  and  C_12 
REMARK    3  A    between atoms: C_14  and  C_15 
ROOT
HETATM    1  C   UNL     1      -6.259   2.534 -33.043  1.00  0.00     0.252 C 
HETATM    2  N   UNL     1      -5.409   2.716 -31.962  1.00  0.00    -0.325 N 
HETATM    3  O   UNL     1      -7.132   3.313 -33.415  1.00  0.00    -0.270 OA
HETATM    4  H   UNL     1      -4.866   1.900 -31.693  1.00  0.00     0.169 HD
ENDROOT
BRANCH   2   5
HETATM    5  C   UNL     1      -5.279   3.872 -31.165  1.00  0.00     0.035 A 
HETATM    6  C   UNL     1      -4.498   4.975 -31.528  1.00  0.00     0.042 A 
HETATM    7  C   UNL     1      -4.367   6.093 -30.687  1.00  0.00    -0.021 A 
HETATM    8  C   UNL     1      -5.046   6.090 -29.463  1.00  0.00     0.012 A 
HETATM    9  C   UNL     1      -5.825   4.992 -29.087  1.00  0.00     0.003 A 
HETATM   10  C   UNL     1      -5.937   3.887 -29.933  1.00  0.00     0.029 A 
BRANCH   7  11
HETATM   11  C   UNL     1      -3.534   7.217 -31.100  1.00  0.00     0.010 A 
HETATM   12  C   UNL     1      -3.750   8.615 -30.994  1.00  0.00     0.152 A 
HETATM   13  N   UNL     1      -2.753   9.338 -31.513  1.00  0.00    -0.187 NA
HETATM   14  N   UNL     1      -1.894   8.409 -31.957  1.00  0.00    -0.289 N 
HETATM   15  H   UNL     1      -1.040   8.723 -32.405  1.00  0.00     0.188 HD
HETATM   16  C   UNL     1      -2.313   7.129 -31.737  1.00  0.00     0.123 A 
ENDBRANCH   7  11
ENDBRANCH   2   5
BRANCH   1  17
HETATM   17  C   UNL     1      -5.926   1.272 -33.844  1.00  0.00     0.225 C 
HETATM   18  C   UNL     1      -7.161   0.385 -34.036  1.00  0.00     0.083 C 
HETATM   19  C   UNL     1      -6.467  -0.913 -34.176  1.00  0.00    -0.021 A 
HETATM   20  C   UNL     1      -5.178  -0.796 -33.690  1.00  0.00     0.076 A 
HETATM   21  C   UNL     1      -6.946  -2.118 -34.651  1.00  0.00     0.017 A 
HETATM   22  C   UNL     1      -4.314  -1.869 -33.660  1.00  0.00     0.044 A 
HETATM   23  O   UNL     1      -4.871   0.474 -33.257  1.00  0.00    -0.336 OA
HETATM   24  C   UNL     1      -4.760  -3.104 -34.165  1.00  0.00    -0.053 A 
HETATM   25  C   UNL     1      -6.089  -3.233 -34.652  1.00  0.00    -0.055 A 
HETATM   26  C   UNL     1      -3.818  -4.279 -34.163  1.00  0.00     0.049 C 
HETATM   27  C   UNL     1      -6.598  -4.536 -35.209  1.00  0.00     0.049 C 
ENDBRANCH   1  17
TORSDOF 3
ENDMDL
MODEL 8
REMARK VINA RESULT:      -8.1      7.008      9.169
REMARK  3 active torsions:
REMARK  status: ('A' for Active; 'I' for Inactive)
REMARK    1  A    between atoms: C_9  and  C_10 
REMARK       I    between atoms: C_10  and  N_11 
REMARK    2  A    between atoms: N_11  and  C_12 
REMARK    3  A    between atoms: C_14  and  C_15 
ROOT
HETATM    1  C   UNL     1     -10.962   0.835 -33.631  1.00  0.00     0.252 C 
HETATM    2  N   UNL     1      -9.880   1.450 -34.242  1.00  0.00    -0.325 N 
HETATM    3  O   UNL     1     -10.935  -0.221 -33.004  1.00  0.00    -0.270 OA
HETATM    4  H   UNL     1     -10.109   2.223 -34.860  1.00  0.00     0.169 HD
ENDROOT
BRANCH   2   5
HETATM    5  C   UNL     1      -8.524   1.072 -34.155  1.00  0.00     0.035 A 
HETATM    6  C   UNL     1      -7.613   1.666 -33.274  1.00  0.00     0.042 A 
HETATM    7  C   UNL     1      -6.261   1.284 -33.244  1.00  0.00    -0.021 A 
HETATM    8  C   UNL     1      -5.833   0.277 -34.119  1.00  0.00     0.012 A 
HETATM    9  C   UNL     1      -6.732  -0.320 -35.006  1.00  0.00     0.003 A 
HETATM   10  C   UNL     1      -8.070   0.079 -35.027  1.00  0.00     0.029 A 
BRANCH   7  11
HETATM   11  C   UNL     1      -5.343   1.937 -32.318  1.00  0.00     0.010 A 
HETATM   12  C   UNL     1      -3.930   1.867 -32.214  1.00  0.00     0.152 A 
HETATM   13  N   UNL     1      -3.444   2.601 -31.210  1.00  0.00    -0.187 NA
HETATM   14  N   UNL     1      -4.540   3.144 -30.661  1.00  0.00    -0.289 N 
HETATM   15  H   UNL     1      -4.422   3.753 -29.859  1.00  0.00     0.188 HD
HETATM   16  C   UNL     1      -5.699   2.778 -31.284  1.00  0.00     0.123 A 
ENDBRANCH   7  11
ENDBRANCH   2   5
BRANCH   1  17
HETATM   17  C   UNL     1     -12.236   1.681 -33.709  1.00  0.00     0.225 C 
HETATM   18  C   UNL     1     -12.103   2.974 -32.896  1.00  0.00     0.083 C 
HETATM   19  C   UNL     1     -13.536   3.186 -32.602  1.00  0.00    -0.021 A 
HETATM   20  C   UNL     1     -14.224   2.005 -32.814  1.00  0.00     0.076 A 
HETATM   21  C   UNL     1     -14.181   4.317 -32.140  1.00  0.00     0.017 A 
HETATM   22  C   UNL     1     -15.578   1.903 -32.578  1.00  0.00     0.044 A 
HETATM   23  O   UNL     1     -13.426   0.983 -33.274  1.00  0.00    -0.336 OA
HETATM   24  C   UNL     1     -16.271   3.045 -32.135  1.00  0.00    -0.053 A 
HETATM   25  C   UNL     1     -15.565   4.256 -31.903  1.00  0.00    -0.055 A 
HETATM   26  C   UNL     1     -17.755   2.954 -31.898  1.00  0.00     0.049 C 
HETATM   27  C   UNL     1     -16.274   5.501 -31.438  1.00  0.00     0.049 C 
ENDBRANCH   1  17
TORSDOF 3
ENDMDL
MODEL 9
REMARK VINA RESULT:      -8.1      7.434     10.472
REMARK  3 active torsions:
REMARK  status: ('A' for Active; 'I' for Inactive)
REMARK    1  A    between atoms: C_9  and  C_10 
REMARK       I    between atoms: C_10  and  N_11 
REMARK    2  A    between atoms: N_11  and  C_12 
REMARK    3  A    between atoms: C_14  and  C_15 
ROOT
HETATM    1  C   UNL     1     -11.255   0.635 -33.265  1.00  0.00     0.252 C 
HETATM    2  N   UNL     1     -10.063   1.341 -33.189  1.00  0.00    -0.325 N 
HETATM    3  O   UNL     1     -11.388  -0.575 -33.106  1.00  0.00    -0.270 OA
HETATM    4  H   UNL     1     -10.106   2.302 -33.516  1.00  0.00     0.169 HD
ENDROOT
BRANCH   2   5
HETATM    5  C   UNL     1      -8.805   0.850 -32.785  1.00  0.00     0.035 A 
HETATM    6  C   UNL     1      -8.093  -0.123 -33.495  1.00  0.00     0.042 A 
HETATM    7  C   UNL     1      -6.857  -0.612 -33.039  1.00  0.00    -0.021 A 
HETATM    8  C   UNL     1      -6.337  -0.097 -31.845  1.00  0.00     0.012 A 
HETATM    9  C   UNL     1      -7.041   0.872 -31.125  1.00  0.00     0.003 A 
HETATM   10  C   UNL     1      -8.271   1.339 -31.591  1.00  0.00     0.029 A 
BRANCH   7  11
HETATM   11  C   UNL     1      -6.154  -1.635 -33.805  1.00  0.00     0.010 A 
HETATM   12  C   UNL     1      -4.771  -1.936 -33.891  1.00  0.00     0.152 A 
HETATM   13  N   UNL     1      -4.507  -2.944 -34.727  1.00  0.00    -0.187 NA
HETATM   14  N   UNL     1      -5.718  -3.294 -35.184  1.00  0.00    -0.289 N 
HETATM   15  H   UNL     1      -5.776  -4.054 -35.853  1.00  0.00     0.188 HD
HETATM   16  C   UNL     1      -6.734  -2.543 -34.666  1.00  0.00     0.123 A 
ENDBRANCH   7  11
ENDBRANCH   2   5
BRANCH   1  17
HETATM   17  C   UNL     1     -12.466   1.551 -33.460  1.00  0.00     0.225 C 
HETATM   18  C   UNL     1     -12.316   2.856 -32.672  1.00  0.00     0.083 C 
HETATM   19  C   UNL     1     -13.752   3.159 -32.493  1.00  0.00    -0.021 A 
HETATM   20  C   UNL     1     -14.492   2.014 -32.727  1.00  0.00     0.076 A 
HETATM   21  C   UNL     1     -14.361   4.338 -32.109  1.00  0.00     0.017 A 
HETATM   22  C   UNL     1     -15.864   1.997 -32.591  1.00  0.00     0.044 A 
HETATM   23  O   UNL     1     -13.725   0.935 -33.099  1.00  0.00    -0.336 OA
HETATM   24  C   UNL     1     -16.518   3.189 -32.231  1.00  0.00    -0.053 A 
HETATM   25  C   UNL     1     -15.760   4.365 -31.975  1.00  0.00    -0.055 A 
HETATM   26  C   UNL     1     -18.018   3.192 -32.105  1.00  0.00     0.049 C 
HETATM   27  C   UNL     1     -16.426   5.661 -31.596  1.00  0.00     0.049 C 
ENDBRANCH   1  17
TORSDOF 3
ENDMDL
MODEL 10
REMARK VINA RESULT:      -8.1      2.476      9.369
REMARK  3 active torsions:
REMARK  status: ('A' for Active; 'I' for Inactive)
REMARK    1  A    between atoms: C_9  and  C_10 
REMARK       I    between atoms: C_10  and  N_11 
REMARK    2  A    between atoms: N_11  and  C_12 
REMARK    3  A    between atoms: C_14  and  C_15 
ROOT
HETATM    1  C   UNL     1      -4.163   4.075 -32.863  1.00  0.00     0.252 C 
HETATM    2  N   UNL     1      -4.005   2.928 -32.099  1.00  0.00    -0.325 N 
HETATM    3  O   UNL     1      -5.027   4.262 -33.715  1.00  0.00    -0.270 OA
HETATM    4  H   UNL     1      -3.140   2.874 -31.568  1.00  0.00     0.169 HD
ENDROOT
BRANCH   2   5
HETATM    5  C   UNL     1      -4.869   1.814 -32.044  1.00  0.00     0.035 A 
HETATM    6  C   UNL     1      -4.708   0.674 -32.839  1.00  0.00     0.042 A 
HETATM    7  C   UNL     1      -5.612  -0.400 -32.778  1.00  0.00    -0.021 A 
HETATM    8  C   UNL     1      -6.692  -0.313 -31.891  1.00  0.00     0.012 A 
HETATM    9  C   UNL     1      -6.865   0.823 -31.095  1.00  0.00     0.003 A 
HETATM   10  C   UNL     1      -5.960   1.883 -31.175  1.00  0.00     0.029 A 
BRANCH   7  11
HETATM   11  C   UNL     1      -5.413  -1.565 -33.633  1.00  0.00     0.010 A 
HETATM   12  C   UNL     1      -6.292  -2.203 -34.544  1.00  0.00     0.152 A 
HETATM   13  N   UNL     1      -5.748  -3.271 -35.134  1.00  0.00    -0.187 NA
HETATM   14  N   UNL     1      -4.517  -3.326 -34.604  1.00  0.00    -0.289 N 
HETATM   15  H   UNL     1      -3.901  -4.074 -34.902  1.00  0.00     0.188 HD
HETATM   16  C   UNL     1      -4.268  -2.332 -33.702  1.00  0.00     0.123 A 
ENDBRANCH   7  11
ENDBRANCH   2   5
BRANCH   1  17
HETATM   17  C   UNL     1      -3.193   5.187 -32.454  1.00  0.00     0.225 C 
HETATM   18  C   UNL     1      -2.007   4.634 -31.658  1.00  0.00     0.083 C 
HETATM   19  C   UNL     1      -1.687   5.853 -30.884  1.00  0.00    -0.021 A 
HETATM   20  C   UNL     1      -2.769   6.714 -30.922  1.00  0.00     0.076 A 
HETATM   21  C   UNL     1      -0.550   6.164 -30.164  1.00  0.00     0.017 A 
HETATM   22  C   UNL     1      -2.762   7.916 -30.249  1.00  0.00     0.044 A 
HETATM   23  O   UNL     1      -3.813   6.245 -31.685  1.00  0.00    -0.336 OA
HETATM   24  C   UNL     1      -1.608   8.277 -29.530  1.00  0.00    -0.053 A 
HETATM   25  C   UNL     1      -0.499   7.389 -29.476  1.00  0.00    -0.055 A 
HETATM   26  C   UNL     1      -1.577   9.600 -28.811  1.00  0.00     0.049 C 
HETATM   27  C   UNL     1       0.756   7.745 -28.725  1.00  0.00     0.049 C 
ENDBRANCH   1  17
TORSDOF 3
ENDMDL
