MODEL 1
REMARK VINA RESULT:      -6.9      0.000      0.000
REMARK  5 active torsions:
REMARK  status: ('A' for Active; 'I' for Inactive)
REMARK    1  A    between atoms: C_2  and  N_3 
REMARK    2  A    between atoms: N_3  and  C_6 
REMARK    3  A    between atoms: C_6  and  C_7 
REMARK    4  A    between atoms: C_8  and  N_9 
REMARK       I    between atoms: N_9  and  C_10 
REMARK    5  A    between atoms: C_10  and  C_11 
ROOT
HETATM    1  C   UNL     1      -6.086   1.869 -31.910  1.00  0.00    -0.006 A 
HETATM    2  C   UNL     1      -5.132   0.917 -32.332  1.00  0.00     0.043 A 
HETATM    3  C   UNL     1      -3.764   1.220 -32.152  1.00  0.00     0.030 A 
HETATM    4  C   UNL     1      -3.330   2.430 -31.611  1.00  0.00     0.002 A 
HETATM    5  C   UNL     1      -4.260   3.376 -31.227  1.00  0.00     0.001 A 
HETATM    6  C   UNL     1      -5.618   3.097 -31.369  1.00  0.00     0.011 A 
ENDROOT
BRANCH   2   7
HETATM    7  N   UNL     1      -5.331  -0.345 -32.944  1.00  0.00    -0.321 N 
HETATM    8  C   UNL     1      -5.874  -0.733 -34.147  1.00  0.00     0.274 C 
HETATM    9  O   UNL     1      -6.459  -0.009 -34.943  1.00  0.00    -0.266 OA
HETATM   10  H   UNL     1      -4.948  -1.144 -32.430  1.00  0.00     0.169 HD
BRANCH   8  11
HETATM   11  C   UNL     1      -5.779  -2.203 -34.407  1.00  0.00     0.126 A 
HETATM   12  N   UNL     1      -4.604  -2.774 -34.045  1.00  0.00    -0.231 NA
HETATM   13  C   UNL     1      -4.541  -4.114 -34.192  1.00  0.00     0.127 A 
HETATM   14 CL   UNL     1      -3.072  -4.812 -33.654  1.00  0.00    -0.062 Cl
HETATM   15  C   UNL     1      -5.561  -4.900 -34.705  1.00  0.00     0.044 A 
HETATM   16  C   UNL     1      -6.742  -4.272 -35.093  1.00  0.00     0.006 A 
HETATM   17  C   UNL     1      -6.864  -2.895 -34.934  1.00  0.00     0.037 A 
ENDBRANCH   8  11
ENDBRANCH   2   7
BRANCH   1  18
HETATM   18  C   UNL     1      -7.588   1.730 -31.945  1.00  0.00     0.273 C 
BRANCH  18  19
HETATM   19  N   UNL     1      -8.159   2.064 -33.276  1.00  0.00    -0.072 N 
HETATM   20  H   UNL     1      -7.427   2.067 -33.991  1.00  0.00     0.277 HD
HETATM   21  H   UNL     1      -8.475   3.039 -33.157  1.00  0.00     0.277 HD
BRANCH  19  22
HETATM   22  C   UNL     1      -9.349   1.285 -33.689  1.00  0.00     0.228 C 
HETATM   23  C   UNL     1      -9.487   0.089 -32.767  1.00  0.00     0.034 C 
ENDBRANCH  19  22
ENDBRANCH  18  19
ENDBRANCH   1  18
TORSDOF 5
ENDMDL
MODEL 2
REMARK VINA RESULT:      -6.8      2.937      6.460
REMARK  5 active torsions:
REMARK  status: ('A' for Active; 'I' for Inactive)
REMARK    1  A    between atoms: C_2  and  N_3 
REMARK    2  A    between atoms: N_3  and  C_6 
REMARK    3  A    between atoms: C_6  and  C_7 
REMARK    4  A    between atoms: C_8  and  N_9 
REMARK       I    between atoms: N_9  and  C_10 
REMARK    5  A    between atoms: C_10  and  C_11 
ROOT
HETATM    1  C   UNL     1      -4.776  -2.376 -33.881  1.00  0.00    -0.006 A 
HETATM    2  C   UNL     1      -6.138  -2.160 -34.187  1.00  0.00     0.043 A 
HETATM    3  C   UNL     1      -6.897  -3.252 -34.663  1.00  0.00     0.030 A 
HETATM    4  C   UNL     1      -6.342  -4.514 -34.872  1.00  0.00     0.002 A 
HETATM    5  C   UNL     1      -5.002  -4.721 -34.603  1.00  0.00     0.001 A 
HETATM    6  C   UNL     1      -4.233  -3.670 -34.110  1.00  0.00     0.011 A 
ENDROOT
BRANCH   2   7
HETATM    7  N   UNL     1      -6.900  -0.968 -34.102  1.00  0.00    -0.321 N 
HETATM    8  C   UNL     1      -7.186  -0.105 -33.070  1.00  0.00     0.274 C 
HETATM    9  O   UNL     1      -6.918  -0.278 -31.887  1.00  0.00    -0.266 OA
HETATM   10  H   UNL     1      -7.279  -0.628 -34.991  1.00  0.00     0.169 HD
BRANCH   8  11
HETATM   11  C   UNL     1      -7.970   1.099 -33.488  1.00  0.00     0.126 A 
HETATM   12  N   UNL     1      -9.228   0.840 -33.923  1.00  0.00    -0.231 NA
HETATM   13  C   UNL     1      -9.975   1.924 -34.218  1.00  0.00     0.127 A 
HETATM   14 CL   UNL     1     -11.581   1.565 -34.689  1.00  0.00    -0.062 Cl
HETATM   15  C   UNL     1      -9.529   3.235 -34.135  1.00  0.00     0.044 A 
HETATM   16  C   UNL     1      -8.221   3.458 -33.713  1.00  0.00     0.006 A 
HETATM   17  C   UNL     1      -7.422   2.371 -33.370  1.00  0.00     0.037 A 
ENDBRANCH   8  11
ENDBRANCH   2   7
BRANCH   1  18
HETATM   18  C   UNL     1      -3.803  -1.379 -33.304  1.00  0.00     0.273 C 
BRANCH  18  19
HETATM   19  N   UNL     1      -3.917  -1.260 -31.828  1.00  0.00    -0.072 N 
HETATM   20  H   UNL     1      -3.515  -2.082 -31.368  1.00  0.00     0.277 HD
HETATM   21  H   UNL     1      -4.937  -1.288 -31.669  1.00  0.00     0.277 HD
BRANCH  19  22
HETATM   22  C   UNL     1      -3.435   0.010 -31.236  1.00  0.00     0.228 C 
HETATM   23  C   UNL     1      -3.611   1.115 -32.259  1.00  0.00     0.034 C 
ENDBRANCH  19  22
ENDBRANCH  18  19
ENDBRANCH   1  18
TORSDOF 5
ENDMDL
MODEL 3
REMARK VINA RESULT:      -6.7      3.104      6.265
REMARK  5 active torsions:
REMARK  status: ('A' for Active; 'I' for Inactive)
REMARK    1  A    between atoms: C_2  and  N_3 
REMARK    2  A    between atoms: N_3  and  C_6 
REMARK    3  A    between atoms: C_6  and  C_7 
REMARK    4  A    between atoms: C_8  and  N_9 
REMARK       I    between atoms: N_9  and  C_10 
REMARK    5  A    between atoms: C_10  and  C_11 
ROOT
HETATM    1  C   UNL     1      -5.084  -2.147 -33.937  1.00  0.00    -0.006 A 
HETATM    2  C   UNL     1      -6.481  -2.149 -34.149  1.00  0.00     0.043 A 
HETATM    3  C   UNL     1      -7.083  -3.342 -34.609  1.00  0.00     0.030 A 
HETATM    4  C   UNL     1      -6.347  -4.492 -34.891  1.00  0.00     0.002 A 
HETATM    5  C   UNL     1      -4.976  -4.483 -34.714  1.00  0.00     0.001 A 
HETATM    6  C   UNL     1      -4.356  -3.329 -34.239  1.00  0.00     0.011 A 
ENDROOT
BRANCH   2   7
HETATM    7  N   UNL     1      -7.417  -1.100 -33.980  1.00  0.00    -0.321 N 
HETATM    8  C   UNL     1      -7.565   0.135 -34.569  1.00  0.00     0.274 C 
HETATM    9  O   UNL     1      -6.771   0.671 -35.333  1.00  0.00    -0.266 OA
HETATM   10  H   UNL     1      -8.186  -1.302 -33.334  1.00  0.00     0.169 HD
BRANCH   8  11
HETATM   11  C   UNL     1      -8.789   0.873 -34.126  1.00  0.00     0.126 A 
HETATM   12  N   UNL     1      -8.850   2.169 -34.521  1.00  0.00    -0.231 NA
HETATM   13  C   UNL     1      -9.989   2.818 -34.204  1.00  0.00     0.127 A 
HETATM   14 CL   UNL     1     -10.066   4.428 -34.784  1.00  0.00    -0.062 Cl
HETATM   15  C   UNL     1     -11.043   2.262 -33.495  1.00  0.00     0.044 A 
HETATM   16  C   UNL     1     -10.929   0.937 -33.081  1.00  0.00     0.006 A 
HETATM   17  C   UNL     1      -9.784   0.219 -33.410  1.00  0.00     0.037 A 
ENDBRANCH   8  11
ENDBRANCH   2   7
BRANCH   1  18
HETATM   18  C   UNL     1      -4.248  -1.015 -33.394  1.00  0.00     0.273 C 
BRANCH  18  19
HETATM   19  N   UNL     1      -4.441  -0.814 -31.934  1.00  0.00    -0.072 N 
HETATM   20  H   UNL     1      -3.548  -0.893 -31.439  1.00  0.00     0.277 HD
HETATM   21  H   UNL     1      -5.017  -1.626 -31.660  1.00  0.00     0.277 HD
BRANCH  19  22
HETATM   22  C   UNL     1      -5.202   0.393 -31.537  1.00  0.00     0.228 C 
HETATM   23  C   UNL     1      -6.414  -0.043 -30.738  1.00  0.00     0.034 C 
ENDBRANCH  19  22
ENDBRANCH  18  19
ENDBRANCH   1  18
TORSDOF 5
ENDMDL
MODEL 4
REMARK VINA RESULT:      -6.6      1.722      2.094
REMARK  5 active torsions:
REMARK  status: ('A' for Active; 'I' for Inactive)
REMARK    1  A    between atoms: C_2  and  N_3 
REMARK    2  A    between atoms: N_3  and  C_6 
REMARK    3  A    between atoms: C_6  and  C_7 
REMARK    4  A    between atoms: C_8  and  N_9 
REMARK       I    between atoms: N_9  and  C_10 
REMARK    5  A    between atoms: C_10  and  C_11 
ROOT
HETATM    1  C   UNL     1      -8.238   1.666 -32.195  1.00  0.00    -0.006 A 
HETATM    2  C   UNL     1      -7.210   0.730 -31.945  1.00  0.00     0.043 A 
HETATM    3  C   UNL     1      -6.406   0.913 -30.798  1.00  0.00     0.030 A 
HETATM    4  C   UNL     1      -6.570   1.995 -29.934  1.00  0.00     0.002 A 
HETATM    5  C   UNL     1      -7.554   2.930 -30.194  1.00  0.00     0.001 A 
HETATM    6  C   UNL     1      -8.379   2.764 -31.304  1.00  0.00     0.011 A 
ENDROOT
BRANCH   2   7
HETATM    7  N   UNL     1      -6.828  -0.409 -32.697  1.00  0.00    -0.321 N 
HETATM    8  C   UNL     1      -5.689  -0.738 -33.395  1.00  0.00     0.274 C 
HETATM    9  O   UNL     1      -4.745   0.006 -33.630  1.00  0.00    -0.266 OA
HETATM   10  H   UNL     1      -7.499  -1.183 -32.686  1.00  0.00     0.169 HD
BRANCH   8  11
HETATM   11  C   UNL     1      -5.707  -2.122 -33.963  1.00  0.00     0.126 A 
HETATM   12  N   UNL     1      -4.547  -2.810 -33.830  1.00  0.00    -0.231 NA
HETATM   13  C   UNL     1      -4.579  -4.089 -34.258  1.00  0.00     0.127 A 
HETATM   14 CL   UNL     1      -3.122  -4.953 -34.005  1.00  0.00    -0.062 Cl
HETATM   15  C   UNL     1      -5.682  -4.701 -34.835  1.00  0.00     0.044 A 
HETATM   16  C   UNL     1      -6.847  -3.950 -34.981  1.00  0.00     0.006 A 
HETATM   17  C   UNL     1      -6.869  -2.635 -34.528  1.00  0.00     0.037 A 
ENDBRANCH   8  11
ENDBRANCH   2   7
BRANCH   1  18
HETATM   18  C   UNL     1      -9.248   1.631 -33.315  1.00  0.00     0.273 C 
BRANCH  18  19
HETATM   19  N   UNL     1     -10.639   1.458 -32.822  1.00  0.00    -0.072 N 
HETATM   20  H   UNL     1     -10.821   2.083 -32.031  1.00  0.00     0.277 HD
HETATM   21  H   UNL     1     -10.640   0.493 -32.455  1.00  0.00     0.277 HD
BRANCH  19  22
HETATM   22  C   UNL     1     -11.707   1.519 -33.846  1.00  0.00     0.228 C 
HETATM   23  C   UNL     1     -12.645   0.347 -33.635  1.00  0.00     0.034 C 
ENDBRANCH  19  22
ENDBRANCH  18  19
ENDBRANCH   1  18
TORSDOF 5
ENDMDL
MODEL 5
REMARK VINA RESULT:      -6.6      3.786      6.543
REMARK  5 active torsions:
REMARK  status: ('A' for Active; 'I' for Inactive)
REMARK    1  A    between atoms: C_2  and  N_3 
REMARK    2  A    between atoms: N_3  and  C_6 
REMARK    3  A    between atoms: C_6  and  C_7 
REMARK    4  A    between atoms: C_8  and  N_9 
REMARK       I    between atoms: N_9  and  C_10 
REMARK    5  A    between atoms: C_10  and  C_11 
ROOT
HETATM    1  C   UNL     1      -6.493  -0.264 -33.160  1.00  0.00    -0.006 A 
HETATM    2  C   UNL     1      -7.557   0.481 -32.603  1.00  0.00     0.043 A 
HETATM    3  C   UNL     1      -7.438   0.915 -31.264  1.00  0.00     0.030 A 
HETATM    4  C   UNL     1      -6.332   0.606 -30.473  1.00  0.00     0.002 A 
HETATM    5  C   UNL     1      -5.304  -0.149 -31.005  1.00  0.00     0.001 A 
HETATM    6  C   UNL     1      -5.381  -0.572 -32.330  1.00  0.00     0.011 A 
ENDROOT
BRANCH   2   7
HETATM    7  N   UNL     1      -8.786   0.870 -33.191  1.00  0.00    -0.321 N 
HETATM    8  C   UNL     1     -10.066   0.375 -33.113  1.00  0.00     0.274 C 
HETATM    9  O   UNL     1     -10.405  -0.670 -32.570  1.00  0.00    -0.266 OA
HETATM   10  H   UNL     1      -8.749   1.730 -33.748  1.00  0.00     0.169 HD
BRANCH   8  11
HETATM   11  C   UNL     1     -11.078   1.194 -33.851  1.00  0.00     0.126 A 
HETATM   12  N   UNL     1     -12.331   0.676 -33.870  1.00  0.00    -0.231 NA
HETATM   13  C   UNL     1     -13.269   1.449 -34.455  1.00  0.00     0.127 A 
HETATM   14 CL   UNL     1     -14.853   0.801 -34.393  1.00  0.00    -0.062 Cl
HETATM   15  C   UNL     1     -13.022   2.680 -35.044  1.00  0.00     0.044 A 
HETATM   16  C   UNL     1     -11.716   3.164 -35.030  1.00  0.00     0.006 A 
HETATM   17  C   UNL     1     -10.720   2.414 -34.412  1.00  0.00     0.037 A 
ENDBRANCH   8  11
ENDBRANCH   2   7
BRANCH   1  18
HETATM   18  C   UNL     1      -6.380  -0.770 -34.577  1.00  0.00     0.273 C 
BRANCH  18  19
HETATM   19  N   UNL     1      -6.844  -2.174 -34.719  1.00  0.00    -0.072 N 
HETATM   20  H   UNL     1      -7.623  -2.230 -35.381  1.00  0.00     0.277 HD
HETATM   21  H   UNL     1      -7.221  -2.392 -33.783  1.00  0.00     0.277 HD
BRANCH  19  22
HETATM   22  C   UNL     1      -5.796  -3.183 -34.994  1.00  0.00     0.228 C 
HETATM   23  C   UNL     1      -6.440  -4.555 -35.010  1.00  0.00     0.034 C 
ENDBRANCH  19  22
ENDBRANCH  18  19
ENDBRANCH   1  18
TORSDOF 5
ENDMDL
MODEL 6
REMARK VINA RESULT:      -6.6      3.576      6.374
REMARK  5 active torsions:
REMARK  status: ('A' for Active; 'I' for Inactive)
REMARK    1  A    between atoms: C_2  and  N_3 
REMARK    2  A    between atoms: N_3  and  C_6 
REMARK    3  A    between atoms: C_6  and  C_7 
REMARK    4  A    between atoms: C_8  and  N_9 
REMARK       I    between atoms: N_9  and  C_10 
REMARK    5  A    between atoms: C_10  and  C_11 
ROOT
HETATM    1  C   UNL     1      -6.172  -0.453 -32.542  1.00  0.00    -0.006 A 
HETATM    2  C   UNL     1      -7.178  -0.645 -33.514  1.00  0.00     0.043 A 
HETATM    3  C   UNL     1      -6.930  -1.565 -34.558  1.00  0.00     0.030 A 
HETATM    4  C   UNL     1      -5.723  -2.253 -34.677  1.00  0.00     0.002 A 
HETATM    5  C   UNL     1      -4.725  -2.043 -33.745  1.00  0.00     0.001 A 
HETATM    6  C   UNL     1      -4.949  -1.161 -32.691  1.00  0.00     0.011 A 
ENDROOT
BRANCH   2   7
HETATM    7  N   UNL     1      -8.450  -0.030 -33.627  1.00  0.00    -0.321 N 
HETATM    8  C   UNL     1      -8.853   1.272 -33.807  1.00  0.00     0.274 C 
HETATM    9  O   UNL     1      -8.133   2.263 -33.778  1.00  0.00    -0.266 OA
HETATM   10  H   UNL     1      -9.247  -0.675 -33.635  1.00  0.00     0.169 HD
BRANCH   8  11
HETATM   11  C   UNL     1     -10.333   1.430 -33.966  1.00  0.00     0.126 A 
HETATM   12  N   UNL     1     -10.720   2.527 -34.663  1.00  0.00    -0.231 NA
HETATM   13  C   UNL     1     -12.046   2.632 -34.888  1.00  0.00     0.127 A 
HETATM   14 CL   UNL     1     -12.493   3.986 -35.837  1.00  0.00    -0.062 Cl
HETATM   15  C   UNL     1     -12.998   1.732 -34.433  1.00  0.00     0.044 A 
HETATM   16  C   UNL     1     -12.562   0.634 -33.694  1.00  0.00     0.006 A 
HETATM   17  C   UNL     1     -11.200   0.469 -33.461  1.00  0.00     0.037 A 
ENDBRANCH   8  11
ENDBRANCH   2   7
BRANCH   1  18
HETATM   18  C   UNL     1      -6.247   0.424 -31.316  1.00  0.00     0.273 C 
BRANCH  18  19
HETATM   19  N   UNL     1      -5.879   1.835 -31.602  1.00  0.00    -0.072 N 
HETATM   20  H   UNL     1      -6.702   2.441 -31.538  1.00  0.00     0.277 HD
HETATM   21  H   UNL     1      -5.596   1.807 -32.594  1.00  0.00     0.277 HD
BRANCH  19  22
HETATM   22  C   UNL     1      -4.722   2.373 -30.851  1.00  0.00     0.228 C 
HETATM   23  C   UNL     1      -3.473   2.184 -31.689  1.00  0.00     0.034 C 
ENDBRANCH  19  22
ENDBRANCH  18  19
ENDBRANCH   1  18
TORSDOF 5
ENDMDL
MODEL 7
REMARK VINA RESULT:      -6.5      3.295      6.401
REMARK  5 active torsions:
REMARK  status: ('A' for Active; 'I' for Inactive)
REMARK    1  A    between atoms: C_2  and  N_3 
REMARK    2  A    between atoms: N_3  and  C_6 
REMARK    3  A    between atoms: C_6  and  C_7 
REMARK    4  A    between atoms: C_8  and  N_9 
REMARK       I    between atoms: N_9  and  C_10 
REMARK    5  A    between atoms: C_10  and  C_11 
ROOT
HETATM    1  C   UNL     1      -5.535  -0.841 -33.676  1.00  0.00    -0.006 A 
HETATM    2  C   UNL     1      -6.830  -1.207 -34.107  1.00  0.00     0.043 A 
HETATM    3  C   UNL     1      -7.016  -2.506 -34.631  1.00  0.00     0.030 A 
HETATM    4  C   UNL     1      -5.968  -3.415 -34.767  1.00  0.00     0.002 A 
HETATM    5  C   UNL     1      -4.694  -3.049 -34.376  1.00  0.00     0.001 A 
HETATM    6  C   UNL     1      -4.483  -1.784 -33.833  1.00  0.00     0.011 A 
ENDROOT
BRANCH   2   7
HETATM    7  N   UNL     1      -8.025  -0.445 -34.111  1.00  0.00    -0.321 N 
HETATM    8  C   UNL     1      -8.710   0.237 -33.133  1.00  0.00     0.274 C 
HETATM    9  O   UNL     1      -8.469   0.214 -31.932  1.00  0.00    -0.266 OA
HETATM   10  H   UNL     1      -8.454  -0.313 -35.032  1.00  0.00     0.169 HD
BRANCH   8  11
HETATM   11  C   UNL     1      -9.899   0.990 -33.641  1.00  0.00     0.126 A 
HETATM   12  N   UNL     1     -11.090   0.370 -33.458  1.00  0.00    -0.231 NA
HETATM   13  C   UNL     1     -12.176   1.079 -33.832  1.00  0.00     0.127 A 
HETATM   14 CL   UNL     1     -13.668   0.299 -33.516  1.00  0.00    -0.062 Cl
HETATM   15  C   UNL     1     -12.136   2.343 -34.400  1.00  0.00     0.044 A 
HETATM   16  C   UNL     1     -10.890   2.934 -34.599  1.00  0.00     0.006 A 
HETATM   17  C   UNL     1      -9.743   2.252 -34.203  1.00  0.00     0.037 A 
ENDBRANCH   8  11
ENDBRANCH   2   7
BRANCH   1  18
HETATM   18  C   UNL     1      -5.124   0.459 -33.031  1.00  0.00     0.273 C 
BRANCH  18  19
HETATM   19  N   UNL     1      -5.514   0.533 -31.599  1.00  0.00    -0.072 N 
HETATM   20  H   UNL     1      -6.043  -0.301 -31.327  1.00  0.00     0.277 HD
HETATM   21  H   UNL     1      -6.168   1.331 -31.576  1.00  0.00     0.277 HD
BRANCH  19  22
HETATM   22  C   UNL     1      -4.429   0.850 -30.643  1.00  0.00     0.228 C 
HETATM   23  C   UNL     1      -3.134   0.263 -31.170  1.00  0.00     0.034 C 
ENDBRANCH  19  22
ENDBRANCH  18  19
ENDBRANCH   1  18
TORSDOF 5
ENDMDL
MODEL 8
REMARK VINA RESULT:      -6.5      3.396      6.157
REMARK  5 active torsions:
REMARK  status: ('A' for Active; 'I' for Inactive)
REMARK    1  A    between atoms: C_2  and  N_3 
REMARK    2  A    between atoms: N_3  and  C_6 
REMARK    3  A    between atoms: C_6  and  C_7 
REMARK    4  A    between atoms: C_8  and  N_9 
REMARK       I    between atoms: N_9  and  C_10 
REMARK    5  A    between atoms: C_10  and  C_11 
ROOT
HETATM    1  C   UNL     1      -5.860  -1.246 -33.525  1.00  0.00    -0.006 A 
HETATM    2  C   UNL     1      -6.648  -0.307 -32.823  1.00  0.00     0.043 A 
HETATM    3  C   UNL     1      -6.099   0.294 -31.668  1.00  0.00     0.030 A 
HETATM    4  C   UNL     1      -4.832  -0.032 -31.185  1.00  0.00     0.002 A 
HETATM    5  C   UNL     1      -4.071  -0.973 -31.851  1.00  0.00     0.001 A 
HETATM    6  C   UNL     1      -4.575  -1.566 -33.007  1.00  0.00     0.011 A 
ENDROOT
BRANCH   2   7
HETATM    7  N   UNL     1      -7.964   0.142 -33.093  1.00  0.00    -0.321 N 
HETATM    8  C   UNL     1      -8.473   1.309 -33.613  1.00  0.00     0.274 C 
HETATM    9  O   UNL     1      -7.841   2.332 -33.849  1.00  0.00    -0.266 OA
HETATM   10  H   UNL     1      -8.703  -0.549 -32.929  1.00  0.00     0.169 HD
BRANCH   8  11
HETATM   11  C   UNL     1      -9.957   1.289 -33.805  1.00  0.00     0.126 A 
HETATM   12  N   UNL     1     -10.445   2.274 -34.600  1.00  0.00    -0.231 NA
HETATM   13  C   UNL     1     -11.769   2.212 -34.853  1.00  0.00     0.127 A 
HETATM   14 CL   UNL     1     -12.337   3.425 -35.920  1.00  0.00    -0.062 Cl
HETATM   15  C   UNL     1     -12.627   1.254 -34.336  1.00  0.00     0.044 A 
HETATM   16  C   UNL     1     -12.092   0.277 -33.499  1.00  0.00     0.006 A 
HETATM   17  C   UNL     1     -10.726   0.283 -33.233  1.00  0.00     0.037 A 
ENDBRANCH   8  11
ENDBRANCH   2   7
BRANCH   1  18
HETATM   18  C   UNL     1      -6.216  -1.956 -34.807  1.00  0.00     0.273 C 
BRANCH  18  19
HETATM   19  N   UNL     1      -6.920  -3.243 -34.568  1.00  0.00    -0.072 N 
HETATM   20  H   UNL     1      -7.927  -3.134 -34.713  1.00  0.00     0.277 HD
HETATM   21  H   UNL     1      -6.771  -3.407 -33.560  1.00  0.00     0.277 HD
BRANCH  19  22
HETATM   22  C   UNL     1      -6.373  -4.426 -35.272  1.00  0.00     0.228 C 
HETATM   23  C   UNL     1      -5.181  -4.943 -34.490  1.00  0.00     0.034 C 
ENDBRANCH  19  22
ENDBRANCH  18  19
ENDBRANCH   1  18
TORSDOF 5
ENDMDL
MODEL 9
REMARK VINA RESULT:      -6.4     13.180     14.784
REMARK  5 active torsions:
REMARK  status: ('A' for Active; 'I' for Inactive)
REMARK    1  A    between atoms: C_2  and  N_3 
REMARK    2  A    between atoms: N_3  and  C_6 
REMARK    3  A    between atoms: C_6  and  C_7 
REMARK    4  A    between atoms: C_8  and  N_9 
REMARK       I    between atoms: N_9  and  C_10 
REMARK    5  A    between atoms: C_10  and  C_11 
ROOT
HETATM    1  C   UNL     1      -7.440 -13.578 -38.073  1.00  0.00    -0.006 A 
HETATM    2  C   UNL     1      -6.569 -13.196 -39.118  1.00  0.00     0.043 A 
HETATM    3  C   UNL     1      -7.125 -12.562 -40.251  1.00  0.00     0.030 A 
HETATM    4  C   UNL     1      -8.495 -12.335 -40.385  1.00  0.00     0.002 A 
HETATM    5  C   UNL     1      -9.353 -12.735 -39.378  1.00  0.00     0.001 A 
HETATM    6  C   UNL     1      -8.832 -13.342 -38.238  1.00  0.00     0.011 A 
ENDROOT
BRANCH   2   7
HETATM    7  N   UNL     1      -5.167 -13.364 -39.226  1.00  0.00    -0.321 N 
HETATM    8  C   UNL     1      -4.102 -12.882 -38.500  1.00  0.00     0.274 C 
HETATM    9  O   UNL     1      -4.154 -12.036 -37.616  1.00  0.00    -0.266 OA
HETATM   10  H   UNL     1      -4.861 -14.022 -39.950  1.00  0.00     0.169 HD
BRANCH   8  11
HETATM   11  C   UNL     1      -2.777 -13.422 -38.940  1.00  0.00     0.126 A 
HETATM   12  N   UNL     1      -2.828 -14.285 -39.984  1.00  0.00    -0.231 NA
HETATM   13  C   UNL     1      -1.633 -14.708 -40.446  1.00  0.00     0.127 A 
HETATM   14 CL   UNL     1      -1.731 -15.735 -41.813  1.00  0.00    -0.062 Cl
HETATM   15  C   UNL     1      -0.407 -14.347 -39.908  1.00  0.00     0.044 A 
HETATM   16  C   UNL     1      -0.398 -13.482 -38.816  1.00  0.00     0.006 A 
HETATM   17  C   UNL     1      -1.606 -12.997 -38.323  1.00  0.00     0.037 A 
ENDBRANCH   8  11
ENDBRANCH   2   7
BRANCH   1  18
HETATM   18  C   UNL     1      -7.060 -14.205 -36.755  1.00  0.00     0.273 C 
BRANCH  18  19
HETATM   19  N   UNL     1      -6.517 -13.215 -35.789  1.00  0.00    -0.072 N 
HETATM   20  H   UNL     1      -7.277 -12.698 -35.338  1.00  0.00     0.277 HD
HETATM   21  H   UNL     1      -6.011 -12.550 -36.395  1.00  0.00     0.277 HD
BRANCH  19  22
HETATM   22  C   UNL     1      -5.528 -13.730 -34.814  1.00  0.00     0.228 C 
HETATM   23  C   UNL     1      -5.595 -12.876 -33.563  1.00  0.00     0.034 C 
ENDBRANCH  19  22
ENDBRANCH  18  19
ENDBRANCH   1  18
TORSDOF 5
ENDMDL
MODEL 10
REMARK VINA RESULT:      -6.4      2.368      3.957
REMARK  5 active torsions:
REMARK  status: ('A' for Active; 'I' for Inactive)
REMARK    1  A    between atoms: C_2  and  N_3 
REMARK    2  A    between atoms: N_3  and  C_6 
REMARK    3  A    between atoms: C_6  and  C_7 
REMARK    4  A    between atoms: C_8  and  N_9 
REMARK       I    between atoms: N_9  and  C_10 
REMARK    5  A    between atoms: C_10  and  C_11 
ROOT
HETATM    1  C   UNL     1      -4.183   3.285 -31.778  1.00  0.00    -0.006 A 
HETATM    2  C   UNL     1      -5.085   2.201 -31.711  1.00  0.00     0.043 A 
HETATM    3  C   UNL     1      -6.183   2.300 -30.828  1.00  0.00     0.030 A 
HETATM    4  C   UNL     1      -6.382   3.407 -30.003  1.00  0.00     0.002 A 
HETATM    5  C   UNL     1      -5.483   4.456 -30.043  1.00  0.00     0.001 A 
HETATM    6  C   UNL     1      -4.403   4.398 -30.922  1.00  0.00     0.011 A 
ENDROOT
BRANCH   2   7
HETATM    7  N   UNL     1      -5.062   0.968 -32.409  1.00  0.00    -0.321 N 
HETATM    8  C   UNL     1      -4.419  -0.228 -32.187  1.00  0.00     0.274 C 
HETATM    9  O   UNL     1      -3.565  -0.442 -31.335  1.00  0.00    -0.266 OA
HETATM   10  H   UNL     1      -5.690   0.912 -33.216  1.00  0.00     0.169 HD
BRANCH   8  11
HETATM   11  C   UNL     1      -4.783  -1.301 -33.164  1.00  0.00     0.126 A 
HETATM   12  N   UNL     1      -3.966  -2.382 -33.158  1.00  0.00    -0.231 NA
HETATM   13  C   UNL     1      -4.336  -3.393 -33.971  1.00  0.00     0.127 A 
HETATM   14 CL   UNL     1      -3.325  -4.773 -33.883  1.00  0.00    -0.062 Cl
HETATM   15  C   UNL     1      -5.445  -3.371 -34.803  1.00  0.00     0.044 A 
HETATM   16  C   UNL     1      -6.243  -2.229 -34.803  1.00  0.00     0.006 A 
HETATM   17  C   UNL     1      -5.916  -1.172 -33.959  1.00  0.00     0.037 A 
ENDBRANCH   8  11
ENDBRANCH   2   7
BRANCH   1  18
HETATM   18  C   UNL     1      -2.988   3.421 -32.690  1.00  0.00     0.273 C 
BRANCH  18  19
HETATM   19  N   UNL     1      -2.114   4.563 -32.317  1.00  0.00    -0.072 N 
HETATM   20  H   UNL     1      -1.509   4.311 -31.530  1.00  0.00     0.277 HD
HETATM   21  H   UNL     1      -2.785   5.269 -31.974  1.00  0.00     0.277 HD
BRANCH  19  22
HETATM   22  C   UNL     1      -1.364   5.199 -33.424  1.00  0.00     0.228 C 
HETATM   23  C   UNL     1      -2.200   5.110 -34.686  1.00  0.00     0.034 C 
ENDBRANCH  19  22
ENDBRANCH  18  19
ENDBRANCH   1  18
TORSDOF 5
ENDMDL
