MODEL 1
REMARK VINA RESULT:      -8.0      0.000      0.000
REMARK  5 active torsions:
REMARK  status: ('A' for Active; 'I' for Inactive)
REMARK    1  A    between atoms: C_6  and  N_7 
REMARK       I    between atoms: N_7  and  C_8 
REMARK    2  A    between atoms: C_8  and  C_9 
REMARK    3  A    between atoms: C_10  and  O_11 
REMARK    4  A    between atoms: C_14  and  O_15 
REMARK    5  A    between atoms: C_20  and  C_21 
ROOT
HETATM    1  C   UNL     1      -6.581   5.999 -29.711  1.00  0.00     0.073 C 
HETATM    2  C   UNL     1      -6.700   4.550 -30.010  1.00  0.00     0.065 A 
HETATM    3  N   UNL     1      -7.514   3.781 -29.275  1.00  0.00    -0.177 NA
HETATM    4  N   UNL     1      -7.318   2.551 -29.769  1.00  0.00    -0.262 N 
HETATM    5  H   UNL     1      -7.849   1.793 -29.362  1.00  0.00     0.191 HD
HETATM    6  C   UNL     1      -6.467   2.496 -30.841  1.00  0.00     0.137 A 
HETATM    7  C   UNL     1      -6.000   3.792 -30.995  1.00  0.00     0.046 A 
ENDROOT
BRANCH   6   8
HETATM    8  N   UNL     1      -6.235   1.294 -31.493  1.00  0.00    -0.307 N 
HETATM    9  C   UNL     1      -6.499   1.120 -32.846  1.00  0.00     0.260 C 
HETATM   10  O   UNL     1      -7.078   1.921 -33.570  1.00  0.00    -0.267 OA
HETATM   11  H   UNL     1      -6.024   0.481 -30.931  1.00  0.00     0.170 HD
BRANCH   9  12
HETATM   12  C   UNL     1      -6.121  -0.214 -33.401  1.00  0.00     0.065 A 
HETATM   13  C   UNL     1      -4.791  -0.657 -33.352  1.00  0.00     0.086 A 
HETATM   14  C   UNL     1      -4.431  -1.910 -33.869  1.00  0.00     0.074 A 
HETATM   15  C   UNL     1      -5.391  -2.716 -34.477  1.00  0.00     0.070 A 
HETATM   16  C   UNL     1      -6.713  -2.271 -34.546  1.00  0.00     0.038 A 
HETATM   17  C   UNL     1      -7.079  -1.027 -34.023  1.00  0.00     0.022 A 
BRANCH  13  18
HETATM   18  O   UNL     1      -3.821   0.070 -32.714  1.00  0.00    -0.355 OA
HETATM   19  C   UNL     1      -3.014  -0.787 -31.899  1.00  0.00     0.210 C 
ENDBRANCH  13  18
BRANCH  15  20
HETATM   20  O   UNL     1      -5.173  -3.948 -35.027  1.00  0.00    -0.356 OA
HETATM   21  C   UNL     1      -6.320  -4.659 -35.480  1.00  0.00     0.210 C 
ENDBRANCH  15  20
ENDBRANCH   9  12
ENDBRANCH   6   8
BRANCH   7  22
HETATM   22  C   UNL     1      -4.900   4.214 -31.845  1.00  0.00    -0.020 A 
HETATM   23  C   UNL     1      -3.584   3.837 -31.551  1.00  0.00     0.014 A 
HETATM   24  C   UNL     1      -2.539   4.201 -32.404  1.00  0.00     0.020 A 
HETATM   25  C   UNL     1      -2.809   4.941 -33.554  1.00  0.00     0.011 A 
HETATM   26 BR   UNL     1      -1.396   5.428 -34.711  1.00  0.00    -0.051 Br
HETATM   27  C   UNL     1      -4.114   5.321 -33.861  1.00  0.00     0.020 A 
HETATM   28  C   UNL     1      -5.157   4.955 -33.009  1.00  0.00     0.014 A 
ENDBRANCH   7  22
TORSDOF 5
ENDMDL
MODEL 2
REMARK VINA RESULT:      -7.8      3.517      7.008
REMARK  5 active torsions:
REMARK  status: ('A' for Active; 'I' for Inactive)
REMARK    1  A    between atoms: C_6  and  N_7 
REMARK       I    between atoms: N_7  and  C_8 
REMARK    2  A    between atoms: C_8  and  C_9 
REMARK    3  A    between atoms: C_10  and  O_11 
REMARK    4  A    between atoms: C_14  and  O_15 
REMARK    5  A    between atoms: C_20  and  C_21 
ROOT
HETATM    1  C   UNL     1     -10.275  -0.208 -32.730  1.00  0.00     0.073 C 
HETATM    2  C   UNL     1      -9.394   0.980 -32.862  1.00  0.00     0.065 A 
HETATM    3  N   UNL     1      -9.923   2.210 -32.830  1.00  0.00    -0.177 NA
HETATM    4  N   UNL     1      -8.871   3.012 -33.043  1.00  0.00    -0.262 N 
HETATM    5  H   UNL     1      -9.036   4.010 -33.051  1.00  0.00     0.191 HD
HETATM    6  C   UNL     1      -7.669   2.361 -33.141  1.00  0.00     0.137 A 
HETATM    7  C   UNL     1      -7.984   1.013 -33.077  1.00  0.00     0.046 A 
ENDROOT
BRANCH   6   8
HETATM    8  N   UNL     1      -6.492   3.080 -33.291  1.00  0.00    -0.307 N 
HETATM    9  C   UNL     1      -6.469   4.365 -33.819  1.00  0.00     0.260 C 
HETATM   10  O   UNL     1      -7.420   4.945 -34.329  1.00  0.00    -0.267 OA
HETATM   11  H   UNL     1      -5.616   2.591 -33.165  1.00  0.00     0.170 HD
BRANCH   9  12
HETATM   12  C   UNL     1      -5.127   5.020 -33.841  1.00  0.00     0.065 A 
HETATM   13  C   UNL     1      -4.671   5.750 -32.734  1.00  0.00     0.086 A 
HETATM   14  C   UNL     1      -3.410   6.365 -32.748  1.00  0.00     0.074 A 
HETATM   15  C   UNL     1      -2.610   6.288 -33.885  1.00  0.00     0.070 A 
HETATM   16  C   UNL     1      -3.068   5.580 -34.998  1.00  0.00     0.038 A 
HETATM   17  C   UNL     1      -4.319   4.956 -34.985  1.00  0.00     0.022 A 
BRANCH  13  18
HETATM   18  O   UNL     1      -5.393   5.806 -31.570  1.00  0.00    -0.355 OA
HETATM   19  C   UNL     1      -4.580   6.312 -30.506  1.00  0.00     0.210 C 
ENDBRANCH  13  18
BRANCH  15  20
HETATM   20  O   UNL     1      -1.371   6.848 -34.035  1.00  0.00    -0.356 OA
HETATM   21  C   UNL     1      -0.742   7.334 -32.854  1.00  0.00     0.210 C 
ENDBRANCH  15  20
ENDBRANCH   9  12
ENDBRANCH   6   8
BRANCH   7  22
HETATM   22  C   UNL     1      -7.089  -0.094 -33.366  1.00  0.00    -0.020 A 
HETATM   23  C   UNL     1      -7.238  -0.847 -34.536  1.00  0.00     0.014 A 
HETATM   24  C   UNL     1      -6.339  -1.875 -34.832  1.00  0.00     0.020 A 
HETATM   25  C   UNL     1      -5.287  -2.148 -33.960  1.00  0.00     0.011 A 
HETATM   26 BR   UNL     1      -4.066  -3.534 -34.364  1.00  0.00    -0.051 Br
HETATM   27  C   UNL     1      -5.123  -1.404 -32.793  1.00  0.00     0.020 A 
HETATM   28  C   UNL     1      -6.022  -0.377 -32.499  1.00  0.00     0.014 A 
ENDBRANCH   7  22
TORSDOF 5
ENDMDL
MODEL 3
REMARK VINA RESULT:      -7.7      0.986      1.979
REMARK  5 active torsions:
REMARK  status: ('A' for Active; 'I' for Inactive)
REMARK    1  A    between atoms: C_6  and  N_7 
REMARK       I    between atoms: N_7  and  C_8 
REMARK    2  A    between atoms: C_8  and  C_9 
REMARK    3  A    between atoms: C_10  and  O_11 
REMARK    4  A    between atoms: C_14  and  O_15 
REMARK    5  A    between atoms: C_20  and  C_21 
ROOT
HETATM    1  C   UNL     1      -6.236   5.950 -29.273  1.00  0.00     0.073 C 
HETATM    2  C   UNL     1      -6.470   4.597 -29.839  1.00  0.00     0.065 A 
HETATM    3  N   UNL     1      -7.346   3.770 -29.254  1.00  0.00    -0.177 NA
HETATM    4  N   UNL     1      -7.248   2.645 -29.974  1.00  0.00    -0.262 N 
HETATM    5  H   UNL     1      -7.840   1.868 -29.712  1.00  0.00     0.191 HD
HETATM    6  C   UNL     1      -6.399   2.726 -31.046  1.00  0.00     0.137 A 
HETATM    7  C   UNL     1      -5.828   3.986 -30.957  1.00  0.00     0.046 A 
ENDROOT
BRANCH   6   8
HETATM    8  N   UNL     1      -6.260   1.654 -31.915  1.00  0.00    -0.307 N 
HETATM    9  C   UNL     1      -5.634   0.471 -31.539  1.00  0.00     0.260 C 
HETATM   10  O   UNL     1      -5.027   0.285 -30.492  1.00  0.00    -0.267 OA
HETATM   11  H   UNL     1      -6.473   1.801 -32.891  1.00  0.00     0.170 HD
BRANCH   9  12
HETATM   12  C   UNL     1      -5.637  -0.606 -32.574  1.00  0.00     0.065 A 
HETATM   13  C   UNL     1      -6.820  -0.949 -33.244  1.00  0.00     0.086 A 
HETATM   14  C   UNL     1      -6.828  -1.957 -34.219  1.00  0.00     0.074 A 
HETATM   15  C   UNL     1      -5.661  -2.661 -34.505  1.00  0.00     0.070 A 
HETATM   16  C   UNL     1      -4.484  -2.337 -33.825  1.00  0.00     0.038 A 
HETATM   17  C   UNL     1      -4.468  -1.325 -32.861  1.00  0.00     0.022 A 
BRANCH  13  18
HETATM   18  O   UNL     1      -7.982  -0.249 -33.043  1.00  0.00    -0.355 OA
HETATM   19  C   UNL     1      -8.473   0.264 -34.286  1.00  0.00     0.210 C 
ENDBRANCH  13  18
BRANCH  15  20
HETATM   20  O   UNL     1      -5.534  -3.668 -35.420  1.00  0.00    -0.356 OA
HETATM   21  C   UNL     1      -6.610  -4.597 -35.504  1.00  0.00     0.210 C 
ENDBRANCH  15  20
ENDBRANCH   9  12
ENDBRANCH   6   8
BRANCH   7  22
HETATM   22  C   UNL     1      -4.694   4.472 -31.723  1.00  0.00    -0.020 A 
HETATM   23  C   UNL     1      -3.423   3.908 -31.555  1.00  0.00     0.014 A 
HETATM   24  C   UNL     1      -2.350   4.345 -32.336  1.00  0.00     0.020 A 
HETATM   25  C   UNL     1      -2.546   5.343 -33.288  1.00  0.00     0.011 A 
HETATM   26 BR   UNL     1      -1.094   5.929 -34.348  1.00  0.00    -0.051 Br
HETATM   27  C   UNL     1      -3.805   5.911 -33.469  1.00  0.00     0.020 A 
HETATM   28  C   UNL     1      -4.877   5.473 -32.689  1.00  0.00     0.014 A 
ENDBRANCH   7  22
TORSDOF 5
ENDMDL
MODEL 4
REMARK VINA RESULT:      -7.6      3.911      5.172
REMARK  5 active torsions:
REMARK  status: ('A' for Active; 'I' for Inactive)
REMARK    1  A    between atoms: C_6  and  N_7 
REMARK       I    between atoms: N_7  and  C_8 
REMARK    2  A    between atoms: C_8  and  C_9 
REMARK    3  A    between atoms: C_10  and  O_11 
REMARK    4  A    between atoms: C_14  and  O_15 
REMARK    5  A    between atoms: C_20  and  C_21 
ROOT
HETATM    1  C   UNL     1      -8.784   5.754 -33.851  1.00  0.00     0.073 C 
HETATM    2  C   UNL     1      -7.848   4.601 -33.840  1.00  0.00     0.065 A 
HETATM    3  N   UNL     1      -6.532   4.808 -33.974  1.00  0.00    -0.177 NA
HETATM    4  N   UNL     1      -6.018   3.571 -33.989  1.00  0.00    -0.262 N 
HETATM    5  H   UNL     1      -5.014   3.482 -34.075  1.00  0.00     0.191 HD
HETATM    6  C   UNL     1      -6.934   2.570 -33.799  1.00  0.00     0.137 A 
HETATM    7  C   UNL     1      -8.161   3.212 -33.748  1.00  0.00     0.046 A 
ENDROOT
BRANCH   6   8
HETATM    8  N   UNL     1      -6.523   1.248 -33.722  1.00  0.00    -0.307 N 
HETATM    9  C   UNL     1      -6.603   0.382 -34.806  1.00  0.00     0.260 C 
HETATM   10  O   UNL     1      -7.153   0.623 -35.874  1.00  0.00    -0.267 OA
HETATM   11  H   UNL     1      -6.317   0.865 -32.810  1.00  0.00     0.170 HD
BRANCH   9  12
HETATM   12  C   UNL     1      -6.050  -0.985 -34.570  1.00  0.00     0.065 A 
HETATM   13  C   UNL     1      -4.810  -1.154 -33.937  1.00  0.00     0.086 A 
HETATM   14  C   UNL     1      -4.287  -2.436 -33.709  1.00  0.00     0.074 A 
HETATM   15  C   UNL     1      -4.981  -3.560 -34.149  1.00  0.00     0.070 A 
HETATM   16  C   UNL     1      -6.207  -3.397 -34.799  1.00  0.00     0.038 A 
HETATM   17  C   UNL     1      -6.738  -2.122 -35.018  1.00  0.00     0.022 A 
BRANCH  13  18
HETATM   18  O   UNL     1      -4.116  -0.085 -33.431  1.00  0.00    -0.355 OA
HETATM   19  C   UNL     1      -3.616  -0.391 -32.126  1.00  0.00     0.210 C 
ENDBRANCH  13  18
BRANCH  15  20
HETATM   20  O   UNL     1      -4.581  -4.859 -34.003  1.00  0.00    -0.356 OA
HETATM   21  C   UNL     1      -3.265  -5.072 -33.504  1.00  0.00     0.210 C 
ENDBRANCH  15  20
ENDBRANCH   9  12
ENDBRANCH   6   8
BRANCH   7  22
HETATM   22  C   UNL     1      -9.466   2.576 -33.791  1.00  0.00    -0.020 A 
HETATM   23  C   UNL     1     -10.456   3.034 -34.668  1.00  0.00     0.014 A 
HETATM   24  C   UNL     1     -11.690   2.381 -34.740  1.00  0.00     0.020 A 
HETATM   25  C   UNL     1     -11.933   1.268 -33.938  1.00  0.00     0.011 A 
HETATM   26 BR   UNL     1     -13.600   0.382 -34.042  1.00  0.00    -0.051 Br
HETATM   27  C   UNL     1     -10.957   0.799 -33.063  1.00  0.00     0.020 A 
HETATM   28  C   UNL     1      -9.724   1.451 -32.992  1.00  0.00     0.014 A 
ENDBRANCH   7  22
TORSDOF 5
ENDMDL
MODEL 5
REMARK VINA RESULT:      -7.5      3.408      7.453
REMARK  5 active torsions:
REMARK  status: ('A' for Active; 'I' for Inactive)
REMARK    1  A    between atoms: C_6  and  N_7 
REMARK       I    between atoms: N_7  and  C_8 
REMARK    2  A    between atoms: C_8  and  C_9 
REMARK    3  A    between atoms: C_10  and  O_11 
REMARK    4  A    between atoms: C_14  and  O_15 
REMARK    5  A    between atoms: C_20  and  C_21 
ROOT
HETATM    1  C   UNL     1      -6.676  -3.204 -34.626  1.00  0.00     0.073 C 
HETATM    2  C   UNL     1      -5.856  -2.056 -34.163  1.00  0.00     0.065 A 
HETATM    3  N   UNL     1      -4.551  -2.227 -33.911  1.00  0.00    -0.177 NA
HETATM    4  N   UNL     1      -4.159  -1.029 -33.457  1.00  0.00    -0.262 N 
HETATM    5  H   UNL     1      -3.185  -0.919 -33.207  1.00  0.00     0.191 HD
HETATM    6  C   UNL     1      -5.134  -0.066 -33.470  1.00  0.00     0.137 A 
HETATM    7  C   UNL     1      -6.282  -0.724 -33.882  1.00  0.00     0.046 A 
ENDROOT
BRANCH   6   8
HETATM    8  N   UNL     1      -4.840   1.236 -33.093  1.00  0.00    -0.307 N 
HETATM    9  C   UNL     1      -3.769   1.544 -32.262  1.00  0.00     0.260 C 
HETATM   10  O   UNL     1      -3.067   0.733 -31.670  1.00  0.00    -0.267 OA
HETATM   11  H   UNL     1      -5.521   1.955 -33.293  1.00  0.00     0.170 HD
BRANCH   9  12
HETATM   12  C   UNL     1      -3.554   3.001 -32.017  1.00  0.00     0.065 A 
HETATM   13  C   UNL     1      -4.361   3.698 -31.105  1.00  0.00     0.086 A 
HETATM   14  C   UNL     1      -4.162   5.066 -30.868  1.00  0.00     0.074 A 
HETATM   15  C   UNL     1      -3.181   5.760 -31.571  1.00  0.00     0.070 A 
HETATM   16  C   UNL     1      -2.388   5.076 -32.496  1.00  0.00     0.038 A 
HETATM   17  C   UNL     1      -2.575   3.710 -32.727  1.00  0.00     0.022 A 
BRANCH  13  18
HETATM   18  O   UNL     1      -5.300   3.051 -30.344  1.00  0.00    -0.355 OA
HETATM   19  C   UNL     1      -6.615   3.488 -30.703  1.00  0.00     0.210 C 
ENDBRANCH  13  18
BRANCH  15  20
HETATM   20  O   UNL     1      -2.891   7.090 -31.445  1.00  0.00    -0.356 OA
HETATM   21  C   UNL     1      -2.064   7.664 -32.451  1.00  0.00     0.210 C 
ENDBRANCH  15  20
ENDBRANCH   9  12
ENDBRANCH   6   8
BRANCH   7  22
HETATM   22  C   UNL     1      -7.636  -0.200 -33.838  1.00  0.00    -0.020 A 
HETATM   23  C   UNL     1      -8.498  -0.534 -32.788  1.00  0.00     0.014 A 
HETATM   24  C   UNL     1      -9.780   0.019 -32.726  1.00  0.00     0.020 A 
HETATM   25  C   UNL     1     -10.200   0.909 -33.713  1.00  0.00     0.011 A 
HETATM   26 BR   UNL     1     -11.932   1.662 -33.624  1.00  0.00    -0.051 Br
HETATM   27  C   UNL     1      -9.351   1.254 -34.762  1.00  0.00     0.020 A 
HETATM   28  C   UNL     1      -8.070   0.702 -34.823  1.00  0.00     0.014 A 
ENDBRANCH   7  22
TORSDOF 5
ENDMDL
MODEL 6
REMARK VINA RESULT:      -7.5      4.126      6.852
REMARK  5 active torsions:
REMARK  status: ('A' for Active; 'I' for Inactive)
REMARK    1  A    between atoms: C_6  and  N_7 
REMARK       I    between atoms: N_7  and  C_8 
REMARK    2  A    between atoms: C_8  and  C_9 
REMARK    3  A    between atoms: C_10  and  O_11 
REMARK    4  A    between atoms: C_14  and  O_15 
REMARK    5  A    between atoms: C_20  and  C_21 
ROOT
HETATM    1  C   UNL     1      -3.006   0.144 -31.218  1.00  0.00     0.073 C 
HETATM    2  C   UNL     1      -4.133   1.019 -31.630  1.00  0.00     0.065 A 
HETATM    3  N   UNL     1      -4.310   2.206 -31.034  1.00  0.00    -0.177 NA
HETATM    4  N   UNL     1      -5.432   2.675 -31.594  1.00  0.00    -0.262 N 
HETATM    5  H   UNL     1      -5.760   3.585 -31.296  1.00  0.00     0.191 HD
HETATM    6  C   UNL     1      -5.955   1.880 -32.580  1.00  0.00     0.137 A 
HETATM    7  C   UNL     1      -5.150   0.751 -32.594  1.00  0.00     0.046 A 
ENDROOT
BRANCH   6   8
HETATM    8  N   UNL     1      -7.076   2.285 -33.289  1.00  0.00    -0.307 N 
HETATM    9  C   UNL     1      -8.337   2.354 -32.708  1.00  0.00     0.260 C 
HETATM   10  O   UNL     1      -8.632   1.948 -31.590  1.00  0.00    -0.267 OA
HETATM   11  H   UNL     1      -6.999   2.372 -34.293  1.00  0.00     0.170 HD
BRANCH   9  12
HETATM   12  C   UNL     1      -9.417   2.880 -33.595  1.00  0.00     0.065 A 
HETATM   13  C   UNL     1      -9.287   4.132 -34.213  1.00  0.00     0.086 A 
HETATM   14  C   UNL     1     -10.297   4.630 -35.049  1.00  0.00     0.074 A 
HETATM   15  C   UNL     1     -11.466   3.897 -35.244  1.00  0.00     0.070 A 
HETATM   16  C   UNL     1     -11.609   2.658 -34.614  1.00  0.00     0.038 A 
HETATM   17  C   UNL     1     -10.600   2.153 -33.788  1.00  0.00     0.022 A 
BRANCH  13  18
HETATM   18  O   UNL     1      -8.134   4.866 -34.103  1.00  0.00    -0.355 OA
HETATM   19  C   UNL     1      -8.310   5.927 -33.159  1.00  0.00     0.210 C 
ENDBRANCH  13  18
BRANCH  15  20
HETATM   20  O   UNL     1     -12.527   4.269 -36.021  1.00  0.00    -0.356 OA
HETATM   21  C   UNL     1     -13.059   5.570 -35.797  1.00  0.00     0.210 C 
ENDBRANCH  15  20
ENDBRANCH   9  12
ENDBRANCH   6   8
BRANCH   7  22
HETATM   22  C   UNL     1      -5.421  -0.489 -33.300  1.00  0.00    -0.020 A 
HETATM   23  C   UNL     1      -4.373  -1.314 -33.723  1.00  0.00     0.014 A 
HETATM   24  C   UNL     1      -4.645  -2.531 -34.353  1.00  0.00     0.020 A 
HETATM   25  C   UNL     1      -5.966  -2.926 -34.558  1.00  0.00     0.011 A 
HETATM   26 BR   UNL     1      -6.333  -4.577 -35.404  1.00  0.00    -0.051 Br
HETATM   27  C   UNL     1      -7.019  -2.117 -34.139  1.00  0.00     0.020 A 
HETATM   28  C   UNL     1      -6.747  -0.902 -33.508  1.00  0.00     0.014 A 
ENDBRANCH   7  22
TORSDOF 5
ENDMDL
MODEL 7
REMARK VINA RESULT:      -7.5      2.969      3.842
REMARK  5 active torsions:
REMARK  status: ('A' for Active; 'I' for Inactive)
REMARK    1  A    between atoms: C_6  and  N_7 
REMARK       I    between atoms: N_7  and  C_8 
REMARK    2  A    between atoms: C_8  and  C_9 
REMARK    3  A    between atoms: C_10  and  O_11 
REMARK    4  A    between atoms: C_14  and  O_15 
REMARK    5  A    between atoms: C_20  and  C_21 
ROOT
HETATM    1  C   UNL     1     -11.669   3.842 -32.463  1.00  0.00     0.073 C 
HETATM    2  C   UNL     1     -11.007   2.547 -32.763  1.00  0.00     0.065 A 
HETATM    3  N   UNL     1     -11.735   1.512 -33.205  1.00  0.00    -0.177 NA
HETATM    4  N   UNL     1     -10.843   0.517 -33.300  1.00  0.00    -0.262 N 
HETATM    5  H   UNL     1     -11.174  -0.379 -33.631  1.00  0.00     0.191 HD
HETATM    6  C   UNL     1      -9.553   0.877 -33.007  1.00  0.00     0.137 A 
HETATM    7  C   UNL     1      -9.634   2.199 -32.598  1.00  0.00     0.046 A 
ENDROOT
BRANCH   6   8
HETATM    8  N   UNL     1      -8.522  -0.041 -33.135  1.00  0.00    -0.307 N 
HETATM    9  C   UNL     1      -7.812  -0.199 -34.320  1.00  0.00     0.260 C 
HETATM   10  O   UNL     1      -8.087   0.323 -35.393  1.00  0.00    -0.267 OA
HETATM   11  H   UNL     1      -8.396  -0.723 -32.400  1.00  0.00     0.170 HD
BRANCH   9  12
HETATM   12  C   UNL     1      -6.687  -1.180 -34.260  1.00  0.00     0.065 A 
HETATM   13  C   UNL     1      -5.447  -0.811 -33.719  1.00  0.00     0.086 A 
HETATM   14  C   UNL     1      -4.388  -1.729 -33.658  1.00  0.00     0.074 A 
HETATM   15  C   UNL     1      -4.546  -3.012 -34.175  1.00  0.00     0.070 A 
HETATM   16  C   UNL     1      -5.773  -3.378 -34.735  1.00  0.00     0.038 A 
HETATM   17  C   UNL     1      -6.835  -2.470 -34.788  1.00  0.00     0.022 A 
BRANCH  13  18
HETATM   18  O   UNL     1      -5.257   0.418 -33.143  1.00  0.00    -0.355 OA
HETATM   19  C   UNL     1      -5.140   0.288 -31.723  1.00  0.00     0.210 C 
ENDBRANCH  13  18
BRANCH  15  20
HETATM   20  O   UNL     1      -3.596  -3.995 -34.189  1.00  0.00    -0.356 OA
HETATM   21  C   UNL     1      -3.858  -5.150 -33.399  1.00  0.00     0.210 C 
ENDBRANCH  15  20
ENDBRANCH   9  12
ENDBRANCH   6   8
BRANCH   7  22
HETATM   22  C   UNL     1      -8.578   2.968 -31.964  1.00  0.00    -0.020 A 
HETATM   23  C   UNL     1      -7.583   3.585 -32.732  1.00  0.00     0.014 A 
HETATM   24  C   UNL     1      -6.602   4.368 -32.117  1.00  0.00     0.020 A 
HETATM   25  C   UNL     1      -6.618   4.539 -30.734  1.00  0.00     0.011 A 
HETATM   26 BR   UNL     1      -5.295   5.604 -29.904  1.00  0.00    -0.051 Br
HETATM   27  C   UNL     1      -7.603   3.934 -29.957  1.00  0.00     0.020 A 
HETATM   28  C   UNL     1      -8.583   3.153 -30.572  1.00  0.00     0.014 A 
ENDBRANCH   7  22
TORSDOF 5
ENDMDL
MODEL 8
REMARK VINA RESULT:      -7.4      1.897      2.149
REMARK  5 active torsions:
REMARK  status: ('A' for Active; 'I' for Inactive)
REMARK    1  A    between atoms: C_6  and  N_7 
REMARK       I    between atoms: N_7  and  C_8 
REMARK    2  A    between atoms: C_8  and  C_9 
REMARK    3  A    between atoms: C_10  and  O_11 
REMARK    4  A    between atoms: C_14  and  O_15 
REMARK    5  A    between atoms: C_20  and  C_21 
ROOT
HETATM    1  C   UNL     1      -6.507   7.127 -32.359  1.00  0.00     0.073 C 
HETATM    2  C   UNL     1      -6.629   5.689 -32.707  1.00  0.00     0.065 A 
HETATM    3  N   UNL     1      -7.837   5.159 -32.942  1.00  0.00    -0.177 NA
HETATM    4  N   UNL     1      -7.577   3.862 -33.149  1.00  0.00    -0.262 N 
HETATM    5  H   UNL     1      -8.359   3.255 -33.359  1.00  0.00     0.191 HD
HETATM    6  C   UNL     1      -6.246   3.536 -33.132  1.00  0.00     0.137 A 
HETATM    7  C   UNL     1      -5.594   4.711 -32.791  1.00  0.00     0.046 A 
ENDROOT
BRANCH   6   8
HETATM    8  N   UNL     1      -5.837   2.239 -33.404  1.00  0.00    -0.307 N 
HETATM    9  C   UNL     1      -6.497   1.129 -32.890  1.00  0.00     0.260 C 
HETATM   10  O   UNL     1      -7.394   1.154 -32.055  1.00  0.00    -0.267 OA
HETATM   11  H   UNL     1      -4.940   2.106 -33.850  1.00  0.00     0.170 HD
BRANCH   9  12
HETATM   12  C   UNL     1      -5.968  -0.192 -33.342  1.00  0.00     0.065 A 
HETATM   13  C   UNL     1      -4.614  -0.514 -33.170  1.00  0.00     0.086 A 
HETATM   14  C   UNL     1      -4.111  -1.754 -33.591  1.00  0.00     0.074 A 
HETATM   15  C   UNL     1      -4.949  -2.668 -34.224  1.00  0.00     0.070 A 
HETATM   16  C   UNL     1      -6.294  -2.343 -34.417  1.00  0.00     0.038 A 
HETATM   17  C   UNL     1      -6.802  -1.113 -33.989  1.00  0.00     0.022 A 
BRANCH  13  18
HETATM   18  O   UNL     1      -3.760   0.324 -32.500  1.00  0.00    -0.355 OA
HETATM   19  C   UNL     1      -3.380  -0.254 -31.247  1.00  0.00     0.210 C 
ENDBRANCH  13  18
BRANCH  15  20
HETATM   20  O   UNL     1      -4.587  -3.901 -34.691  1.00  0.00    -0.356 OA
HETATM   21  C   UNL     1      -3.640  -4.627 -33.914  1.00  0.00     0.210 C 
ENDBRANCH  15  20
ENDBRANCH   9  12
ENDBRANCH   6   8
BRANCH   7  22
HETATM   22  C   UNL     1      -4.197   4.841 -32.417  1.00  0.00    -0.020 A 
HETATM   23  C   UNL     1      -3.183   4.647 -33.363  1.00  0.00     0.014 A 
HETATM   24  C   UNL     1      -1.844   4.827 -33.006  1.00  0.00     0.020 A 
HETATM   25  C   UNL     1      -1.517   5.206 -31.705  1.00  0.00     0.011 A 
HETATM   26 BR   UNL     1       0.295   5.456 -31.227  1.00  0.00    -0.051 Br
HETATM   27  C   UNL     1      -2.515   5.405 -30.755  1.00  0.00     0.020 A 
HETATM   28  C   UNL     1      -3.853   5.226 -31.112  1.00  0.00     0.014 A 
ENDBRANCH   7  22
TORSDOF 5
ENDMDL
MODEL 9
REMARK VINA RESULT:      -7.3      6.057      9.807
REMARK  5 active torsions:
REMARK  status: ('A' for Active; 'I' for Inactive)
REMARK    1  A    between atoms: C_6  and  N_7 
REMARK       I    between atoms: N_7  and  C_8 
REMARK    2  A    between atoms: C_8  and  C_9 
REMARK    3  A    between atoms: C_10  and  O_11 
REMARK    4  A    between atoms: C_14  and  O_15 
REMARK    5  A    between atoms: C_20  and  C_21 
ROOT
HETATM    1  C   UNL     1      -3.166   5.403 -35.115  1.00  0.00     0.073 C 
HETATM    2  C   UNL     1      -2.502   6.152 -34.019  1.00  0.00     0.065 A 
HETATM    3  N   UNL     1      -1.612   7.110 -34.309  1.00  0.00    -0.177 NA
HETATM    4  N   UNL     1      -1.176   7.509 -33.107  1.00  0.00    -0.262 N 
HETATM    5  H   UNL     1      -0.488   8.251 -33.080  1.00  0.00     0.191 HD
HETATM    6  C   UNL     1      -1.795   6.904 -32.045  1.00  0.00     0.137 A 
HETATM    7  C   UNL     1      -2.641   5.964 -32.612  1.00  0.00     0.046 A 
ENDROOT
BRANCH   6   8
HETATM    8  N   UNL     1      -1.488   7.279 -30.746  1.00  0.00    -0.307 N 
HETATM    9  C   UNL     1      -0.267   6.975 -30.155  1.00  0.00     0.260 C 
HETATM   10  O   UNL     1       0.596   6.248 -30.632  1.00  0.00    -0.267 OA
HETATM   11  H   UNL     1      -2.233   7.636 -30.163  1.00  0.00     0.170 HD
BRANCH   9  12
HETATM   12  C   UNL     1      -0.075   7.518 -28.777  1.00  0.00     0.065 A 
HETATM   13  C   UNL     1      -1.125   7.493 -27.848  1.00  0.00     0.086 A 
HETATM   14  C   UNL     1      -0.950   7.999 -26.551  1.00  0.00     0.074 A 
HETATM   15  C   UNL     1       0.265   8.571 -26.184  1.00  0.00     0.070 A 
HETATM   16  C   UNL     1       1.308   8.617 -27.112  1.00  0.00     0.038 A 
HETATM   17  C   UNL     1       1.142   8.104 -28.402  1.00  0.00     0.022 A 
BRANCH  13  18
HETATM   18  O   UNL     1      -2.321   6.889 -28.138  1.00  0.00    -0.355 OA
HETATM   19  C   UNL     1      -3.389   7.546 -27.449  1.00  0.00     0.210 C 
ENDBRANCH  13  18
BRANCH  15  20
HETATM   20  O   UNL     1       0.564   9.107 -24.962  1.00  0.00    -0.356 OA
HETATM   21  C   UNL     1      -0.374  10.032 -24.422  1.00  0.00     0.210 C 
ENDBRANCH  15  20
ENDBRANCH   9  12
ENDBRANCH   6   8
BRANCH   7  22
HETATM   22  C   UNL     1      -3.347   4.908 -31.908  1.00  0.00    -0.020 A 
HETATM   23  C   UNL     1      -4.535   5.178 -31.218  1.00  0.00     0.014 A 
HETATM   24  C   UNL     1      -5.235   4.145 -30.589  1.00  0.00     0.020 A 
HETATM   25  C   UNL     1      -4.751   2.840 -30.653  1.00  0.00     0.011 A 
HETATM   26 BR   UNL     1      -5.703   1.442 -29.808  1.00  0.00    -0.051 Br
HETATM   27  C   UNL     1      -3.572   2.555 -31.338  1.00  0.00     0.020 A 
HETATM   28  C   UNL     1      -2.874   3.587 -31.967  1.00  0.00     0.014 A 
ENDBRANCH   7  22
TORSDOF 5
ENDMDL
MODEL 10
REMARK VINA RESULT:      -7.1      3.212      4.041
REMARK  5 active torsions:
REMARK  status: ('A' for Active; 'I' for Inactive)
REMARK    1  A    between atoms: C_6  and  N_7 
REMARK       I    between atoms: N_7  and  C_8 
REMARK    2  A    between atoms: C_8  and  C_9 
REMARK    3  A    between atoms: C_10  and  O_11 
REMARK    4  A    between atoms: C_14  and  O_15 
REMARK    5  A    between atoms: C_20  and  C_21 
ROOT
HETATM    1  C   UNL     1      -8.602   5.566 -30.093  1.00  0.00     0.073 C 
HETATM    2  C   UNL     1      -7.880   4.301 -30.384  1.00  0.00     0.065 A 
HETATM    3  N   UNL     1      -6.760   4.002 -29.712  1.00  0.00    -0.177 NA
HETATM    4  N   UNL     1      -6.354   2.854 -30.271  1.00  0.00    -0.262 N 
HETATM    5  H   UNL     1      -5.512   2.428 -29.907  1.00  0.00     0.191 HD
HETATM    6  C   UNL     1      -7.198   2.356 -31.228  1.00  0.00     0.137 A 
HETATM    7  C   UNL     1      -8.191   3.313 -31.365  1.00  0.00     0.046 A 
ENDROOT
BRANCH   6   8
HETATM    8  N   UNL     1      -6.931   1.138 -31.835  1.00  0.00    -0.307 N 
HETATM    9  C   UNL     1      -6.281   1.046 -33.060  1.00  0.00     0.260 C 
HETATM   10  O   UNL     1      -6.004   1.986 -33.795  1.00  0.00    -0.267 OA
HETATM   11  H   UNL     1      -7.367   0.309 -31.454  1.00  0.00     0.170 HD
BRANCH   9  12
HETATM   12  C   UNL     1      -6.010  -0.345 -33.533  1.00  0.00     0.065 A 
HETATM   13  C   UNL     1      -4.730  -0.904 -33.408  1.00  0.00     0.086 A 
HETATM   14  C   UNL     1      -4.470  -2.210 -33.847  1.00  0.00     0.074 A 
HETATM   15  C   UNL     1      -5.478  -2.956 -34.453  1.00  0.00     0.070 A 
HETATM   16  C   UNL     1      -6.749  -2.396 -34.600  1.00  0.00     0.038 A 
HETATM   17  C   UNL     1      -7.016  -1.098 -34.153  1.00  0.00     0.022 A 
BRANCH  13  18
HETATM   18  O   UNL     1      -3.720  -0.236 -32.766  1.00  0.00    -0.355 OA
HETATM   19  C   UNL     1      -3.280  -0.980 -31.625  1.00  0.00     0.210 C 
ENDBRANCH  13  18
BRANCH  15  20
HETATM   20  O   UNL     1      -5.356  -4.230 -34.934  1.00  0.00    -0.356 OA
HETATM   21  C   UNL     1      -4.486  -5.103 -34.221  1.00  0.00     0.210 C 
ENDBRANCH  15  20
ENDBRANCH   9  12
ENDBRANCH   6   8
BRANCH   7  22
HETATM   22  C   UNL     1      -9.195   3.367 -32.413  1.00  0.00    -0.020 A 
HETATM   23  C   UNL     1      -8.999   4.158 -33.550  1.00  0.00     0.014 A 
HETATM   24  C   UNL     1      -9.946   4.161 -34.578  1.00  0.00     0.020 A 
HETATM   25  C   UNL     1     -11.088   3.369 -34.471  1.00  0.00     0.011 A 
HETATM   26 BR   UNL     1     -12.365   3.369 -35.865  1.00  0.00    -0.051 Br
HETATM   27  C   UNL     1     -11.295   2.575 -33.346  1.00  0.00     0.020 A 
HETATM   28  C   UNL     1     -10.348   2.571 -32.320  1.00  0.00     0.014 A 
ENDBRANCH   7  22
TORSDOF 5
ENDMDL
