MODEL 1
REMARK VINA RESULT:      -8.0      0.000      0.000
REMARK  8 active torsions:
REMARK  status: ('A' for Active; 'I' for Inactive)
REMARK    1  A    between atoms: C_2  and  O_3 
REMARK    2  A    between atoms: O_3  and  C_4 
REMARK    3  A    between atoms: C_5  and  O_6 
REMARK    4  A    between atoms: O_6  and  C_7 
REMARK       I    between atoms: C_7  and  N_8 
REMARK    5  A    between atoms: C_18  and  C_19 
REMARK    6  A    between atoms: C_23  and  N_24 
REMARK    7  A    between atoms: C_31  and  C_32 
REMARK    8  A    between atoms: C_35  and  O_36 
ROOT
HETATM    1  C   UNL     1      -0.487   7.857 -29.097  1.00  0.00     0.106 A 
HETATM    2  C   UNL     1       0.079   8.358 -27.764  1.00  0.00     0.081 A 
HETATM    3  C   UNL     1      -0.199   9.713 -27.419  1.00  0.00     0.100 C 
HETATM    4  N   UNL     1      -0.440  10.818 -27.157  1.00  0.00    -0.191 NA
HETATM    5  C   UNL     1       0.874   7.598 -26.963  1.00  0.00     0.140 A 
HETATM    6  O   UNL     1       1.229   6.281 -27.300  1.00  0.00    -0.279 OA
HETATM    7  C   UNL     1       0.800   5.836 -28.474  1.00  0.00     0.175 A 
HETATM    8  C   UNL     1       0.008   6.480 -29.389  1.00  0.00     0.040 A 
HETATM    9  N   UNL     1       1.074   4.610 -28.980  1.00  0.00    -0.256 N 
HETATM   10  H   UNL     1       1.631   3.870 -28.569  1.00  0.00     0.191 HD
HETATM   11  N   UNL     1       0.494   4.400 -30.175  1.00  0.00    -0.172 NA
HETATM   12  C   UNL     1      -0.150   5.550 -30.455  1.00  0.00     0.099 A 
ENDROOT
BRANCH   1  13
HETATM   13  C   UNL     1      -2.016   7.837 -29.126  1.00  0.00    -0.040 A 
HETATM   14  C   UNL     1      -2.804   7.092 -28.228  1.00  0.00     0.030 A 
HETATM   15  C   UNL     1      -4.192   7.058 -28.360  1.00  0.00     0.048 A 
HETATM   16  C   UNL     1      -4.814   7.817 -29.353  1.00  0.00     0.131 A 
HETATM   17 BR   UNL     1      -5.190   5.967 -27.173  1.00  0.00    -0.048 Br
HETATM   18  C   UNL     1      -4.072   8.671 -30.177  1.00  0.00     0.104 A 
HETATM   19  C   UNL     1      -2.677   8.642 -30.083  1.00  0.00     0.048 A 
BRANCH  16  20
HETATM   20  O   UNL     1      -6.206   7.755 -29.486  1.00  0.00    -0.257 OA
BRANCH  20  21
HETATM   21  C   UNL     1      -6.605   6.882 -30.493  1.00  0.00     0.368 C 
HETATM   22  N   UNL     1      -7.703   7.351 -31.194  1.00  0.00    -0.324 N 
HETATM   23  C   UNL     1      -8.092   6.683 -32.433  1.00  0.00     0.154 C 
HETATM   24  C   UNL     1      -8.284   8.676 -30.992  1.00  0.00     0.154 C 
HETATM   25  C   UNL     1      -9.604   6.761 -32.657  1.00  0.00     0.187 C 
HETATM   26  O   UNL     1     -10.070   8.117 -32.574  1.00  0.00    -0.388 OA
HETATM   27  C   UNL     1      -9.791   8.664 -31.276  1.00  0.00     0.187 C 
HETATM   28  O   UNL     1      -6.073   5.801 -30.736  1.00  0.00    -0.238 OA
ENDBRANCH  20  21
ENDBRANCH  16  20
BRANCH  18  29
HETATM   29  O   UNL     1      -4.788   9.459 -31.035  1.00  0.00    -0.349 OA
BRANCH  29  30
HETATM   30  C   UNL     1      -4.936  10.848 -30.737  1.00  0.00     0.171 C 
HETATM   31  C   UNL     1      -5.956  11.514 -31.646  1.00  0.00     0.034 C 
ENDBRANCH  29  30
ENDBRANCH  18  29
ENDBRANCH   1  13
BRANCH   5  32
HETATM   32  N   UNL     1       1.427   8.005 -25.769  1.00  0.00    -0.282 NA
HETATM   33  H   UNL     1       2.298   8.526 -25.840  1.00  0.00     0.126 HD
HETATM   34  H   UNL     1       0.745   8.450 -25.161  1.00  0.00     0.126 HD
ENDBRANCH   5  32
BRANCH  12  35
HETATM   35  C   UNL     1      -0.926   5.690 -31.684  1.00  0.00    -0.005 A 
HETATM   36  C   UNL     1      -1.905   4.741 -32.001  1.00  0.00     0.016 A 
HETATM   37  C   UNL     1      -2.673   4.877 -33.160  1.00  0.00     0.037 A 
HETATM   38  C   UNL     1      -2.478   5.960 -34.018  1.00  0.00     0.068 A 
HETATM   39  C   UNL     1      -1.492   6.900 -33.717  1.00  0.00     0.037 A 
HETATM   40  C   UNL     1      -0.719   6.765 -32.556  1.00  0.00     0.016 A 
BRANCH  38  41
HETATM   41  O   UNL     1      -3.291   5.974 -35.118  1.00  0.00    -0.356 OA
HETATM   42  C   UNL     1      -4.244   4.924 -35.218  1.00  0.00     0.210 C 
ENDBRANCH  38  41
ENDBRANCH  12  35
TORSDOF 8
ENDMDL
MODEL 2
REMARK VINA RESULT:      -7.8      4.732      7.050
REMARK  8 active torsions:
REMARK  status: ('A' for Active; 'I' for Inactive)
REMARK    1  A    between atoms: C_2  and  O_3 
REMARK    2  A    between atoms: O_3  and  C_4 
REMARK    3  A    between atoms: C_5  and  O_6 
REMARK    4  A    between atoms: O_6  and  C_7 
REMARK       I    between atoms: C_7  and  N_8 
REMARK    5  A    between atoms: C_18  and  C_19 
REMARK    6  A    between atoms: C_23  and  N_24 
REMARK    7  A    between atoms: C_31  and  C_32 
REMARK    8  A    between atoms: C_35  and  O_36 
ROOT
HETATM    1  C   UNL     1      -4.969   3.257 -32.920  1.00  0.00     0.106 A 
HETATM    2  C   UNL     1      -3.697   4.111 -32.938  1.00  0.00     0.081 A 
HETATM    3  C   UNL     1      -3.684   5.222 -33.833  1.00  0.00     0.100 C 
HETATM    4  N   UNL     1      -3.697   6.121 -34.566  1.00  0.00    -0.191 NA
HETATM    5  C   UNL     1      -2.590   3.810 -32.207  1.00  0.00     0.140 A 
HETATM    6  O   UNL     1      -2.537   2.686 -31.366  1.00  0.00    -0.279 OA
HETATM    7  C   UNL     1      -3.602   1.895 -31.370  1.00  0.00     0.175 A 
HETATM    8  C   UNL     1      -4.779   2.057 -32.055  1.00  0.00     0.040 A 
HETATM    9  N   UNL     1      -3.716   0.751 -30.652  1.00  0.00    -0.256 N 
HETATM   10  H   UNL     1      -3.035   0.328 -30.032  1.00  0.00     0.191 HD
HETATM   11  N   UNL     1      -4.909   0.153 -30.814  1.00  0.00    -0.172 NA
HETATM   12  C   UNL     1      -5.571   0.931 -31.693  1.00  0.00     0.099 A 
ENDROOT
BRANCH   1  13
HETATM   13  C   UNL     1      -6.195   4.022 -32.422  1.00  0.00    -0.040 A 
HETATM   14  C   UNL     1      -6.318   4.533 -31.116  1.00  0.00     0.030 A 
HETATM   15  C   UNL     1      -7.497   5.155 -30.704  1.00  0.00     0.048 A 
HETATM   16  C   UNL     1      -8.545   5.328 -31.610  1.00  0.00     0.131 A 
HETATM   17 BR   UNL     1      -7.632   5.744 -28.906  1.00  0.00    -0.048 Br
HETATM   18  C   UNL     1      -8.405   4.951 -32.952  1.00  0.00     0.104 A 
HETATM   19  C   UNL     1      -7.249   4.265 -33.334  1.00  0.00     0.048 A 
BRANCH  16  20
HETATM   20  O   UNL     1      -9.729   5.934 -31.175  1.00  0.00    -0.257 OA
BRANCH  20  21
HETATM   21  C   UNL     1     -10.729   5.007 -30.900  1.00  0.00     0.368 C 
HETATM   22  N   UNL     1     -11.978   5.438 -31.316  1.00  0.00    -0.324 N 
HETATM   23  C   UNL     1     -13.088   4.490 -31.329  1.00  0.00     0.154 C 
HETATM   24  C   UNL     1     -12.194   6.662 -32.085  1.00  0.00     0.154 C 
HETATM   25  C   UNL     1     -14.422   5.190 -31.058  1.00  0.00     0.187 C 
HETATM   26  O   UNL     1     -14.614   6.300 -31.949  1.00  0.00    -0.388 OA
HETATM   27  C   UNL     1     -13.568   7.268 -31.776  1.00  0.00     0.187 C 
HETATM   28  O   UNL     1     -10.553   3.932 -30.332  1.00  0.00    -0.238 OA
ENDBRANCH  20  21
ENDBRANCH  16  20
BRANCH  18  29
HETATM   29  O   UNL     1      -9.443   5.272 -33.783  1.00  0.00    -0.349 OA
BRANCH  29  30
HETATM   30  C   UNL     1     -10.051   4.239 -34.558  1.00  0.00     0.171 C 
HETATM   31  C   UNL     1     -11.354   4.702 -35.190  1.00  0.00     0.034 C 
ENDBRANCH  29  30
ENDBRANCH  18  29
ENDBRANCH   1  13
BRANCH   5  32
HETATM   32  N   UNL     1      -1.415   4.528 -32.203  1.00  0.00    -0.282 NA
HETATM   33  H   UNL     1      -0.691   4.195 -32.834  1.00  0.00     0.126 HD
HETATM   34  H   UNL     1      -1.577   5.530 -32.274  1.00  0.00     0.126 HD
ENDBRANCH   5  32
BRANCH  12  35
HETATM   35  C   UNL     1      -6.935   0.604 -32.098  1.00  0.00    -0.005 A 
HETATM   36  C   UNL     1      -8.019   1.133 -31.387  1.00  0.00     0.016 A 
HETATM   37  C   UNL     1      -9.329   0.849 -31.781  1.00  0.00     0.037 A 
HETATM   38  C   UNL     1      -9.578   0.036 -32.887  1.00  0.00     0.068 A 
HETATM   39  C   UNL     1      -8.502  -0.508 -33.590  1.00  0.00     0.037 A 
HETATM   40  C   UNL     1      -7.188  -0.227 -33.197  1.00  0.00     0.016 A 
BRANCH  38  41
HETATM   41  O   UNL     1     -10.902  -0.166 -33.163  1.00  0.00    -0.356 OA
HETATM   42  C   UNL     1     -11.643   0.968 -33.591  1.00  0.00     0.210 C 
ENDBRANCH  38  41
ENDBRANCH  12  35
TORSDOF 8
ENDMDL
MODEL 3
REMARK VINA RESULT:      -7.4      5.742      9.900
REMARK  8 active torsions:
REMARK  status: ('A' for Active; 'I' for Inactive)
REMARK    1  A    between atoms: C_2  and  O_3 
REMARK    2  A    between atoms: O_3  and  C_4 
REMARK    3  A    between atoms: C_5  and  O_6 
REMARK    4  A    between atoms: O_6  and  C_7 
REMARK       I    between atoms: C_7  and  N_8 
REMARK    5  A    between atoms: C_18  and  C_19 
REMARK    6  A    between atoms: C_23  and  N_24 
REMARK    7  A    between atoms: C_31  and  C_32 
REMARK    8  A    between atoms: C_35  and  O_36 
ROOT
HETATM    1  C   UNL     1      -9.842   5.596 -31.407  1.00  0.00     0.106 A 
HETATM    2  C   UNL     1      -9.000   6.503 -30.505  1.00  0.00     0.081 A 
HETATM    3  C   UNL     1      -8.371   5.885 -29.384  1.00  0.00     0.100 C 
HETATM    4  N   UNL     1      -7.867   5.361 -28.479  1.00  0.00    -0.191 NA
HETATM    5  C   UNL     1      -8.897   7.847 -30.691  1.00  0.00     0.140 A 
HETATM    6  O   UNL     1      -9.556   8.505 -31.743  1.00  0.00    -0.279 OA
HETATM    7  C   UNL     1     -10.338   7.757 -32.510  1.00  0.00     0.175 A 
HETATM    8  C   UNL     1     -10.552   6.404 -32.442  1.00  0.00     0.040 A 
HETATM    9  N   UNL     1     -11.077   8.223 -33.545  1.00  0.00    -0.256 N 
HETATM   10  H   UNL     1     -11.157   9.176 -33.881  1.00  0.00     0.191 HD
HETATM   11  N   UNL     1     -11.760   7.251 -34.175  1.00  0.00    -0.172 NA
HETATM   12  C   UNL     1     -11.466   6.125 -33.497  1.00  0.00     0.099 A 
ENDROOT
BRANCH   1  13
HETATM   13  C   UNL     1      -9.015   4.524 -32.117  1.00  0.00    -0.040 A 
HETATM   14  C   UNL     1      -9.283   3.145 -32.026  1.00  0.00     0.030 A 
HETATM   15  C   UNL     1      -8.442   2.215 -32.637  1.00  0.00     0.048 A 
HETATM   16  C   UNL     1      -7.357   2.655 -33.398  1.00  0.00     0.131 A 
HETATM   17 BR   UNL     1      -8.808   0.369 -32.404  1.00  0.00    -0.048 Br
HETATM   18  C   UNL     1      -7.140   4.020 -33.619  1.00  0.00     0.104 A 
HETATM   19  C   UNL     1      -7.945   4.941 -32.943  1.00  0.00     0.048 A 
BRANCH  16  20
HETATM   20  O   UNL     1      -6.510   1.709 -33.987  1.00  0.00    -0.257 OA
BRANCH  20  21
HETATM   21  C   UNL     1      -5.449   1.359 -33.158  1.00  0.00     0.368 C 
HETATM   22  N   UNL     1      -5.042   0.048 -33.347  1.00  0.00    -0.324 N 
HETATM   23  C   UNL     1      -3.791  -0.400 -32.742  1.00  0.00     0.154 C 
HETATM   24  C   UNL     1      -5.573  -0.819 -34.396  1.00  0.00     0.154 C 
HETATM   25  C   UNL     1      -3.849  -1.886 -32.379  1.00  0.00     0.187 C 
HETATM   26  O   UNL     1      -4.250  -2.680 -33.506  1.00  0.00    -0.388 OA
HETATM   27  C   UNL     1      -5.556  -2.287 -33.956  1.00  0.00     0.187 C 
HETATM   28  O   UNL     1      -4.930   2.103 -32.329  1.00  0.00    -0.238 OA
ENDBRANCH  20  21
ENDBRANCH  16  20
BRANCH  18  29
HETATM   29  O   UNL     1      -6.123   4.342 -34.475  1.00  0.00    -0.349 OA
BRANCH  29  30
HETATM   30  C   UNL     1      -5.064   5.177 -34.006  1.00  0.00     0.171 C 
HETATM   31  C   UNL     1      -3.912   5.236 -34.997  1.00  0.00     0.034 C 
ENDBRANCH  29  30
ENDBRANCH  18  29
ENDBRANCH   1  13
BRANCH   5  32
HETATM   32  N   UNL     1      -8.174   8.710 -29.899  1.00  0.00    -0.282 NA
HETATM   33  H   UNL     1      -7.400   8.297 -29.385  1.00  0.00     0.126 HD
HETATM   34  H   UNL     1      -7.914   9.560 -30.394  1.00  0.00     0.126 HD
ENDBRANCH   5  32
BRANCH  12  35
HETATM   35  C   UNL     1     -12.017   4.838 -33.914  1.00  0.00    -0.005 A 
HETATM   36  C   UNL     1     -12.944   4.179 -33.097  1.00  0.00     0.016 A 
HETATM   37  C   UNL     1     -13.497   2.961 -33.497  1.00  0.00     0.037 A 
HETATM   38  C   UNL     1     -13.137   2.381 -34.714  1.00  0.00     0.068 A 
HETATM   39  C   UNL     1     -12.200   3.025 -35.525  1.00  0.00     0.037 A 
HETATM   40  C   UNL     1     -11.642   4.246 -35.126  1.00  0.00     0.016 A 
BRANCH  38  41
HETATM   41  O   UNL     1     -13.747   1.188 -34.984  1.00  0.00    -0.356 OA
HETATM   42  C   UNL     1     -14.877   0.857 -34.188  1.00  0.00     0.210 C 
ENDBRANCH  38  41
ENDBRANCH  12  35
TORSDOF 8
ENDMDL
MODEL 4
REMARK VINA RESULT:      -7.3      3.051      4.322
REMARK  8 active torsions:
REMARK  status: ('A' for Active; 'I' for Inactive)
REMARK    1  A    between atoms: C_2  and  O_3 
REMARK    2  A    between atoms: O_3  and  C_4 
REMARK    3  A    between atoms: C_5  and  O_6 
REMARK    4  A    between atoms: O_6  and  C_7 
REMARK       I    between atoms: C_7  and  N_8 
REMARK    5  A    between atoms: C_18  and  C_19 
REMARK    6  A    between atoms: C_23  and  N_24 
REMARK    7  A    between atoms: C_31  and  C_32 
REMARK    8  A    between atoms: C_35  and  O_36 
ROOT
HETATM    1  C   UNL     1      -4.024   7.981 -28.253  1.00  0.00     0.106 A 
HETATM    2  C   UNL     1      -4.714   8.311 -26.926  1.00  0.00     0.081 A 
HETATM    3  C   UNL     1      -5.917   9.072 -27.002  1.00  0.00     0.100 C 
HETATM    4  N   UNL     1      -6.896   9.690 -27.087  1.00  0.00    -0.191 NA
HETATM    5  C   UNL     1      -4.192   7.976 -25.715  1.00  0.00     0.140 A 
HETATM    6  O   UNL     1      -2.974   7.288 -25.594  1.00  0.00    -0.279 OA
HETATM    7  C   UNL     1      -2.324   7.035 -26.722  1.00  0.00     0.175 A 
HETATM    8  C   UNL     1      -2.711   7.317 -28.007  1.00  0.00     0.040 A 
HETATM    9  N   UNL     1      -1.121   6.415 -26.798  1.00  0.00    -0.256 N 
HETATM   10  H   UNL     1      -0.545   6.067 -26.040  1.00  0.00     0.191 HD
HETATM   11  N   UNL     1      -0.696   6.258 -28.064  1.00  0.00    -0.172 NA
HETATM   12  C   UNL     1      -1.652   6.827 -28.824  1.00  0.00     0.099 A 
ENDROOT
BRANCH   1  13
HETATM   13  C   UNL     1      -4.863   7.073 -29.153  1.00  0.00    -0.040 A 
HETATM   14  C   UNL     1      -5.146   5.727 -28.856  1.00  0.00     0.030 A 
HETATM   15  C   UNL     1      -5.854   4.933 -29.759  1.00  0.00     0.048 A 
HETATM   16  C   UNL     1      -6.340   5.492 -30.942  1.00  0.00     0.131 A 
HETATM   17 BR   UNL     1      -6.128   3.104 -29.339  1.00  0.00    -0.048 Br
HETATM   18  C   UNL     1      -6.192   6.859 -31.206  1.00  0.00     0.104 A 
HETATM   19  C   UNL     1      -5.419   7.627 -30.330  1.00  0.00     0.048 A 
BRANCH  16  20
HETATM   20  O   UNL     1      -7.030   4.678 -31.848  1.00  0.00    -0.257 OA
BRANCH  20  21
HETATM   21  C   UNL     1      -6.175   3.875 -32.597  1.00  0.00     0.368 C 
HETATM   22  N   UNL     1      -6.689   2.606 -32.803  1.00  0.00    -0.324 N 
HETATM   23  C   UNL     1      -6.039   1.726 -33.771  1.00  0.00     0.154 C 
HETATM   24  C   UNL     1      -8.035   2.204 -32.402  1.00  0.00     0.154 C 
HETATM   25  C   UNL     1      -6.177   0.256 -33.368  1.00  0.00     0.187 C 
HETATM   26  O   UNL     1      -7.550  -0.087 -33.123  1.00  0.00    -0.388 OA
HETATM   27  C   UNL     1      -8.082   0.712 -32.055  1.00  0.00     0.187 C 
HETATM   28  O   UNL     1      -5.075   4.224 -33.019  1.00  0.00    -0.238 OA
ENDBRANCH  20  21
ENDBRANCH  16  20
BRANCH  18  29
HETATM   29  O   UNL     1      -6.807   7.329 -32.334  1.00  0.00    -0.349 OA
BRANCH  29  30
HETATM   30  C   UNL     1      -8.095   7.936 -32.215  1.00  0.00     0.171 C 
HETATM   31  C   UNL     1      -8.012   9.452 -32.292  1.00  0.00     0.034 C 
ENDBRANCH  29  30
ENDBRANCH  18  29
ENDBRANCH   1  13
BRANCH   5  32
HETATM   32  N   UNL     1      -4.757   8.268 -24.493  1.00  0.00    -0.282 NA
HETATM   33  H   UNL     1      -4.392   7.745 -23.701  1.00  0.00     0.126 HD
HETATM   34  H   UNL     1      -4.806   9.269 -24.321  1.00  0.00     0.126 HD
ENDBRANCH   5  32
BRANCH  12  35
HETATM   35  C   UNL     1      -1.545   6.827 -30.280  1.00  0.00    -0.005 A 
HETATM   36  C   UNL     1      -1.337   5.623 -30.963  1.00  0.00     0.016 A 
HETATM   37  C   UNL     1      -1.260   5.606 -32.358  1.00  0.00     0.037 A 
HETATM   38  C   UNL     1      -1.388   6.786 -33.092  1.00  0.00     0.068 A 
HETATM   39  C   UNL     1      -1.578   7.992 -32.416  1.00  0.00     0.037 A 
HETATM   40  C   UNL     1      -1.655   8.013 -31.017  1.00  0.00     0.016 A 
BRANCH  38  41
HETATM   41  O   UNL     1      -1.289   6.632 -34.447  1.00  0.00    -0.356 OA
HETATM   42  C   UNL     1      -1.433   5.310 -34.949  1.00  0.00     0.210 C 
ENDBRANCH  38  41
ENDBRANCH  12  35
TORSDOF 8
ENDMDL
MODEL 5
REMARK VINA RESULT:      -7.3      4.363      6.810
REMARK  8 active torsions:
REMARK  status: ('A' for Active; 'I' for Inactive)
REMARK    1  A    between atoms: C_2  and  O_3 
REMARK    2  A    between atoms: O_3  and  C_4 
REMARK    3  A    between atoms: C_5  and  O_6 
REMARK    4  A    between atoms: O_6  and  C_7 
REMARK       I    between atoms: C_7  and  N_8 
REMARK    5  A    between atoms: C_18  and  C_19 
REMARK    6  A    between atoms: C_23  and  N_24 
REMARK    7  A    between atoms: C_31  and  C_32 
REMARK    8  A    between atoms: C_35  and  O_36 
ROOT
HETATM    1  C   UNL     1      -4.825   3.627 -33.144  1.00  0.00     0.106 A 
HETATM    2  C   UNL     1      -3.479   4.319 -32.907  1.00  0.00     0.081 A 
HETATM    3  C   UNL     1      -3.186   5.447 -33.728  1.00  0.00     0.100 C 
HETATM    4  N   UNL     1      -2.969   6.364 -34.406  1.00  0.00    -0.191 NA
HETATM    5  C   UNL     1      -2.555   3.861 -32.019  1.00  0.00     0.140 A 
HETATM    6  O   UNL     1      -2.776   2.713 -31.240  1.00  0.00    -0.279 OA
HETATM    7  C   UNL     1      -3.909   2.059 -31.461  1.00  0.00     0.175 A 
HETATM    8  C   UNL     1      -4.925   2.385 -32.323  1.00  0.00     0.040 A 
HETATM    9  N   UNL     1      -4.274   0.915 -30.833  1.00  0.00    -0.256 N 
HETATM   10  H   UNL     1      -3.763   0.393 -30.131  1.00  0.00     0.191 HD
HETATM   11  N   UNL     1      -5.483   0.473 -31.221  1.00  0.00    -0.172 NA
HETATM   12  C   UNL     1      -5.892   1.353 -32.156  1.00  0.00     0.099 A 
ENDROOT
BRANCH   1  13
HETATM   13  C   UNL     1      -6.022   4.519 -32.817  1.00  0.00    -0.040 A 
HETATM   14  C   UNL     1      -6.176   5.201 -31.595  1.00  0.00     0.030 A 
HETATM   15  C   UNL     1      -7.331   5.938 -31.332  1.00  0.00     0.048 A 
HETATM   16  C   UNL     1      -8.319   6.053 -32.311  1.00  0.00     0.131 A 
HETATM   17 BR   UNL     1      -7.516   6.761 -29.633  1.00  0.00    -0.048 Br
HETATM   18  C   UNL     1      -8.138   5.500 -33.585  1.00  0.00     0.104 A 
HETATM   19  C   UNL     1      -7.012   4.703 -33.811  1.00  0.00     0.048 A 
BRANCH  16  20
HETATM   20  O   UNL     1      -9.481   6.779 -32.025  1.00  0.00    -0.257 OA
BRANCH  20  21
HETATM   21  C   UNL     1      -9.422   8.085 -32.501  1.00  0.00     0.368 C 
HETATM   22  N   UNL     1     -10.625   8.502 -33.047  1.00  0.00    -0.324 N 
HETATM   23  C   UNL     1     -10.809   9.916 -33.363  1.00  0.00     0.154 C 
HETATM   24  C   UNL     1     -11.852   7.710 -32.998  1.00  0.00     0.154 C 
HETATM   25  C   UNL     1     -11.741  10.102 -34.562  1.00  0.00     0.187 C 
HETATM   26  O   UNL     1     -12.978   9.399 -34.370  1.00  0.00    -0.388 OA
HETATM   27  C   UNL     1     -12.736   7.992 -34.218  1.00  0.00     0.187 C 
HETATM   28  O   UNL     1      -8.423   8.798 -32.472  1.00  0.00    -0.238 OA
ENDBRANCH  20  21
ENDBRANCH  16  20
BRANCH  18  29
HETATM   29  O   UNL     1      -9.111   5.771 -34.508  1.00  0.00    -0.349 OA
BRANCH  29  30
HETATM   30  C   UNL     1      -9.914   4.697 -34.999  1.00  0.00     0.171 C 
HETATM   31  C   UNL     1     -11.132   4.459 -34.120  1.00  0.00     0.034 C 
ENDBRANCH  29  30
ENDBRANCH  18  29
ENDBRANCH   1  13
BRANCH   5  32
HETATM   32  N   UNL     1      -1.324   4.430 -31.783  1.00  0.00    -0.282 NA
HETATM   33  H   UNL     1      -0.910   4.930 -32.566  1.00  0.00     0.126 HD
HETATM   34  H   UNL     1      -1.305   4.962 -30.916  1.00  0.00     0.126 HD
ENDBRANCH   5  32
BRANCH  12  35
HETATM   35  C   UNL     1      -7.195   1.209 -32.798  1.00  0.00    -0.005 A 
HETATM   36  C   UNL     1      -8.357   1.565 -32.103  1.00  0.00     0.016 A 
HETATM   37  C   UNL     1      -9.608   1.456 -32.715  1.00  0.00     0.037 A 
HETATM   38  C   UNL     1      -9.720   0.992 -34.027  1.00  0.00     0.068 A 
HETATM   39  C   UNL     1      -8.566   0.619 -34.719  1.00  0.00     0.037 A 
HETATM   40  C   UNL     1      -7.311   0.726 -34.107  1.00  0.00     0.016 A 
BRANCH  38  41
HETATM   41  O   UNL     1     -10.999   0.930 -34.506  1.00  0.00    -0.356 OA
HETATM   42  C   UNL     1     -12.019   0.635 -33.560  1.00  0.00     0.210 C 
ENDBRANCH  38  41
ENDBRANCH  12  35
TORSDOF 8
ENDMDL
MODEL 6
REMARK VINA RESULT:      -7.1      3.034      5.905
REMARK  8 active torsions:
REMARK  status: ('A' for Active; 'I' for Inactive)
REMARK    1  A    between atoms: C_2  and  O_3 
REMARK    2  A    between atoms: O_3  and  C_4 
REMARK    3  A    between atoms: C_5  and  O_6 
REMARK    4  A    between atoms: O_6  and  C_7 
REMARK       I    between atoms: C_7  and  N_8 
REMARK    5  A    between atoms: C_18  and  C_19 
REMARK    6  A    between atoms: C_23  and  N_24 
REMARK    7  A    between atoms: C_31  and  C_32 
REMARK    8  A    between atoms: C_35  and  O_36 
ROOT
HETATM    1  C   UNL     1      -3.766   5.447 -31.665  1.00  0.00     0.106 A 
HETATM    2  C   UNL     1      -4.761   4.675 -32.538  1.00  0.00     0.081 A 
HETATM    3  C   UNL     1      -5.607   3.741 -31.870  1.00  0.00     0.100 C 
HETATM    4  N   UNL     1      -6.288   2.989 -31.306  1.00  0.00    -0.191 NA
HETATM    5  C   UNL     1      -4.809   4.794 -33.892  1.00  0.00     0.140 A 
HETATM    6  O   UNL     1      -3.945   5.651 -34.595  1.00  0.00    -0.279 OA
HETATM    7  C   UNL     1      -3.035   6.292 -33.874  1.00  0.00     0.175 A 
HETATM    8  C   UNL     1      -2.855   6.268 -32.515  1.00  0.00     0.040 A 
HETATM    9  N   UNL     1      -2.098   7.129 -34.383  1.00  0.00    -0.256 N 
HETATM   10  H   UNL     1      -1.942   7.383 -35.351  1.00  0.00     0.191 HD
HETATM   11  N   UNL     1      -1.315   7.671 -33.433  1.00  0.00    -0.172 NA
HETATM   12  C   UNL     1      -1.751   7.135 -32.276  1.00  0.00     0.099 A 
ENDROOT
BRANCH   1  13
HETATM   13  C   UNL     1      -4.447   6.371 -30.656  1.00  0.00    -0.040 A 
HETATM   14  C   UNL     1      -4.169   6.361 -29.277  1.00  0.00     0.030 A 
HETATM   15  C   UNL     1      -4.883   7.179 -28.401  1.00  0.00     0.048 A 
HETATM   16  C   UNL     1      -5.842   8.061 -28.901  1.00  0.00     0.131 A 
HETATM   17 BR   UNL     1      -4.520   7.056 -26.543  1.00  0.00    -0.048 Br
HETATM   18  C   UNL     1      -6.050   8.193 -30.279  1.00  0.00     0.104 A 
HETATM   19  C   UNL     1      -5.381   7.317 -31.140  1.00  0.00     0.048 A 
BRANCH  16  20
HETATM   20  O   UNL     1      -6.565   8.860 -28.007  1.00  0.00    -0.257 OA
BRANCH  20  21
HETATM   21  C   UNL     1      -7.777   8.282 -27.641  1.00  0.00     0.368 C 
HETATM   22  N   UNL     1      -8.650   9.198 -27.077  1.00  0.00    -0.324 N 
HETATM   23  C   UNL     1     -10.043   8.815 -26.868  1.00  0.00     0.154 C 
HETATM   24  C   UNL     1      -8.380  10.633 -27.008  1.00  0.00     0.154 C 
HETATM   25  C   UNL     1     -10.638   9.521 -25.648  1.00  0.00     0.187 C 
HETATM   26  O   UNL     1     -10.447  10.942 -25.727  1.00  0.00    -0.388 OA
HETATM   27  C   UNL     1      -9.047  11.257 -25.777  1.00  0.00     0.187 C 
HETATM   28  O   UNL     1      -8.056   7.093 -27.771  1.00  0.00    -0.238 OA
ENDBRANCH  20  21
ENDBRANCH  16  20
BRANCH  18  29
HETATM   29  O   UNL     1      -6.925   9.168 -30.671  1.00  0.00    -0.349 OA
BRANCH  29  30
HETATM   30  C   UNL     1      -6.465  10.195 -31.550  1.00  0.00     0.171 C 
HETATM   31  C   UNL     1      -5.457  11.109 -30.870  1.00  0.00     0.034 C 
ENDBRANCH  29  30
ENDBRANCH  18  29
ENDBRANCH   1  13
BRANCH   5  32
HETATM   32  N   UNL     1      -5.665   4.109 -34.725  1.00  0.00    -0.282 NA
HETATM   33  H   UNL     1      -5.290   3.261 -35.145  1.00  0.00     0.126 HD
HETATM   34  H   UNL     1      -6.582   3.974 -34.307  1.00  0.00     0.126 HD
ENDBRANCH   5  32
BRANCH  12  35
HETATM   35  C   UNL     1      -1.145   7.514 -31.003  1.00  0.00    -0.005 A 
HETATM   36  C   UNL     1      -1.731   8.519 -30.224  1.00  0.00     0.016 A 
HETATM   37  C   UNL     1      -1.175   8.873 -28.992  1.00  0.00     0.037 A 
HETATM   38  C   UNL     1      -0.030   8.231 -28.518  1.00  0.00     0.068 A 
HETATM   39  C   UNL     1       0.569   7.241 -29.299  1.00  0.00     0.037 A 
HETATM   40  C   UNL     1       0.015   6.885 -30.535  1.00  0.00     0.016 A 
BRANCH  38  41
HETATM   41  O   UNL     1       0.414   8.673 -27.303  1.00  0.00    -0.356 OA
HETATM   42  C   UNL     1       1.489   7.951 -26.717  1.00  0.00     0.210 C 
ENDBRANCH  38  41
ENDBRANCH  12  35
TORSDOF 8
ENDMDL
MODEL 7
REMARK VINA RESULT:      -7.1      4.608      6.844
REMARK  8 active torsions:
REMARK  status: ('A' for Active; 'I' for Inactive)
REMARK    1  A    between atoms: C_2  and  O_3 
REMARK    2  A    between atoms: O_3  and  C_4 
REMARK    3  A    between atoms: C_5  and  O_6 
REMARK    4  A    between atoms: O_6  and  C_7 
REMARK       I    between atoms: C_7  and  N_8 
REMARK    5  A    between atoms: C_18  and  C_19 
REMARK    6  A    between atoms: C_23  and  N_24 
REMARK    7  A    between atoms: C_31  and  C_32 
REMARK    8  A    between atoms: C_35  and  O_36 
ROOT
HETATM    1  C   UNL     1      -4.940   3.393 -33.115  1.00  0.00     0.106 A 
HETATM    2  C   UNL     1      -3.621   4.171 -33.147  1.00  0.00     0.081 A 
HETATM    3  C   UNL     1      -3.474   5.140 -34.184  1.00  0.00     0.100 C 
HETATM    4  N   UNL     1      -3.377   5.924 -35.034  1.00  0.00    -0.191 NA
HETATM    5  C   UNL     1      -2.592   3.924 -32.293  1.00  0.00     0.140 A 
HETATM    6  O   UNL     1      -2.669   2.931 -31.302  1.00  0.00    -0.279 OA
HETATM    7  C   UNL     1      -3.778   2.202 -31.283  1.00  0.00     0.175 A 
HETATM    8  C   UNL     1      -4.888   2.322 -32.078  1.00  0.00     0.040 A 
HETATM    9  N   UNL     1      -4.013   1.180 -30.425  1.00  0.00    -0.256 N 
HETATM   10  H   UNL     1      -3.408   0.817 -29.697  1.00  0.00     0.191 HD
HETATM   11  N   UNL     1      -5.226   0.624 -30.599  1.00  0.00    -0.172 NA
HETATM   12  C   UNL     1      -5.772   1.300 -31.629  1.00  0.00     0.099 A 
ENDROOT
BRANCH   1  13
HETATM   13  C   UNL     1      -6.151   4.281 -32.831  1.00  0.00    -0.040 A 
HETATM   14  C   UNL     1      -7.279   4.355 -33.670  1.00  0.00     0.030 A 
HETATM   15  C   UNL     1      -8.317   5.244 -33.391  1.00  0.00     0.048 A 
HETATM   16  C   UNL     1      -8.269   6.027 -32.236  1.00  0.00     0.131 A 
HETATM   17 BR   UNL     1      -9.767   5.359 -34.607  1.00  0.00    -0.048 Br
HETATM   18  C   UNL     1      -7.227   5.881 -31.311  1.00  0.00     0.104 A 
HETATM   19  C   UNL     1      -6.158   5.041 -31.637  1.00  0.00     0.048 A 
BRANCH  16  20
HETATM   20  O   UNL     1      -9.307   6.930 -31.980  1.00  0.00    -0.257 OA
BRANCH  20  21
HETATM   21  C   UNL     1     -10.434   6.307 -31.453  1.00  0.00     0.368 C 
HETATM   22  N   UNL     1     -11.597   7.015 -31.710  1.00  0.00    -0.324 N 
HETATM   23  C   UNL     1     -12.886   6.381 -31.446  1.00  0.00     0.154 C 
HETATM   24  C   UNL     1     -11.648   8.202 -32.559  1.00  0.00     0.154 C 
HETATM   25  C   UNL     1     -13.941   7.413 -31.043  1.00  0.00     0.187 C 
HETATM   26  O   UNL     1     -14.019   8.477 -32.004  1.00  0.00    -0.388 OA
HETATM   27  C   UNL     1     -12.758   9.156 -32.102  1.00  0.00     0.187 C 
HETATM   28  O   UNL     1     -10.421   5.260 -30.809  1.00  0.00    -0.238 OA
ENDBRANCH  20  21
ENDBRANCH  16  20
BRANCH  18  29
HETATM   29  O   UNL     1      -7.335   6.607 -30.156  1.00  0.00    -0.349 OA
BRANCH  29  30
HETATM   30  C   UNL     1      -7.581   5.918 -28.929  1.00  0.00     0.171 C 
HETATM   31  C   UNL     1      -8.549   6.682 -28.040  1.00  0.00     0.034 C 
ENDBRANCH  29  30
ENDBRANCH  18  29
ENDBRANCH   1  13
BRANCH   5  32
HETATM   32  N   UNL     1      -1.379   4.576 -32.292  1.00  0.00    -0.282 NA
HETATM   33  H   UNL     1      -1.422   5.591 -32.325  1.00  0.00     0.126 HD
HETATM   34  H   UNL     1      -0.755   4.227 -31.568  1.00  0.00     0.126 HD
ENDBRANCH   5  32
BRANCH  12  35
HETATM   35  C   UNL     1      -7.120   0.986 -32.096  1.00  0.00    -0.005 A 
HETATM   36  C   UNL     1      -8.225   1.598 -31.493  1.00  0.00     0.016 A 
HETATM   37  C   UNL     1      -9.518   1.326 -31.947  1.00  0.00     0.037 A 
HETATM   38  C   UNL     1      -9.728   0.444 -33.008  1.00  0.00     0.068 A 
HETATM   39  C   UNL     1      -8.631  -0.183 -33.601  1.00  0.00     0.037 A 
HETATM   40  C   UNL     1      -7.334   0.086 -33.147  1.00  0.00     0.016 A 
BRANCH  38  41
HETATM   41  O   UNL     1     -11.039   0.262 -33.351  1.00  0.00    -0.356 OA
HETATM   42  C   UNL     1     -11.782   1.433 -33.665  1.00  0.00     0.210 C 
ENDBRANCH  38  41
ENDBRANCH  12  35
TORSDOF 8
ENDMDL
MODEL 8
REMARK VINA RESULT:      -7.0      4.305      8.815
REMARK  8 active torsions:
REMARK  status: ('A' for Active; 'I' for Inactive)
REMARK    1  A    between atoms: C_2  and  O_3 
REMARK    2  A    between atoms: O_3  and  C_4 
REMARK    3  A    between atoms: C_5  and  O_6 
REMARK    4  A    between atoms: O_6  and  C_7 
REMARK       I    between atoms: C_7  and  N_8 
REMARK    5  A    between atoms: C_18  and  C_19 
REMARK    6  A    between atoms: C_23  and  N_24 
REMARK    7  A    between atoms: C_31  and  C_32 
REMARK    8  A    between atoms: C_35  and  O_36 
ROOT
HETATM    1  C   UNL     1      -8.814   3.314 -31.862  1.00  0.00     0.106 A 
HETATM    2  C   UNL     1      -9.901   4.394 -31.895  1.00  0.00     0.081 A 
HETATM    3  C   UNL     1      -9.962   5.275 -30.775  1.00  0.00     0.100 C 
HETATM    4  N   UNL     1      -9.991   5.982 -29.855  1.00  0.00    -0.191 NA
HETATM    5  C   UNL     1     -10.824   4.488 -32.890  1.00  0.00     0.140 A 
HETATM    6  O   UNL     1     -10.842   3.597 -33.976  1.00  0.00    -0.279 OA
HETATM    7  C   UNL     1      -9.948   2.617 -33.949  1.00  0.00     0.175 A 
HETATM    8  C   UNL     1      -8.969   2.384 -33.018  1.00  0.00     0.040 A 
HETATM    9  N   UNL     1      -9.841   1.646 -34.889  1.00  0.00    -0.256 N 
HETATM   10  H   UNL     1     -10.403   1.512 -35.721  1.00  0.00     0.191 HD
HETATM   11  N   UNL     1      -8.834   0.790 -34.638  1.00  0.00    -0.172 NA
HETATM   12  C   UNL     1      -8.298   1.215 -33.477  1.00  0.00     0.099 A 
ENDROOT
BRANCH   1  13
HETATM   13  C   UNL     1      -7.398   3.890 -31.892  1.00  0.00    -0.040 A 
HETATM   14  C   UNL     1      -6.709   4.204 -33.078  1.00  0.00     0.030 A 
HETATM   15  C   UNL     1      -5.390   4.655 -33.036  1.00  0.00     0.048 A 
HETATM   16  C   UNL     1      -4.763   4.855 -31.805  1.00  0.00     0.131 A 
HETATM   17 BR   UNL     1      -4.487   4.978 -34.673  1.00  0.00    -0.048 Br
HETATM   18  C   UNL     1      -5.463   4.680 -30.605  1.00  0.00     0.104 A 
HETATM   19  C   UNL     1      -6.759   4.159 -30.659  1.00  0.00     0.048 A 
BRANCH  16  20
HETATM   20  O   UNL     1      -3.432   5.287 -31.779  1.00  0.00    -0.257 OA
BRANCH  20  21
HETATM   21  C   UNL     1      -3.318   6.637 -31.460  1.00  0.00     0.368 C 
HETATM   22  N   UNL     1      -2.174   6.912 -30.729  1.00  0.00    -0.324 N 
HETATM   23  C   UNL     1      -1.778   8.303 -30.529  1.00  0.00     0.154 C 
HETATM   24  C   UNL     1      -1.137   5.921 -30.450  1.00  0.00     0.154 C 
HETATM   25  C   UNL     1      -1.056   8.489 -29.192  1.00  0.00     0.187 C 
HETATM   26  O   UNL     1       0.034   7.564 -29.059  1.00  0.00    -0.388 OA
HETATM   27  C   UNL     1      -0.447   6.212 -29.112  1.00  0.00     0.187 C 
HETATM   28  O   UNL     1      -4.138   7.501 -31.762  1.00  0.00    -0.238 OA
ENDBRANCH  20  21
ENDBRANCH  16  20
BRANCH  18  29
HETATM   29  O   UNL     1      -4.796   5.017 -29.459  1.00  0.00    -0.349 OA
BRANCH  29  30
HETATM   30  C   UNL     1      -5.513   5.668 -28.409  1.00  0.00     0.171 C 
HETATM   31  C   UNL     1      -5.026   7.092 -28.193  1.00  0.00     0.034 C 
ENDBRANCH  29  30
ENDBRANCH  18  29
ENDBRANCH   1  13
BRANCH   5  32
HETATM   32  N   UNL     1     -11.833   5.422 -32.957  1.00  0.00    -0.282 NA
HETATM   33  H   UNL     1     -12.108   5.842 -32.072  1.00  0.00     0.126 HD
HETATM   34  H   UNL     1     -11.674   6.108 -33.691  1.00  0.00     0.126 HD
ENDBRANCH   5  32
BRANCH  12  35
HETATM   35  C   UNL     1      -7.146   0.533 -32.894  1.00  0.00    -0.005 A 
HETATM   36  C   UNL     1      -6.062   0.179 -33.706  1.00  0.00     0.016 A 
HETATM   37  C   UNL     1      -4.942  -0.450 -33.155  1.00  0.00     0.037 A 
HETATM   38  C   UNL     1      -4.886  -0.735 -31.790  1.00  0.00     0.068 A 
HETATM   39  C   UNL     1      -5.972  -0.400 -30.979  1.00  0.00     0.037 A 
HETATM   40  C   UNL     1      -7.096   0.229 -31.528  1.00  0.00     0.016 A 
BRANCH  38  41
HETATM   41  O   UNL     1      -3.739  -1.355 -31.381  1.00  0.00    -0.356 OA
HETATM   42  C   UNL     1      -2.515  -0.803 -31.847  1.00  0.00     0.210 C 
ENDBRANCH  38  41
ENDBRANCH  12  35
TORSDOF 8
ENDMDL
MODEL 9
REMARK VINA RESULT:      -7.0      5.311      9.374
REMARK  8 active torsions:
REMARK  status: ('A' for Active; 'I' for Inactive)
REMARK    1  A    between atoms: C_2  and  O_3 
REMARK    2  A    between atoms: O_3  and  C_4 
REMARK    3  A    between atoms: C_5  and  O_6 
REMARK    4  A    between atoms: O_6  and  C_7 
REMARK       I    between atoms: C_7  and  N_8 
REMARK    5  A    between atoms: C_18  and  C_19 
REMARK    6  A    between atoms: C_23  and  N_24 
REMARK    7  A    between atoms: C_31  and  C_32 
REMARK    8  A    between atoms: C_35  and  O_36 
ROOT
HETATM    1  C   UNL     1      -8.958   5.852 -31.289  1.00  0.00     0.106 A 
HETATM    2  C   UNL     1      -8.118   6.825 -30.455  1.00  0.00     0.081 A 
HETATM    3  C   UNL     1      -7.582   6.322 -29.234  1.00  0.00     0.100 C 
HETATM    4  N   UNL     1      -7.153   5.891 -28.245  1.00  0.00    -0.191 NA
HETATM    5  C   UNL     1      -7.937   8.130 -30.795  1.00  0.00     0.140 A 
HETATM    6  O   UNL     1      -8.507   8.683 -31.954  1.00  0.00    -0.279 OA
HETATM    7  C   UNL     1      -9.285   7.881 -32.670  1.00  0.00     0.175 A 
HETATM    8  C   UNL     1      -9.571   6.558 -32.452  1.00  0.00     0.040 A 
HETATM    9  N   UNL     1      -9.945   8.250 -33.794  1.00  0.00    -0.256 N 
HETATM   10  H   UNL     1      -9.958   9.156 -34.247  1.00  0.00     0.191 HD
HETATM   11  N   UNL     1     -10.642   7.239 -34.342  1.00  0.00    -0.172 NA
HETATM   12  C   UNL     1     -10.443   6.192 -33.517  1.00  0.00     0.099 A 
ENDROOT
BRANCH   1  13
HETATM   13  C   UNL     1      -8.151   4.665 -31.816  1.00  0.00    -0.040 A 
HETATM   14  C   UNL     1      -8.371   3.334 -31.416  1.00  0.00     0.030 A 
HETATM   15  C   UNL     1      -7.547   2.307 -31.878  1.00  0.00     0.048 A 
HETATM   16  C   UNL     1      -6.532   2.590 -32.793  1.00  0.00     0.131 A 
HETATM   17 BR   UNL     1      -7.840   0.548 -31.233  1.00  0.00    -0.048 Br
HETATM   18  C   UNL     1      -6.372   3.880 -33.314  1.00  0.00     0.104 A 
HETATM   19  C   UNL     1      -7.155   4.913 -32.789  1.00  0.00     0.048 A 
BRANCH  16  20
HETATM   20  O   UNL     1      -5.700   1.553 -33.231  1.00  0.00    -0.257 OA
BRANCH  20  21
HETATM   21  C   UNL     1      -6.336   0.709 -34.136  1.00  0.00     0.368 C 
HETATM   22  N   UNL     1      -5.887  -0.598 -34.044  1.00  0.00    -0.324 N 
HETATM   23  C   UNL     1      -6.619  -1.651 -34.742  1.00  0.00     0.154 C 
HETATM   24  C   UNL     1      -4.956  -1.061 -33.017  1.00  0.00     0.154 C 
HETATM   25  C   UNL     1      -5.685  -2.779 -35.184  1.00  0.00     0.187 C 
HETATM   26  O   UNL     1      -4.904  -3.268 -34.083  1.00  0.00    -0.388 OA
HETATM   27  C   UNL     1      -4.092  -2.215 -33.540  1.00  0.00     0.187 C 
HETATM   28  O   UNL     1      -7.186   1.064 -34.949  1.00  0.00    -0.238 OA
ENDBRANCH  20  21
ENDBRANCH  16  20
BRANCH  18  29
HETATM   29  O   UNL     1      -5.427   4.027 -34.293  1.00  0.00    -0.349 OA
BRANCH  29  30
HETATM   30  C   UNL     1      -4.213   4.711 -33.982  1.00  0.00     0.171 C 
HETATM   31  C   UNL     1      -3.572   5.310 -35.224  1.00  0.00     0.034 C 
ENDBRANCH  29  30
ENDBRANCH  18  29
ENDBRANCH   1  13
BRANCH   5  32
HETATM   32  N   UNL     1      -7.213   9.051 -30.072  1.00  0.00    -0.282 NA
HETATM   33  H   UNL     1      -7.032   8.807 -29.101  1.00  0.00     0.126 HD
HETATM   34  H   UNL     1      -6.381   9.361 -30.568  1.00  0.00     0.126 HD
ENDBRANCH   5  32
BRANCH  12  35
HETATM   35  C   UNL     1     -11.035   4.890 -33.808  1.00  0.00    -0.005 A 
HETATM   36  C   UNL     1     -10.734   4.241 -35.011  1.00  0.00     0.016 A 
HETATM   37  C   UNL     1     -11.273   2.982 -35.290  1.00  0.00     0.037 A 
HETATM   38  C   UNL     1     -12.119   2.353 -34.375  1.00  0.00     0.068 A 
HETATM   39  C   UNL     1     -12.436   3.003 -33.181  1.00  0.00     0.037 A 
HETATM   40  C   UNL     1     -11.898   4.265 -32.900  1.00  0.00     0.016 A 
BRANCH  38  41
HETATM   41  O   UNL     1     -12.581   1.128 -34.771  1.00  0.00    -0.356 OA
HETATM   42  C   UNL     1     -13.130   0.298 -33.756  1.00  0.00     0.210 C 
ENDBRANCH  38  41
ENDBRANCH  12  35
TORSDOF 8
ENDMDL
MODEL 10
REMARK VINA RESULT:      -7.0      4.067      6.526
REMARK  8 active torsions:
REMARK  status: ('A' for Active; 'I' for Inactive)
REMARK    1  A    between atoms: C_2  and  O_3 
REMARK    2  A    between atoms: O_3  and  C_4 
REMARK    3  A    between atoms: C_5  and  O_6 
REMARK    4  A    between atoms: O_6  and  C_7 
REMARK       I    between atoms: C_7  and  N_8 
REMARK    5  A    between atoms: C_18  and  C_19 
REMARK    6  A    between atoms: C_23  and  N_24 
REMARK    7  A    between atoms: C_31  and  C_32 
REMARK    8  A    between atoms: C_35  and  O_36 
ROOT
HETATM    1  C   UNL     1      -4.864   4.104 -32.503  1.00  0.00     0.106 A 
HETATM    2  C   UNL     1      -3.462   4.686 -32.294  1.00  0.00     0.081 A 
HETATM    3  C   UNL     1      -3.226   5.992 -32.816  1.00  0.00     0.100 C 
HETATM    4  N   UNL     1      -3.058   7.057 -33.247  1.00  0.00    -0.191 NA
HETATM    5  C   UNL     1      -2.448   3.989 -31.712  1.00  0.00     0.140 A 
HETATM    6  O   UNL     1      -2.619   2.675 -31.247  1.00  0.00    -0.279 OA
HETATM    7  C   UNL     1      -3.805   2.122 -31.463  1.00  0.00     0.175 A 
HETATM    8  C   UNL     1      -4.914   2.686 -32.041  1.00  0.00     0.040 A 
HETATM    9  N   UNL     1      -4.140   0.855 -31.118  1.00  0.00    -0.256 N 
HETATM   10  H   UNL     1      -3.564   0.153 -30.668  1.00  0.00     0.191 HD
HETATM   11  N   UNL     1      -5.414   0.553 -31.424  1.00  0.00    -0.172 NA
HETATM   12  C   UNL     1      -5.902   1.662 -32.014  1.00  0.00     0.099 A 
ENDROOT
BRANCH   1  13
HETATM   13  C   UNL     1      -5.952   4.889 -31.771  1.00  0.00    -0.040 A 
HETATM   14  C   UNL     1      -7.025   5.526 -32.421  1.00  0.00     0.030 A 
HETATM   15  C   UNL     1      -7.942   6.290 -31.698  1.00  0.00     0.048 A 
HETATM   16  C   UNL     1      -7.831   6.377 -30.310  1.00  0.00     0.131 A 
HETATM   17 BR   UNL     1      -9.315   7.195 -32.643  1.00  0.00    -0.048 Br
HETATM   18  C   UNL     1      -6.856   5.648 -29.618  1.00  0.00     0.104 A 
HETATM   19  C   UNL     1      -5.900   4.945 -30.358  1.00  0.00     0.048 A 
BRANCH  16  20
HETATM   20  O   UNL     1      -8.745   7.165 -29.601  1.00  0.00    -0.257 OA
BRANCH  20  21
HETATM   21  C   UNL     1      -8.168   8.330 -29.104  1.00  0.00     0.368 C 
HETATM   22  N   UNL     1      -8.664   8.675 -27.858  1.00  0.00    -0.324 N 
HETATM   23  C   UNL     1      -7.993   9.721 -27.092  1.00  0.00     0.154 C 
HETATM   24  C   UNL     1      -9.582   7.834 -27.093  1.00  0.00     0.154 C 
HETATM   25  C   UNL     1      -8.981  10.487 -26.210  1.00  0.00     0.187 C 
HETATM   26  O   UNL     1      -9.748   9.590 -25.392  1.00  0.00    -0.388 OA
HETATM   27  C   UNL     1     -10.504   8.686 -26.213  1.00  0.00     0.187 C 
HETATM   28  O   UNL     1      -7.329   9.005 -29.696  1.00  0.00    -0.238 OA
ENDBRANCH  20  21
ENDBRANCH  16  20
BRANCH  18  29
HETATM   29  O   UNL     1      -6.908   5.708 -28.253  1.00  0.00    -0.349 OA
BRANCH  29  30
HETATM   30  C   UNL     1      -5.685   5.704 -27.515  1.00  0.00     0.171 C 
HETATM   31  C   UNL     1      -5.158   7.112 -27.291  1.00  0.00     0.034 C 
ENDBRANCH  29  30
ENDBRANCH  18  29
ENDBRANCH   1  13
BRANCH   5  32
HETATM   32  N   UNL     1      -1.166   4.454 -31.521  1.00  0.00    -0.282 NA
HETATM   33  H   UNL     1      -1.076   5.269 -30.918  1.00  0.00     0.126 HD
HETATM   34  H   UNL     1      -0.518   3.708 -31.282  1.00  0.00     0.126 HD
ENDBRANCH   5  32
BRANCH  12  35
HETATM   35  C   UNL     1      -7.289   1.717 -32.467  1.00  0.00    -0.005 A 
HETATM   36  C   UNL     1      -8.301   2.080 -31.570  1.00  0.00     0.016 A 
HETATM   37  C   UNL     1      -9.628   2.162 -31.997  1.00  0.00     0.037 A 
HETATM   38  C   UNL     1      -9.967   1.885 -33.322  1.00  0.00     0.068 A 
HETATM   39  C   UNL     1      -8.965   1.505 -34.217  1.00  0.00     0.037 A 
HETATM   40  C   UNL     1      -7.633   1.420 -33.791  1.00  0.00     0.016 A 
BRANCH  38  41
HETATM   41  O   UNL     1     -11.299   1.997 -33.609  1.00  0.00    -0.356 OA
HETATM   42  C   UNL     1     -11.730   1.457 -34.851  1.00  0.00     0.210 C 
ENDBRANCH  38  41
ENDBRANCH  12  35
TORSDOF 8
ENDMDL
