MODEL 1
REMARK VINA RESULT:      -8.0      0.000      0.000
REMARK  3 active torsions:
REMARK  status: ('A' for Active; 'I' for Inactive)
REMARK    1  A    between atoms: C_3  and  N_4 
REMARK       I    between atoms: N_4  and  C_5 
REMARK    2  A    between atoms: C_5  and  C_6 
REMARK    3  A    between atoms: C_6  and  C_7 
ROOT
HETATM    1  C   UNL     1      -5.056   1.671 -31.497  1.00  0.00     0.286 C 
HETATM    2  N   UNL     1      -4.028   2.232 -32.487  1.00  0.00    -0.056 N 
HETATM    3  H   UNL     1      -3.376   1.471 -32.756  1.00  0.00     0.278 HD
HETATM    4  H   UNL     1      -4.513   2.519 -33.347  1.00  0.00     0.278 HD
HETATM    5  C   UNL     1      -3.193   3.371 -31.959  1.00  0.00     0.209 C 
HETATM    6  C   UNL     1      -4.111   4.442 -31.341  1.00  0.00     0.115 C 
HETATM    7  N   UNL     1      -4.975   3.872 -30.320  1.00  0.00    -0.353 N 
HETATM    8  C   UNL     1      -5.619   2.674 -30.476  1.00  0.00     0.249 C 
HETATM    9  O   UNL     1      -6.592   2.406 -29.780  1.00  0.00    -0.271 OA
HETATM   10  C   UNL     1      -2.350   3.954 -33.087  1.00  0.00     0.035 C 
HETATM   11  C   UNL     1      -1.506   5.117 -32.564  1.00  0.00     0.002 C 
HETATM   12  C   UNL     1      -2.354   6.178 -31.859  1.00  0.00     0.002 C 
HETATM   13  C   UNL     1      -3.260   5.583 -30.781  1.00  0.00     0.027 C 
HETATM   14  H   UNL     1      -5.455   4.503 -29.677  1.00  0.00     0.163 HD
ENDROOT
BRANCH   1  15
HETATM   15  C   UNL     1      -4.586   0.384 -30.814  1.00  0.00     0.146 C 
BRANCH  15  16
HETATM   16  C   UNL     1      -3.403  -0.212 -31.512  1.00  0.00     0.224 C 
HETATM   17  N   UNL     1      -3.447  -1.059 -32.561  1.00  0.00    -0.325 N 
HETATM   18  H   UNL     1      -2.505  -1.334 -32.844  1.00  0.00     0.169 HD
HETATM   19  O   UNL     1      -2.297   0.001 -30.989  1.00  0.00    -0.273 OA
BRANCH  17  20
HETATM   20  C   UNL     1      -4.441  -1.652 -33.366  1.00  0.00     0.073 A 
HETATM   21  C   UNL     1      -5.567  -1.041 -33.905  1.00  0.00     0.033 A 
HETATM   22  C   UNL     1      -6.477  -1.782 -34.676  1.00  0.00     0.002 A 
HETATM   23  C   UNL     1      -6.270  -3.137 -34.925  1.00  0.00     0.003 A 
HETATM   24  C   UNL     1      -5.147  -3.764 -34.400  1.00  0.00     0.044 A 
HETATM   25  C   UNL     1      -4.254  -3.021 -33.634  1.00  0.00     0.143 A 
HETATM   26  F   UNL     1      -3.181  -3.642 -33.116  1.00  0.00    -0.204 F 
ENDBRANCH  17  20
ENDBRANCH  15  16
ENDBRANCH   1  15
TORSDOF 3
ENDMDL
MODEL 2
REMARK VINA RESULT:      -8.0      3.304      6.062
REMARK  3 active torsions:
REMARK  status: ('A' for Active; 'I' for Inactive)
REMARK    1  A    between atoms: C_3  and  N_4 
REMARK       I    between atoms: N_4  and  C_5 
REMARK    2  A    between atoms: C_5  and  C_6 
REMARK    3  A    between atoms: C_6  and  C_7 
ROOT
HETATM    1  C   UNL     1      -5.126   1.706 -32.615  1.00  0.00     0.286 C 
HETATM    2  N   UNL     1      -5.970   0.972 -33.664  1.00  0.00    -0.056 N 
HETATM    3  H   UNL     1      -6.968   1.216 -33.518  1.00  0.00     0.278 HD
HETATM    4  H   UNL     1      -5.719   1.320 -34.599  1.00  0.00     0.278 HD
HETATM    5  C   UNL     1      -5.866  -0.531 -33.626  1.00  0.00     0.209 C 
HETATM    6  C   UNL     1      -4.383  -0.947 -33.617  1.00  0.00     0.115 C 
HETATM    7  N   UNL     1      -3.663  -0.317 -32.523  1.00  0.00    -0.353 N 
HETATM    8  C   UNL     1      -3.828   1.001 -32.188  1.00  0.00     0.249 C 
HETATM    9  O   UNL     1      -2.971   1.577 -31.525  1.00  0.00    -0.271 OA
HETATM   10  C   UNL     1      -6.597  -1.127 -34.824  1.00  0.00     0.035 C 
HETATM   11  C   UNL     1      -6.489  -2.652 -34.799  1.00  0.00     0.002 C 
HETATM   12  C   UNL     1      -5.039  -3.129 -34.703  1.00  0.00     0.002 C 
HETATM   13  C   UNL     1      -4.280  -2.472 -33.550  1.00  0.00     0.027 C 
HETATM   14  H   UNL     1      -2.748  -0.683 -32.264  1.00  0.00     0.163 HD
ENDROOT
BRANCH   1  15
HETATM   15  C   UNL     1      -5.944   2.154 -31.400  1.00  0.00     0.146 C 
BRANCH  15  16
HETATM   16  C   UNL     1      -6.748   1.028 -30.829  1.00  0.00     0.224 C 
HETATM   17  N   UNL     1      -8.063   0.811 -31.034  1.00  0.00    -0.325 N 
HETATM   18  H   UNL     1      -8.379  -0.014 -30.520  1.00  0.00     0.169 HD
HETATM   19  O   UNL     1      -6.169   0.313 -29.995  1.00  0.00    -0.273 OA
BRANCH  17  20
HETATM   20  C   UNL     1      -9.105   1.413 -31.769  1.00  0.00     0.073 A 
HETATM   21  C   UNL     1      -9.612   2.699 -31.619  1.00  0.00     0.033 A 
HETATM   22  C   UNL     1     -10.673   3.143 -32.423  1.00  0.00     0.002 A 
HETATM   23  C   UNL     1     -11.235   2.314 -33.393  1.00  0.00     0.003 A 
HETATM   24  C   UNL     1     -10.737   1.028 -33.562  1.00  0.00     0.044 A 
HETATM   25  C   UNL     1      -9.689   0.596 -32.756  1.00  0.00     0.143 A 
HETATM   26  F   UNL     1      -9.228  -0.656 -32.917  1.00  0.00    -0.204 F 
ENDBRANCH  17  20
ENDBRANCH  15  16
ENDBRANCH   1  15
TORSDOF 3
ENDMDL
MODEL 3
REMARK VINA RESULT:      -8.0      2.687      3.725
REMARK  3 active torsions:
REMARK  status: ('A' for Active; 'I' for Inactive)
REMARK    1  A    between atoms: C_3  and  N_4 
REMARK       I    between atoms: N_4  and  C_5 
REMARK    2  A    between atoms: C_5  and  C_6 
REMARK    3  A    between atoms: C_6  and  C_7 
ROOT
HETATM    1  C   UNL     1      -3.504   4.089 -33.438  1.00  0.00     0.286 C 
HETATM    2  N   UNL     1      -2.504   3.876 -32.295  1.00  0.00    -0.056 N 
HETATM    3  H   UNL     1      -2.996   3.417 -31.504  1.00  0.00     0.278 HD
HETATM    4  H   UNL     1      -1.775   3.221 -32.604  1.00  0.00     0.278 HD
HETATM    5  C   UNL     1      -1.874   5.136 -31.758  1.00  0.00     0.209 C 
HETATM    6  C   UNL     1      -1.317   5.973 -32.925  1.00  0.00     0.115 C 
HETATM    7  N   UNL     1      -2.344   6.249 -33.916  1.00  0.00    -0.353 N 
HETATM    8  C   UNL     1      -3.236   5.302 -34.344  1.00  0.00     0.249 C 
HETATM    9  O   UNL     1      -3.829   5.455 -35.406  1.00  0.00    -0.271 OA
HETATM   10  C   UNL     1      -0.775   4.777 -30.765  1.00  0.00     0.035 C 
HETATM   11  C   UNL     1      -0.122   6.049 -30.222  1.00  0.00     0.002 C 
HETATM   12  C   UNL     1       0.377   6.967 -31.340  1.00  0.00     0.002 C 
HETATM   13  C   UNL     1      -0.702   7.264 -32.381  1.00  0.00     0.027 C 
HETATM   14  H   UNL     1      -2.174   6.979 -34.607  1.00  0.00     0.163 HD
ENDROOT
BRANCH   1  15
HETATM   15  C   UNL     1      -4.962   4.054 -32.970  1.00  0.00     0.146 C 
BRANCH  15  16
HETATM   16  C   UNL     1      -5.167   3.056 -31.873  1.00  0.00     0.224 C 
HETATM   17  N   UNL     1      -5.691   1.822 -32.014  1.00  0.00    -0.325 N 
HETATM   18  H   UNL     1      -5.739   1.343 -31.112  1.00  0.00     0.169 HD
HETATM   19  O   UNL     1      -4.946   3.460 -30.720  1.00  0.00    -0.273 OA
BRANCH  17  20
HETATM   20  C   UNL     1      -6.179   1.023 -33.068  1.00  0.00     0.073 A 
HETATM   21  C   UNL     1      -6.648   1.451 -34.305  1.00  0.00     0.033 A 
HETATM   22  C   UNL     1      -7.122   0.522 -35.245  1.00  0.00     0.002 A 
HETATM   23  C   UNL     1      -7.125  -0.844 -34.966  1.00  0.00     0.003 A 
HETATM   24  C   UNL     1      -6.654  -1.291 -33.738  1.00  0.00     0.044 A 
HETATM   25  C   UNL     1      -6.192  -0.362 -32.812  1.00  0.00     0.143 A 
HETATM   26  F   UNL     1      -5.756  -0.804 -31.621  1.00  0.00    -0.204 F 
ENDBRANCH  17  20
ENDBRANCH  15  16
ENDBRANCH   1  15
TORSDOF 3
ENDMDL
MODEL 4
REMARK VINA RESULT:      -7.9      3.147      4.658
REMARK  3 active torsions:
REMARK  status: ('A' for Active; 'I' for Inactive)
REMARK    1  A    between atoms: C_3  and  N_4 
REMARK       I    between atoms: N_4  and  C_5 
REMARK    2  A    between atoms: C_5  and  C_6 
REMARK    3  A    between atoms: C_6  and  C_7 
ROOT
HETATM    1  C   UNL     1      -6.467   0.414 -30.610  1.00  0.00     0.286 C 
HETATM    2  N   UNL     1      -7.734  -0.187 -31.232  1.00  0.00    -0.056 N 
HETATM    3  H   UNL     1      -7.471  -1.040 -31.761  1.00  0.00     0.278 HD
HETATM    4  H   UNL     1      -8.364  -0.494 -30.480  1.00  0.00     0.278 HD
HETATM    5  C   UNL     1      -8.467   0.722 -32.184  1.00  0.00     0.209 C 
HETATM    6  C   UNL     1      -8.690   2.094 -31.520  1.00  0.00     0.115 C 
HETATM    7  N   UNL     1      -7.437   2.670 -31.063  1.00  0.00    -0.353 N 
HETATM    8  C   UNL     1      -6.475   1.940 -30.418  1.00  0.00     0.249 C 
HETATM    9  O   UNL     1      -5.623   2.507 -29.743  1.00  0.00    -0.271 OA
HETATM   10  C   UNL     1      -9.792   0.083 -32.585  1.00  0.00     0.035 C 
HETATM   11  C   UNL     1     -10.549   1.003 -33.544  1.00  0.00     0.002 C 
HETATM   12  C   UNL     1     -10.728   2.412 -32.975  1.00  0.00     0.002 C 
HETATM   13  C   UNL     1      -9.411   3.024 -32.498  1.00  0.00     0.027 C 
HETATM   14  H   UNL     1      -7.412   3.662 -30.824  1.00  0.00     0.163 HD
ENDROOT
BRANCH   1  15
HETATM   15  C   UNL     1      -5.183  -0.055 -31.300  1.00  0.00     0.146 C 
BRANCH  15  16
HETATM   16  C   UNL     1      -5.128   0.390 -32.728  1.00  0.00     0.224 C 
HETATM   17  N   UNL     1      -5.160  -0.414 -33.810  1.00  0.00    -0.325 N 
HETATM   18  H   UNL     1      -5.092   0.133 -34.670  1.00  0.00     0.169 HD
HETATM   19  O   UNL     1      -4.909   1.598 -32.914  1.00  0.00    -0.273 OA
BRANCH  17  20
HETATM   20  C   UNL     1      -5.267  -1.797 -34.064  1.00  0.00     0.073 A 
HETATM   21  C   UNL     1      -4.270  -2.758 -33.938  1.00  0.00     0.033 A 
HETATM   22  C   UNL     1      -4.535  -4.101 -34.251  1.00  0.00     0.002 A 
HETATM   23  C   UNL     1      -5.798  -4.501 -34.685  1.00  0.00     0.003 A 
HETATM   24  C   UNL     1      -6.808  -3.556 -34.811  1.00  0.00     0.044 A 
HETATM   25  C   UNL     1      -6.533  -2.228 -34.502  1.00  0.00     0.143 A 
HETATM   26  F   UNL     1      -7.513  -1.319 -34.644  1.00  0.00    -0.204 F 
ENDBRANCH  17  20
ENDBRANCH  15  16
ENDBRANCH   1  15
TORSDOF 3
ENDMDL
MODEL 5
REMARK VINA RESULT:      -7.8     15.521     17.282
REMARK  3 active torsions:
REMARK  status: ('A' for Active; 'I' for Inactive)
REMARK    1  A    between atoms: C_3  and  N_4 
REMARK       I    between atoms: N_4  and  C_5 
REMARK    2  A    between atoms: C_5  and  C_6 
REMARK    3  A    between atoms: C_6  and  C_7 
ROOT
HETATM    1  C   UNL     1      -4.579 -13.900 -40.437  1.00  0.00     0.286 C 
HETATM    2  N   UNL     1      -3.820 -14.303 -39.166  1.00  0.00    -0.056 N 
HETATM    3  H   UNL     1      -4.219 -13.783 -38.362  1.00  0.00     0.278 HD
HETATM    4  H   UNL     1      -3.985 -15.301 -38.979  1.00  0.00     0.278 HD
HETATM    5  C   UNL     1      -2.340 -14.019 -39.193  1.00  0.00     0.209 C 
HETATM    6  C   UNL     1      -1.729 -14.583 -40.489  1.00  0.00     0.115 C 
HETATM    7  N   UNL     1      -2.410 -14.066 -41.664  1.00  0.00    -0.353 N 
HETATM    8  C   UNL     1      -3.773 -13.960 -41.745  1.00  0.00     0.249 C 
HETATM    9  O   UNL     1      -4.317 -13.871 -42.840  1.00  0.00    -0.271 OA
HETATM   10  C   UNL     1      -1.679 -14.628 -37.962  1.00  0.00     0.035 C 
HETATM   11  C   UNL     1      -0.174 -14.354 -37.985  1.00  0.00     0.002 C 
HETATM   12  C   UNL     1       0.480 -14.815 -39.289  1.00  0.00     0.002 C 
HETATM   13  C   UNL     1      -0.232 -14.269 -40.527  1.00  0.00     0.027 C 
HETATM   14  H   UNL     1      -1.963 -14.171 -42.575  1.00  0.00     0.163 HD
ENDROOT
BRANCH   1  15
HETATM   15  C   UNL     1      -5.314 -12.565 -40.294  1.00  0.00     0.146 C 
BRANCH  15  16
HETATM   16  C   UNL     1      -5.847 -12.371 -38.909  1.00  0.00     0.224 C 
HETATM   17  N   UNL     1      -7.136 -12.496 -38.532  1.00  0.00    -0.325 N 
HETATM   18  H   UNL     1      -7.242 -12.297 -37.535  1.00  0.00     0.169 HD
HETATM   19  O   UNL     1      -5.040 -11.937 -38.070  1.00  0.00    -0.273 OA
BRANCH  17  20
HETATM   20  C   UNL     1      -8.361 -12.831 -39.143  1.00  0.00     0.073 A 
HETATM   21  C   UNL     1      -9.250 -11.972 -39.779  1.00  0.00     0.033 A 
HETATM   22  C   UNL     1     -10.447 -12.464 -40.324  1.00  0.00     0.002 A 
HETATM   23  C   UNL     1     -10.766 -13.819 -40.248  1.00  0.00     0.003 A 
HETATM   24  C   UNL     1      -9.887 -14.693 -39.621  1.00  0.00     0.044 A 
HETATM   25  C   UNL     1      -8.706 -14.194 -39.081  1.00  0.00     0.143 A 
HETATM   26  F   UNL     1      -7.872 -15.046 -38.462  1.00  0.00    -0.204 F 
ENDBRANCH  17  20
ENDBRANCH  15  16
ENDBRANCH   1  15
TORSDOF 3
ENDMDL
MODEL 6
REMARK VINA RESULT:      -7.7      1.994      2.708
REMARK  3 active torsions:
REMARK  status: ('A' for Active; 'I' for Inactive)
REMARK    1  A    between atoms: C_3  and  N_4 
REMARK       I    between atoms: N_4  and  C_5 
REMARK    2  A    between atoms: C_5  and  C_6 
REMARK    3  A    between atoms: C_6  and  C_7 
ROOT
HETATM    1  C   UNL     1      -6.256   0.996 -32.204  1.00  0.00     0.286 C 
HETATM    2  N   UNL     1      -5.435   2.283 -32.065  1.00  0.00    -0.056 N 
HETATM    3  H   UNL     1      -4.428   2.032 -32.025  1.00  0.00     0.278 HD
HETATM    4  H   UNL     1      -5.560   2.855 -32.910  1.00  0.00     0.278 HD
HETATM    5  C   UNL     1      -5.740   3.102 -30.837  1.00  0.00     0.209 C 
HETATM    6  C   UNL     1      -7.261   3.319 -30.724  1.00  0.00     0.115 C 
HETATM    7  N   UNL     1      -7.977   2.054 -30.735  1.00  0.00    -0.353 N 
HETATM    8  C   UNL     1      -7.667   1.033 -31.593  1.00  0.00     0.249 C 
HETATM    9  O   UNL     1      -8.491   0.154 -31.823  1.00  0.00    -0.271 OA
HETATM   10  C   UNL     1      -4.999   4.433 -30.910  1.00  0.00     0.035 C 
HETATM   11  C   UNL     1      -5.310   5.276 -29.672  1.00  0.00     0.002 C 
HETATM   12  C   UNL     1      -6.814   5.456 -29.456  1.00  0.00     0.002 C 
HETATM   13  C   UNL     1      -7.570   4.127 -29.462  1.00  0.00     0.027 C 
HETATM   14  H   UNL     1      -8.951   2.041 -30.434  1.00  0.00     0.163 HD
ENDROOT
BRANCH   1  15
HETATM   15  C   UNL     1      -5.488  -0.252 -31.760  1.00  0.00     0.146 C 
BRANCH  15  16
HETATM   16  C   UNL     1      -4.261  -0.471 -32.589  1.00  0.00     0.224 C 
HETATM   17  N   UNL     1      -4.096  -1.432 -33.520  1.00  0.00    -0.325 N 
HETATM   18  H   UNL     1      -3.163  -1.379 -33.934  1.00  0.00     0.169 HD
HETATM   19  O   UNL     1      -3.274   0.222 -32.294  1.00  0.00    -0.273 OA
BRANCH  17  20
HETATM   20  C   UNL     1      -4.865  -2.476 -34.073  1.00  0.00     0.073 A 
HETATM   21  C   UNL     1      -6.089  -2.370 -34.724  1.00  0.00     0.033 A 
HETATM   22  C   UNL     1      -6.741  -3.517 -35.203  1.00  0.00     0.002 A 
HETATM   23  C   UNL     1      -6.176  -4.782 -35.045  1.00  0.00     0.003 A 
HETATM   24  C   UNL     1      -4.951  -4.907 -34.402  1.00  0.00     0.044 A 
HETATM   25  C   UNL     1      -4.316  -3.764 -33.928  1.00  0.00     0.143 A 
HETATM   26  F   UNL     1      -3.141  -3.900 -33.291  1.00  0.00    -0.204 F 
ENDBRANCH  17  20
ENDBRANCH  15  16
ENDBRANCH   1  15
TORSDOF 3
ENDMDL
MODEL 7
REMARK VINA RESULT:      -7.7      2.632      6.631
REMARK  3 active torsions:
REMARK  status: ('A' for Active; 'I' for Inactive)
REMARK    1  A    between atoms: C_3  and  N_4 
REMARK       I    between atoms: N_4  and  C_5 
REMARK    2  A    between atoms: C_5  and  C_6 
REMARK    3  A    between atoms: C_6  and  C_7 
ROOT
HETATM    1  C   UNL     1      -6.513   1.253 -31.790  1.00  0.00     0.286 C 
HETATM    2  N   UNL     1      -5.394   0.212 -31.916  1.00  0.00    -0.056 N 
HETATM    3  H   UNL     1      -4.480   0.702 -31.892  1.00  0.00     0.278 HD
HETATM    4  H   UNL     1      -5.416  -0.406 -31.094  1.00  0.00     0.278 HD
HETATM    5  C   UNL     1      -5.428  -0.608 -33.180  1.00  0.00     0.209 C 
HETATM    6  C   UNL     1      -6.842  -1.185 -33.384  1.00  0.00     0.115 C 
HETATM    7  N   UNL     1      -7.847  -0.136 -33.381  1.00  0.00    -0.353 N 
HETATM    8  C   UNL     1      -7.840   0.896 -32.480  1.00  0.00     0.249 C 
HETATM    9  O   UNL     1      -8.865   1.537 -32.274  1.00  0.00    -0.271 OA
HETATM   10  C   UNL     1      -4.387  -1.719 -33.100  1.00  0.00     0.035 C 
HETATM   11  C   UNL     1      -4.421  -2.563 -34.375  1.00  0.00     0.002 C 
HETATM   12  C   UNL     1      -5.822  -3.096 -34.681  1.00  0.00     0.002 C 
HETATM   13  C   UNL     1      -6.881  -1.994 -34.683  1.00  0.00     0.027 C 
HETATM   14  H   UNL     1      -8.779  -0.349 -33.736  1.00  0.00     0.163 HD
ENDROOT
BRANCH   1  15
HETATM   15  C   UNL     1      -6.056   2.667 -32.156  1.00  0.00     0.146 C 
BRANCH  15  16
HETATM   16  C   UNL     1      -5.071   3.205 -31.165  1.00  0.00     0.224 C 
HETATM   17  N   UNL     1      -3.985   3.951 -31.453  1.00  0.00    -0.325 N 
HETATM   18  H   UNL     1      -3.466   4.178 -30.602  1.00  0.00     0.169 HD
HETATM   19  O   UNL     1      -5.210   2.817 -29.994  1.00  0.00    -0.273 OA
BRANCH  17  20
HETATM   20  C   UNL     1      -3.387   4.500 -32.605  1.00  0.00     0.073 A 
HETATM   21  C   UNL     1      -4.005   4.805 -33.813  1.00  0.00     0.033 A 
HETATM   22  C   UNL     1      -3.258   5.333 -34.879  1.00  0.00     0.002 A 
HETATM   23  C   UNL     1      -1.891   5.571 -34.749  1.00  0.00     0.003 A 
HETATM   24  C   UNL     1      -1.258   5.278 -33.547  1.00  0.00     0.044 A 
HETATM   25  C   UNL     1      -2.006   4.751 -32.500  1.00  0.00     0.143 A 
HETATM   26  F   UNL     1      -1.380   4.455 -31.348  1.00  0.00    -0.204 F 
ENDBRANCH  17  20
ENDBRANCH  15  16
ENDBRANCH   1  15
TORSDOF 3
ENDMDL
MODEL 8
REMARK VINA RESULT:      -7.6      3.150      4.233
REMARK  3 active torsions:
REMARK  status: ('A' for Active; 'I' for Inactive)
REMARK    1  A    between atoms: C_3  and  N_4 
REMARK       I    between atoms: N_4  and  C_5 
REMARK    2  A    between atoms: C_5  and  C_6 
REMARK    3  A    between atoms: C_6  and  C_7 
ROOT
HETATM    1  C   UNL     1      -8.398   0.290 -31.562  1.00  0.00     0.286 C 
HETATM    2  N   UNL     1      -9.291   1.469 -31.159  1.00  0.00    -0.056 N 
HETATM    3  H   UNL     1     -10.028   1.590 -31.881  1.00  0.00     0.278 HD
HETATM    4  H   UNL     1      -9.777   1.238 -30.283  1.00  0.00     0.278 HD
HETATM    5  C   UNL     1      -8.578   2.789 -31.022  1.00  0.00     0.209 C 
HETATM    6  C   UNL     1      -7.335   2.616 -30.129  1.00  0.00     0.115 C 
HETATM    7  N   UNL     1      -6.464   1.568 -30.633  1.00  0.00    -0.353 N 
HETATM    8  C   UNL     1      -6.935   0.368 -31.094  1.00  0.00     0.249 C 
HETATM    9  O   UNL     1      -6.184  -0.599 -31.166  1.00  0.00    -0.271 OA
HETATM   10  C   UNL     1      -9.530   3.830 -30.444  1.00  0.00     0.035 C 
HETATM   11  C   UNL     1      -8.812   5.172 -30.292  1.00  0.00     0.002 C 
HETATM   12  C   UNL     1      -7.519   5.049 -29.483  1.00  0.00     0.002 C 
HETATM   13  C   UNL     1      -6.597   3.951 -30.014  1.00  0.00     0.027 C 
HETATM   14  H   UNL     1      -5.509   1.512 -30.279  1.00  0.00     0.163 HD
ENDROOT
BRANCH   1  15
HETATM   15  C   UNL     1      -8.490  -0.045 -33.054  1.00  0.00     0.146 C 
BRANCH  15  16
HETATM   16  C   UNL     1      -7.294   0.450 -33.806  1.00  0.00     0.224 C 
HETATM   17  N   UNL     1      -6.321  -0.317 -34.339  1.00  0.00    -0.325 N 
HETATM   18  H   UNL     1      -5.608   0.262 -34.788  1.00  0.00     0.169 HD
HETATM   19  O   UNL     1      -7.133   1.681 -33.825  1.00  0.00    -0.273 OA
BRANCH  17  20
HETATM   20  C   UNL     1      -6.034  -1.694 -34.445  1.00  0.00     0.073 A 
HETATM   21  C   UNL     1      -6.901  -2.709 -34.830  1.00  0.00     0.033 A 
HETATM   22  C   UNL     1      -6.462  -4.043 -34.865  1.00  0.00     0.002 A 
HETATM   23  C   UNL     1      -5.152  -4.376 -34.526  1.00  0.00     0.003 A 
HETATM   24  C   UNL     1      -4.269  -3.373 -34.144  1.00  0.00     0.044 A 
HETATM   25  C   UNL     1      -4.716  -2.057 -34.108  1.00  0.00     0.143 A 
HETATM   26  F   UNL     1      -3.859  -1.098 -33.721  1.00  0.00    -0.204 F 
ENDBRANCH  17  20
ENDBRANCH  15  16
ENDBRANCH   1  15
TORSDOF 3
ENDMDL
MODEL 9
REMARK VINA RESULT:      -7.6      2.248      3.444
REMARK  3 active torsions:
REMARK  status: ('A' for Active; 'I' for Inactive)
REMARK    1  A    between atoms: C_3  and  N_4 
REMARK       I    between atoms: N_4  and  C_5 
REMARK    2  A    between atoms: C_5  and  C_6 
REMARK    3  A    between atoms: C_6  and  C_7 
ROOT
HETATM    1  C   UNL     1      -4.557   3.491 -31.065  1.00  0.00     0.286 C 
HETATM    2  N   UNL     1      -4.044   4.793 -30.439  1.00  0.00    -0.056 N 
HETATM    3  H   UNL     1      -4.859   5.390 -30.199  1.00  0.00     0.278 HD
HETATM    4  H   UNL     1      -3.570   4.576 -29.553  1.00  0.00     0.278 HD
HETATM    5  C   UNL     1      -3.138   5.610 -31.324  1.00  0.00     0.209 C 
HETATM    6  C   UNL     1      -2.023   4.711 -31.893  1.00  0.00     0.115 C 
HETATM    7  N   UNL     1      -2.575   3.558 -32.584  1.00  0.00    -0.353 N 
HETATM    8  C   UNL     1      -3.620   2.826 -32.088  1.00  0.00     0.249 C 
HETATM    9  O   UNL     1      -3.816   1.685 -32.493  1.00  0.00    -0.271 OA
HETATM   10  C   UNL     1      -2.555   6.772 -30.528  1.00  0.00     0.035 C 
HETATM   11  C   UNL     1      -1.625   7.602 -31.415  1.00  0.00     0.002 C 
HETATM   12  C   UNL     1      -0.543   6.748 -32.080  1.00  0.00     0.002 C 
HETATM   13  C   UNL     1      -1.120   5.536 -32.812  1.00  0.00     0.027 C 
HETATM   14  H   UNL     1      -1.966   3.019 -33.199  1.00  0.00     0.163 HD
ENDROOT
BRANCH   1  15
HETATM   15  C   UNL     1      -5.983   3.611 -31.610  1.00  0.00     0.146 C 
BRANCH  15  16
HETATM   16  C   UNL     1      -6.908   2.630 -30.961  1.00  0.00     0.224 C 
HETATM   17  N   UNL     1      -7.380   1.497 -31.522  1.00  0.00    -0.325 N 
HETATM   18  H   UNL     1      -8.006   1.009 -30.878  1.00  0.00     0.169 HD
HETATM   19  O   UNL     1      -7.371   2.964 -29.859  1.00  0.00    -0.273 OA
BRANCH  17  20
HETATM   20  C   UNL     1      -7.233   0.813 -32.746  1.00  0.00     0.073 A 
HETATM   21  C   UNL     1      -7.658   1.229 -34.002  1.00  0.00     0.033 A 
HETATM   22  C   UNL     1      -7.451   0.416 -35.127  1.00  0.00     0.002 A 
HETATM   23  C   UNL     1      -6.810  -0.816 -35.014  1.00  0.00     0.003 A 
HETATM   24  C   UNL     1      -6.371  -1.246 -33.768  1.00  0.00     0.044 A 
HETATM   25  C   UNL     1      -6.586  -0.434 -32.658  1.00  0.00     0.143 A 
HETATM   26  F   UNL     1      -6.175  -0.868 -31.455  1.00  0.00    -0.204 F 
ENDBRANCH  17  20
ENDBRANCH  15  16
ENDBRANCH   1  15
TORSDOF 3
ENDMDL
MODEL 10
REMARK VINA RESULT:      -7.5      1.909      2.605
REMARK  3 active torsions:
REMARK  status: ('A' for Active; 'I' for Inactive)
REMARK    1  A    between atoms: C_3  and  N_4 
REMARK       I    between atoms: N_4  and  C_5 
REMARK    2  A    between atoms: C_5  and  C_6 
REMARK    3  A    between atoms: C_6  and  C_7 
ROOT
HETATM    1  C   UNL     1      -5.314   3.440 -32.372  1.00  0.00     0.286 C 
HETATM    2  N   UNL     1      -4.852   4.651 -33.191  1.00  0.00    -0.056 N 
HETATM    3  H   UNL     1      -5.188   4.539 -34.167  1.00  0.00     0.278 HD
HETATM    4  H   UNL     1      -5.303   5.498 -32.822  1.00  0.00     0.278 HD
HETATM    5  C   UNL     1      -3.359   4.845 -33.252  1.00  0.00     0.209 C 
HETATM    6  C   UNL     1      -2.772   4.796 -31.828  1.00  0.00     0.115 C 
HETATM    7  N   UNL     1      -3.141   3.567 -31.147  1.00  0.00    -0.353 N 
HETATM    8  C   UNL     1      -4.403   3.039 -31.199  1.00  0.00     0.249 C 
HETATM    9  O   UNL     1      -4.767   2.233 -30.349  1.00  0.00    -0.271 OA
HETATM   10  C   UNL     1      -3.041   6.171 -33.933  1.00  0.00     0.035 C 
HETATM   11  C   UNL     1      -1.527   6.382 -33.990  1.00  0.00     0.002 C 
HETATM   12  C   UNL     1      -0.871   6.260 -32.613  1.00  0.00     0.002 C 
HETATM   13  C   UNL     1      -1.253   4.965 -31.895  1.00  0.00     0.027 C 
HETATM   14  H   UNL     1      -2.633   3.304 -30.302  1.00  0.00     0.163 HD
ENDROOT
BRANCH   1  15
HETATM   15  C   UNL     1      -5.669   2.231 -33.242  1.00  0.00     0.146 C 
BRANCH  15  16
HETATM   16  C   UNL     1      -6.752   1.403 -32.623  1.00  0.00     0.224 C 
HETATM   17  N   UNL     1      -6.893   0.067 -32.743  1.00  0.00    -0.325 N 
HETATM   18  H   UNL     1      -7.722  -0.256 -32.239  1.00  0.00     0.169 HD
HETATM   19  O   UNL     1      -7.662   2.031 -32.058  1.00  0.00    -0.273 OA
BRANCH  17  20
HETATM   20  C   UNL     1      -6.202  -0.991 -33.368  1.00  0.00     0.073 A 
HETATM   21  C   UNL     1      -6.616  -1.738 -34.464  1.00  0.00     0.033 A 
HETATM   22  C   UNL     1      -5.814  -2.780 -34.957  1.00  0.00     0.002 A 
HETATM   23  C   UNL     1      -4.587  -3.082 -34.368  1.00  0.00     0.003 A 
HETATM   24  C   UNL     1      -4.154  -2.341 -33.275  1.00  0.00     0.044 A 
HETATM   25  C   UNL     1      -4.959  -1.315 -32.792  1.00  0.00     0.143 A 
HETATM   26  F   UNL     1      -4.539  -0.617 -31.723  1.00  0.00    -0.204 F 
ENDBRANCH  17  20
ENDBRANCH  15  16
ENDBRANCH   1  15
TORSDOF 3
ENDMDL
