MODEL 1
REMARK VINA RESULT:     -10.2      0.000      0.000
REMARK  7 active torsions:
REMARK  status: ('A' for Active; 'I' for Inactive)
REMARK    1  A    between atoms: C_3  and  C_4 
REMARK       I    between atoms: C_4  and  N_5 
REMARK    2  A    between atoms: N_5  and  C_6 
REMARK    3  A    between atoms: C_6  and  C_7 
REMARK    4  A    between atoms: N_23  and  C_24 
REMARK    5  A    between atoms: C_24  and  C_25 
REMARK       I    between atoms: C_25  and  N_26 
REMARK    6  A    between atoms: N_26  and  C_27 
REMARK    7  A    between atoms: C_29  and  C_30 
ROOT
HETATM    1  C   UNL     1      -3.347   5.259 -34.821  1.00  0.00     0.051 C 
HETATM    2  C   UNL     1      -4.110   5.714 -33.613  1.00  0.00    -0.021 C 
HETATM    3  C   UNL     1      -3.611   6.583 -32.641  1.00  0.00     0.081 C 
HETATM    4  S   UNL     1      -4.810   6.964 -31.470  1.00  0.00    -0.063 SA
HETATM    5  C   UNL     1      -5.926   5.872 -32.134  1.00  0.00     0.116 A 
HETATM    6  C   UNL     1      -5.428   5.248 -33.256  1.00  0.00     0.075 A 
HETATM    7  C   UNL     1      -6.263   4.226 -33.871  1.00  0.00     0.262 A 
HETATM    8  O   UNL     1      -5.958   3.624 -34.901  1.00  0.00    -0.267 OA
HETATM    9  N   UNL     1      -7.447   3.968 -33.185  1.00  0.00    -0.299 N 
HETATM   10  C   UNL     1      -7.838   4.728 -32.101  1.00  0.00     0.214 A 
HETATM   11  N   UNL     1      -7.138   5.670 -31.557  1.00  0.00    -0.235 NA
ENDROOT
BRANCH   3  12
HETATM   12  C   UNL     1      -2.258   7.129 -32.524  1.00  0.00     0.259 C 
HETATM   13  N   UNL     1      -1.348   6.351 -31.838  1.00  0.00    -0.354 N 
HETATM   14  H   UNL     1      -1.690   5.532 -31.349  1.00  0.00     0.162 HD
HETATM   15  O   UNL     1      -1.909   8.197 -33.026  1.00  0.00    -0.267 OA
BRANCH  13  16
HETATM   16  C   UNL     1       0.049   6.722 -31.699  1.00  0.00     0.157 C 
BRANCH  16  17
HETATM   17  C   UNL     1       0.444   7.056 -30.257  1.00  0.00     0.171 C 
HETATM   18  O   UNL     1      -0.451   8.079 -29.779  1.00  0.00    -0.339 OA
HETATM   19  C   UNL     1      -0.373   8.221 -28.418  1.00  0.00     0.102 A 
HETATM   20  C   UNL     1       0.203   7.261 -27.580  1.00  0.00     0.102 A 
HETATM   21  C   UNL     1      -0.917   9.384 -27.876  1.00  0.00     0.039 A 
HETATM   22  O   UNL     1       0.731   6.082 -28.038  1.00  0.00    -0.346 OA
HETATM   23  C   UNL     1       0.269   7.483 -26.206  1.00  0.00     0.039 A 
HETATM   24  C   UNL     1       0.319   5.811 -29.382  1.00  0.00     0.209 C 
HETATM   25  C   UNL     1      -0.264   8.655 -25.664  1.00  0.00     0.003 A 
HETATM   26  C   UNL     1      -0.860   9.602 -26.499  1.00  0.00     0.003 A 
ENDBRANCH  16  17
ENDBRANCH  13  16
ENDBRANCH   3  12
BRANCH   9  27
HETATM   27  C   UNL     1      -8.257   2.842 -33.612  1.00  0.00     0.236 C 
BRANCH  27  28
HETATM   28  C   UNL     1      -7.627   1.522 -33.182  1.00  0.00     0.240 C 
HETATM   29  N   UNL     1      -7.125   0.793 -34.246  1.00  0.00    -0.326 N 
HETATM   30  H   UNL     1      -7.422   1.087 -35.178  1.00  0.00     0.169 HD
HETATM   31  O   UNL     1      -7.633   1.184 -32.002  1.00  0.00    -0.271 OA
BRANCH  29  32
HETATM   32  C   UNL     1      -6.326  -0.365 -34.187  1.00  0.00     0.035 A 
HETATM   33  C   UNL     1      -6.774  -1.636 -34.556  1.00  0.00     0.045 A 
HETATM   34  C   UNL     1      -5.940  -2.760 -34.422  1.00  0.00     0.050 A 
HETATM   35  C   UNL     1      -4.640  -2.591 -33.923  1.00  0.00     0.016 A 
HETATM   36  C   UNL     1      -4.187  -1.327 -33.555  1.00  0.00     0.003 A 
HETATM   37  C   UNL     1      -5.029  -0.221 -33.681  1.00  0.00     0.029 A 
BRANCH  34  38
HETATM   38  C   UNL     1      -6.425  -4.139 -34.799  1.00  0.00     0.417 C 
HETATM   39  F   UNL     1      -6.724  -4.279 -36.120  1.00  0.00    -0.166 F 
HETATM   40  F   UNL     1      -5.510  -5.108 -34.517  1.00  0.00    -0.166 F 
HETATM   41  F   UNL     1      -7.557  -4.491 -34.124  1.00  0.00    -0.166 F 
ENDBRANCH  34  38
ENDBRANCH  29  32
ENDBRANCH  27  28
ENDBRANCH   9  27
TORSDOF 7
ENDMDL
MODEL 2
REMARK VINA RESULT:      -9.9      1.084      1.570
REMARK  7 active torsions:
REMARK  status: ('A' for Active; 'I' for Inactive)
REMARK    1  A    between atoms: C_3  and  C_4 
REMARK       I    between atoms: C_4  and  N_5 
REMARK    2  A    between atoms: N_5  and  C_6 
REMARK    3  A    between atoms: C_6  and  C_7 
REMARK    4  A    between atoms: N_23  and  C_24 
REMARK    5  A    between atoms: C_24  and  C_25 
REMARK       I    between atoms: C_25  and  N_26 
REMARK    6  A    between atoms: N_26  and  C_27 
REMARK    7  A    between atoms: C_29  and  C_30 
ROOT
HETATM    1  C   UNL     1      -3.437   4.988 -33.935  1.00  0.00     0.051 C 
HETATM    2  C   UNL     1      -4.383   5.330 -32.824  1.00  0.00    -0.021 C 
HETATM    3  C   UNL     1      -4.052   6.100 -31.708  1.00  0.00     0.081 C 
HETATM    4  S   UNL     1      -5.423   6.373 -30.708  1.00  0.00    -0.063 SA
HETATM    5  C   UNL     1      -6.411   5.356 -31.641  1.00  0.00     0.116 A 
HETATM    6  C   UNL     1      -5.737   4.839 -32.724  1.00  0.00     0.075 A 
HETATM    7  C   UNL     1      -6.455   3.885 -33.557  1.00  0.00     0.262 A 
HETATM    8  O   UNL     1      -5.987   3.383 -34.579  1.00  0.00    -0.267 OA
HETATM    9  N   UNL     1      -7.730   3.569 -33.093  1.00  0.00    -0.299 N 
HETATM   10  C   UNL     1      -8.293   4.224 -32.017  1.00  0.00     0.214 A 
HETATM   11  N   UNL     1      -7.696   5.106 -31.282  1.00  0.00    -0.235 NA
ENDROOT
BRANCH   3  12
HETATM   12  C   UNL     1      -2.739   6.624 -31.328  1.00  0.00     0.259 C 
HETATM   13  N   UNL     1      -2.119   5.996 -30.267  1.00  0.00    -0.354 N 
HETATM   14  H   UNL     1      -2.650   5.316 -29.736  1.00  0.00     0.162 HD
HETATM   15  O   UNL     1      -2.176   7.544 -31.921  1.00  0.00    -0.267 OA
BRANCH  13  16
HETATM   16  C   UNL     1      -0.785   6.354 -29.819  1.00  0.00     0.157 C 
BRANCH  16  17
HETATM   17  C   UNL     1      -0.768   6.988 -28.424  1.00  0.00     0.171 C 
HETATM   18  O   UNL     1       0.607   7.112 -28.010  1.00  0.00    -0.339 OA
HETATM   19  C   UNL     1       0.733   7.938 -26.924  1.00  0.00     0.102 A 
HETATM   20  C   UNL     1      -0.267   8.826 -26.516  1.00  0.00     0.102 A 
HETATM   21  C   UNL     1       1.936   7.874 -26.224  1.00  0.00     0.039 A 
HETATM   22  O   UNL     1      -1.463   8.965 -27.172  1.00  0.00    -0.346 OA
HETATM   23  C   UNL     1      -0.078   9.619 -25.387  1.00  0.00     0.039 A 
HETATM   24  C   UNL     1      -1.419   8.369 -28.473  1.00  0.00     0.209 C 
HETATM   25  C   UNL     1       1.122   9.545 -24.677  1.00  0.00     0.003 A 
HETATM   26  C   UNL     1       2.130   8.676 -25.098  1.00  0.00     0.003 A 
ENDBRANCH  16  17
ENDBRANCH  13  16
ENDBRANCH   3  12
BRANCH   9  27
HETATM   27  C   UNL     1      -8.452   2.494 -33.747  1.00  0.00     0.236 C 
BRANCH  27  28
HETATM   28  C   UNL     1      -7.873   1.136 -33.365  1.00  0.00     0.240 C 
HETATM   29  N   UNL     1      -7.047   0.607 -34.342  1.00  0.00    -0.326 N 
HETATM   30  H   UNL     1      -7.096   1.046 -35.263  1.00  0.00     0.169 HD
HETATM   31  O   UNL     1      -8.180   0.605 -32.301  1.00  0.00    -0.271 OA
BRANCH  29  32
HETATM   32  C   UNL     1      -6.217  -0.525 -34.237  1.00  0.00     0.035 A 
HETATM   33  C   UNL     1      -6.603  -1.809 -34.630  1.00  0.00     0.045 A 
HETATM   34  C   UNL     1      -5.743  -2.907 -34.450  1.00  0.00     0.050 A 
HETATM   35  C   UNL     1      -4.478  -2.697 -33.879  1.00  0.00     0.016 A 
HETATM   36  C   UNL     1      -4.087  -1.419 -33.488  1.00  0.00     0.003 A 
HETATM   37  C   UNL     1      -4.955  -0.340 -33.661  1.00  0.00     0.029 A 
BRANCH  34  38
HETATM   38  C   UNL     1      -6.162  -4.299 -34.852  1.00  0.00     0.417 C 
HETATM   39  F   UNL     1      -6.267  -4.480 -36.197  1.00  0.00    -0.166 F 
HETATM   40  F   UNL     1      -5.293  -5.252 -34.413  1.00  0.00    -0.166 F 
HETATM   41  F   UNL     1      -7.378  -4.641 -34.337  1.00  0.00    -0.166 F 
ENDBRANCH  34  38
ENDBRANCH  29  32
ENDBRANCH  27  28
ENDBRANCH   9  27
TORSDOF 7
ENDMDL
MODEL 3
REMARK VINA RESULT:      -9.8      5.994     12.078
REMARK  7 active torsions:
REMARK  status: ('A' for Active; 'I' for Inactive)
REMARK    1  A    between atoms: C_3  and  C_4 
REMARK       I    between atoms: C_4  and  N_5 
REMARK    2  A    between atoms: N_5  and  C_6 
REMARK    3  A    between atoms: C_6  and  C_7 
REMARK    4  A    between atoms: N_23  and  C_24 
REMARK    5  A    between atoms: C_24  and  C_25 
REMARK       I    between atoms: C_25  and  N_26 
REMARK    6  A    between atoms: N_26  and  C_27 
REMARK    7  A    between atoms: C_29  and  C_30 
ROOT
HETATM    1  C   UNL     1      -2.937   3.188 -32.175  1.00  0.00     0.051 C 
HETATM    2  C   UNL     1      -3.389   4.603 -31.974  1.00  0.00    -0.021 C 
HETATM    3  C   UNL     1      -4.553   5.148 -32.517  1.00  0.00     0.081 C 
HETATM    4  S   UNL     1      -4.797   6.762 -31.977  1.00  0.00    -0.063 SA
HETATM    5  C   UNL     1      -3.306   6.806 -31.168  1.00  0.00     0.116 A 
HETATM    6  C   UNL     1      -2.637   5.607 -31.261  1.00  0.00     0.075 A 
HETATM    7  C   UNL     1      -1.306   5.545 -30.674  1.00  0.00     0.262 A 
HETATM    8  O   UNL     1      -0.618   4.524 -30.648  1.00  0.00    -0.267 OA
HETATM    9  N   UNL     1      -0.857   6.754 -30.149  1.00  0.00    -0.299 N 
HETATM   10  C   UNL     1      -1.677   7.862 -30.074  1.00  0.00     0.214 A 
HETATM   11  N   UNL     1      -2.879   7.935 -30.548  1.00  0.00    -0.235 NA
ENDROOT
BRANCH   3  12
HETATM   12  C   UNL     1      -5.490   4.529 -33.455  1.00  0.00     0.259 C 
HETATM   13  N   UNL     1      -6.344   3.583 -32.925  1.00  0.00    -0.354 N 
HETATM   14  H   UNL     1      -6.187   3.277 -31.971  1.00  0.00     0.162 HD
HETATM   15  O   UNL     1      -5.566   4.837 -34.644  1.00  0.00    -0.267 OA
BRANCH  13  16
HETATM   16  C   UNL     1      -7.376   2.933 -33.712  1.00  0.00     0.157 C 
BRANCH  16  17
HETATM   17  C   UNL     1      -6.909   1.625 -34.358  1.00  0.00     0.171 C 
HETATM   18  O   UNL     1      -5.968   1.000 -33.463  1.00  0.00    -0.339 OA
HETATM   19  C   UNL     1      -5.734  -0.305 -33.809  1.00  0.00     0.102 A 
HETATM   20  C   UNL     1      -6.566  -1.031 -34.667  1.00  0.00     0.102 A 
HETATM   21  C   UNL     1      -4.610  -0.910 -33.250  1.00  0.00     0.039 A 
HETATM   22  O   UNL     1      -7.703  -0.512 -35.230  1.00  0.00    -0.346 OA
HETATM   23  C   UNL     1      -6.253  -2.348 -34.994  1.00  0.00     0.039 A 
HETATM   24  C   UNL     1      -8.103   0.699 -34.580  1.00  0.00     0.209 C 
HETATM   25  C   UNL     1      -5.119  -2.951 -34.444  1.00  0.00     0.003 A 
HETATM   26  C   UNL     1      -4.301  -2.233 -33.570  1.00  0.00     0.003 A 
ENDBRANCH  16  17
ENDBRANCH  13  16
ENDBRANCH   3  12
BRANCH   9  27
HETATM   27  C   UNL     1       0.524   6.843 -29.710  1.00  0.00     0.236 C 
BRANCH  27  28
HETATM   28  C   UNL     1       0.603   7.117 -28.212  1.00  0.00     0.240 C 
HETATM   29  N   UNL     1       1.231   8.315 -27.916  1.00  0.00    -0.326 N 
HETATM   30  H   UNL     1       1.754   8.752 -28.675  1.00  0.00     0.169 HD
HETATM   31  O   UNL     1       0.171   6.299 -27.405  1.00  0.00    -0.271 OA
BRANCH  29  32
HETATM   32  C   UNL     1       1.306   8.952 -26.663  1.00  0.00     0.035 A 
HETATM   33  C   UNL     1       2.297   8.684 -25.715  1.00  0.00     0.045 A 
HETATM   34  C   UNL     1       2.285   9.319 -24.460  1.00  0.00     0.050 A 
HETATM   35  C   UNL     1       1.268  10.241 -24.171  1.00  0.00     0.016 A 
HETATM   36  C   UNL     1       0.279  10.515 -25.113  1.00  0.00     0.003 A 
HETATM   37  C   UNL     1       0.296   9.868 -26.350  1.00  0.00     0.029 A 
BRANCH  34  38
HETATM   38  C   UNL     1       3.339   9.017 -23.424  1.00  0.00     0.417 C 
HETATM   39  F   UNL     1       4.581   8.809 -23.941  1.00  0.00    -0.166 F 
HETATM   40  F   UNL     1       3.477  10.021 -22.513  1.00  0.00    -0.166 F 
HETATM   41  F   UNL     1       3.048   7.898 -22.701  1.00  0.00    -0.166 F 
ENDBRANCH  34  38
ENDBRANCH  29  32
ENDBRANCH  27  28
ENDBRANCH   9  27
TORSDOF 7
ENDMDL
MODEL 4
REMARK VINA RESULT:      -9.6      2.243      3.489
REMARK  7 active torsions:
REMARK  status: ('A' for Active; 'I' for Inactive)
REMARK    1  A    between atoms: C_3  and  C_4 
REMARK       I    between atoms: C_4  and  N_5 
REMARK    2  A    between atoms: N_5  and  C_6 
REMARK    3  A    between atoms: C_6  and  C_7 
REMARK    4  A    between atoms: N_23  and  C_24 
REMARK    5  A    between atoms: C_24  and  C_25 
REMARK       I    between atoms: C_25  and  N_26 
REMARK    6  A    between atoms: N_26  and  C_27 
REMARK    7  A    between atoms: C_29  and  C_30 
ROOT
HETATM    1  C   UNL     1      -5.570   4.946 -31.869  1.00  0.00     0.051 C 
HETATM    2  C   UNL     1      -6.964   5.000 -31.321  1.00  0.00    -0.021 C 
HETATM    3  C   UNL     1      -7.317   5.590 -30.107  1.00  0.00     0.081 C 
HETATM    4  S   UNL     1      -9.019   5.557 -29.868  1.00  0.00    -0.063 SA
HETATM    5  C   UNL     1      -9.282   4.631 -31.265  1.00  0.00     0.116 A 
HETATM    6  C   UNL     1      -8.109   4.376 -31.939  1.00  0.00     0.075 A 
HETATM    7  C   UNL     1      -8.193   3.520 -33.114  1.00  0.00     0.262 A 
HETATM    8  O   UNL     1      -7.231   3.249 -33.832  1.00  0.00    -0.267 OA
HETATM    9  N   UNL     1      -9.467   3.011 -33.359  1.00  0.00    -0.299 N 
HETATM   10  C   UNL     1     -10.563   3.414 -32.622  1.00  0.00     0.214 A 
HETATM   11  N   UNL     1     -10.526   4.206 -31.600  1.00  0.00    -0.235 NA
ENDROOT
BRANCH   3  12
HETATM   12  C   UNL     1      -6.434   6.159 -29.087  1.00  0.00     0.259 C 
HETATM   13  N   UNL     1      -5.746   7.300 -29.447  1.00  0.00    -0.354 N 
HETATM   14  H   UNL     1      -5.783   7.595 -30.416  1.00  0.00     0.162 HD
HETATM   15  O   UNL     1      -6.317   5.696 -27.953  1.00  0.00    -0.267 OA
BRANCH  13  16
HETATM   16  C   UNL     1      -4.890   8.020 -28.523  1.00  0.00     0.157 C 
BRANCH  16  17
HETATM   17  C   UNL     1      -3.413   7.627 -28.638  1.00  0.00     0.171 C 
HETATM   18  O   UNL     1      -3.265   6.799 -29.808  1.00  0.00    -0.339 OA
HETATM   19  C   UNL     1      -1.948   6.656 -30.160  1.00  0.00     0.102 A 
HETATM   20  C   UNL     1      -0.933   7.493 -29.687  1.00  0.00     0.102 A 
HETATM   21  C   UNL     1      -1.645   5.623 -31.045  1.00  0.00     0.039 A 
HETATM   22  O   UNL     1      -1.161   8.546 -28.839  1.00  0.00    -0.346 OA
HETATM   23  C   UNL     1       0.388   7.273 -30.070  1.00  0.00     0.039 A 
HETATM   24  C   UNL     1      -2.551   8.881 -28.781  1.00  0.00     0.209 C 
HETATM   25  C   UNL     1       0.694   6.230 -30.946  1.00  0.00     0.003 A 
HETATM   26  C   UNL     1      -0.322   5.409 -31.436  1.00  0.00     0.003 A 
ENDBRANCH  16  17
ENDBRANCH  13  16
ENDBRANCH   3  12
BRANCH   9  27
HETATM   27  C   UNL     1      -9.618   2.005 -34.393  1.00  0.00     0.236 C 
BRANCH  27  28
HETATM   28  C   UNL     1      -8.910   0.712 -34.003  1.00  0.00     0.240 C 
HETATM   29  N   UNL     1      -7.754   0.488 -34.732  1.00  0.00    -0.326 N 
HETATM   30  H   UNL     1      -7.630   1.059 -35.570  1.00  0.00     0.169 HD
HETATM   31  O   UNL     1      -9.390  -0.028 -33.150  1.00  0.00    -0.271 OA
BRANCH  29  32
HETATM   32  C   UNL     1      -6.778  -0.499 -34.503  1.00  0.00     0.035 A 
HETATM   33  C   UNL     1      -6.942  -1.845 -34.841  1.00  0.00     0.045 A 
HETATM   34  C   UNL     1      -5.946  -2.791 -34.537  1.00  0.00     0.050 A 
HETATM   35  C   UNL     1      -4.772  -2.365 -33.897  1.00  0.00     0.016 A 
HETATM   36  C   UNL     1      -4.602  -1.024 -33.560  1.00  0.00     0.003 A 
HETATM   37  C   UNL     1      -5.603  -0.098 -33.857  1.00  0.00     0.029 A 
BRANCH  34  38
HETATM   38  C   UNL     1      -6.126  -4.249 -34.879  1.00  0.00     0.417 C 
HETATM   39  F   UNL     1      -6.255  -4.493 -36.212  1.00  0.00    -0.166 F 
HETATM   40  F   UNL     1      -5.082  -5.016 -34.457  1.00  0.00    -0.166 F 
HETATM   41  F   UNL     1      -7.238  -4.783 -34.297  1.00  0.00    -0.166 F 
ENDBRANCH  34  38
ENDBRANCH  29  32
ENDBRANCH  27  28
ENDBRANCH   9  27
TORSDOF 7
ENDMDL
MODEL 5
REMARK VINA RESULT:      -9.5      4.378      5.891
REMARK  7 active torsions:
REMARK  status: ('A' for Active; 'I' for Inactive)
REMARK    1  A    between atoms: C_3  and  C_4 
REMARK       I    between atoms: C_4  and  N_5 
REMARK    2  A    between atoms: N_5  and  C_6 
REMARK    3  A    between atoms: C_6  and  C_7 
REMARK    4  A    between atoms: N_23  and  C_24 
REMARK    5  A    between atoms: C_24  and  C_25 
REMARK       I    between atoms: C_25  and  N_26 
REMARK    6  A    between atoms: N_26  and  C_27 
REMARK    7  A    between atoms: C_29  and  C_30 
ROOT
HETATM    1  C   UNL     1      -5.277   4.725 -33.607  1.00  0.00     0.051 C 
HETATM    2  C   UNL     1      -4.838   3.441 -32.970  1.00  0.00    -0.021 C 
HETATM    3  C   UNL     1      -3.593   3.237 -32.374  1.00  0.00     0.081 C 
HETATM    4  S   UNL     1      -3.494   1.680 -31.653  1.00  0.00    -0.063 SA
HETATM    5  C   UNL     1      -5.009   1.211 -32.257  1.00  0.00     0.116 A 
HETATM    6  C   UNL     1      -5.615   2.225 -32.964  1.00  0.00     0.075 A 
HETATM    7  C   UNL     1      -6.887   1.919 -33.601  1.00  0.00     0.262 A 
HETATM    8  O   UNL     1      -7.555   2.744 -34.225  1.00  0.00    -0.267 OA
HETATM    9  N   UNL     1      -7.291   0.593 -33.462  1.00  0.00    -0.299 N 
HETATM   10  C   UNL     1      -6.600  -0.295 -32.663  1.00  0.00     0.214 A 
HETATM   11  N   UNL     1      -5.489  -0.041 -32.050  1.00  0.00    -0.235 NA
ENDROOT
BRANCH   3  12
HETATM   12  C   UNL     1      -2.445   4.146 -32.341  1.00  0.00     0.259 C 
HETATM   13  N   UNL     1      -1.993   4.505 -31.087  1.00  0.00    -0.354 N 
HETATM   14  H   UNL     1      -2.548   4.238 -30.283  1.00  0.00     0.162 HD
HETATM   15  O   UNL     1      -1.871   4.554 -33.349  1.00  0.00    -0.267 OA
BRANCH  13  16
HETATM   16  C   UNL     1      -0.822   5.340 -30.890  1.00  0.00     0.157 C 
BRANCH  16  17
HETATM   17  C   UNL     1      -0.989   6.353 -29.752  1.00  0.00     0.171 C 
HETATM   18  O   UNL     1       0.322   6.811 -29.370  1.00  0.00    -0.339 OA
HETATM   19  C   UNL     1       0.255   7.931 -28.583  1.00  0.00     0.102 A 
HETATM   20  C   UNL     1      -0.889   8.729 -28.482  1.00  0.00     0.102 A 
HETATM   21  C   UNL     1       1.406   8.268 -27.873  1.00  0.00     0.039 A 
HETATM   22  O   UNL     1      -2.046   8.475 -29.171  1.00  0.00    -0.346 OA
HETATM   23  C   UNL     1      -0.892   9.841 -27.643  1.00  0.00     0.039 A 
HETATM   24  C   UNL     1      -1.830   7.536 -30.230  1.00  0.00     0.209 C 
HETATM   25  C   UNL     1       0.256  10.172 -26.922  1.00  0.00     0.003 A 
HETATM   26  C   UNL     1       1.406   9.388 -27.040  1.00  0.00     0.003 A 
ENDBRANCH  16  17
ENDBRANCH  13  16
ENDBRANCH   3  12
BRANCH   9  27
HETATM   27  C   UNL     1      -8.448   0.144 -34.214  1.00  0.00     0.236 C 
BRANCH  27  28
HETATM   28  C   UNL     1      -9.737   0.419 -33.447  1.00  0.00     0.240 C 
HETATM   29  N   UNL     1     -10.602   1.257 -34.130  1.00  0.00    -0.326 N 
HETATM   30  H   UNL     1     -10.209   1.763 -34.925  1.00  0.00     0.169 HD
HETATM   31  O   UNL     1      -9.909  -0.054 -32.328  1.00  0.00    -0.271 OA
BRANCH  29  32
HETATM   32  C   UNL     1     -11.936   1.561 -33.798  1.00  0.00     0.035 A 
HETATM   33  C   UNL     1     -12.303   2.593 -32.930  1.00  0.00     0.045 A 
HETATM   34  C   UNL     1     -13.652   2.810 -32.600  1.00  0.00     0.050 A 
HETATM   35  C   UNL     1     -14.635   1.983 -33.163  1.00  0.00     0.016 A 
HETATM   36  C   UNL     1     -14.276   0.955 -34.031  1.00  0.00     0.003 A 
HETATM   37  C   UNL     1     -12.932   0.742 -34.341  1.00  0.00     0.029 A 
BRANCH  34  38
HETATM   38  C   UNL     1     -14.054   3.909 -31.646  1.00  0.00     0.417 C 
HETATM   39  F   UNL     1     -15.399   4.042 -31.489  1.00  0.00    -0.166 F 
HETATM   40  F   UNL     1     -13.547   3.724 -30.395  1.00  0.00    -0.166 F 
HETATM   41  F   UNL     1     -13.606   5.132 -32.051  1.00  0.00    -0.166 F 
ENDBRANCH  34  38
ENDBRANCH  29  32
ENDBRANCH  27  28
ENDBRANCH   9  27
TORSDOF 7
ENDMDL
MODEL 6
REMARK VINA RESULT:      -9.4      5.225     11.238
REMARK  7 active torsions:
REMARK  status: ('A' for Active; 'I' for Inactive)
REMARK    1  A    between atoms: C_3  and  C_4 
REMARK       I    between atoms: C_4  and  N_5 
REMARK    2  A    between atoms: N_5  and  C_6 
REMARK    3  A    between atoms: C_6  and  C_7 
REMARK    4  A    between atoms: N_23  and  C_24 
REMARK    5  A    between atoms: C_24  and  C_25 
REMARK       I    between atoms: C_25  and  N_26 
REMARK    6  A    between atoms: N_26  and  C_27 
REMARK    7  A    between atoms: C_29  and  C_30 
ROOT
HETATM    1  C   UNL     1      -3.871   1.617 -31.619  1.00  0.00     0.051 C 
HETATM    2  C   UNL     1      -4.570   2.781 -32.254  1.00  0.00    -0.021 C 
HETATM    3  C   UNL     1      -5.796   2.705 -32.916  1.00  0.00     0.081 C 
HETATM    4  S   UNL     1      -6.335   4.260 -33.412  1.00  0.00    -0.063 SA
HETATM    5  C   UNL     1      -4.898   5.011 -32.912  1.00  0.00     0.116 A 
HETATM    6  C   UNL     1      -4.025   4.115 -32.336  1.00  0.00     0.075 A 
HETATM    7  C   UNL     1      -2.721   4.624 -31.938  1.00  0.00     0.262 A 
HETATM    8  O   UNL     1      -1.865   3.943 -31.372  1.00  0.00    -0.267 OA
HETATM    9  N   UNL     1      -2.506   5.961 -32.266  1.00  0.00    -0.299 N 
HETATM   10  C   UNL     1      -3.510   6.750 -32.790  1.00  0.00     0.214 A 
HETATM   11  N   UNL     1      -4.692   6.337 -33.115  1.00  0.00    -0.235 NA
ENDROOT
BRANCH   3  12
HETATM   12  C   UNL     1      -6.584   1.511 -33.227  1.00  0.00     0.259 C 
HETATM   13  N   UNL     1      -6.468   1.026 -34.514  1.00  0.00    -0.354 N 
HETATM   14  H   UNL     1      -5.966   1.586 -35.193  1.00  0.00     0.162 HD
HETATM   15  O   UNL     1      -7.289   0.928 -32.404  1.00  0.00    -0.267 OA
BRANCH  13  16
HETATM   16  C   UNL     1      -7.130  -0.189 -34.953  1.00  0.00     0.157 C 
BRANCH  16  17
HETATM   17  C   UNL     1      -6.193  -1.401 -35.003  1.00  0.00     0.171 C 
HETATM   18  O   UNL     1      -5.398  -1.396 -33.802  1.00  0.00    -0.339 OA
HETATM   19  C   UNL     1      -4.759  -2.594 -33.616  1.00  0.00     0.102 A 
HETATM   20  C   UNL     1      -5.123  -3.768 -34.283  1.00  0.00     0.102 A 
HETATM   21  C   UNL     1      -3.708  -2.609 -32.701  1.00  0.00     0.039 A 
HETATM   22  O   UNL     1      -6.163  -3.835 -35.175  1.00  0.00    -0.346 OA
HETATM   23  C   UNL     1      -4.412  -4.945 -34.063  1.00  0.00     0.039 A 
HETATM   24  C   UNL     1      -7.013  -2.688 -35.075  1.00  0.00     0.209 C 
HETATM   25  C   UNL     1      -3.351  -4.958 -33.155  1.00  0.00     0.003 A 
HETATM   26  C   UNL     1      -3.002  -3.791 -32.472  1.00  0.00     0.003 A 
ENDBRANCH  16  17
ENDBRANCH  13  16
ENDBRANCH   3  12
BRANCH   9  27
HETATM   27  C   UNL     1      -1.175   6.509 -32.079  1.00  0.00     0.236 C 
BRANCH  27  28
HETATM   28  C   UNL     1      -1.139   7.460 -30.888  1.00  0.00     0.240 C 
HETATM   29  N   UNL     1      -0.598   6.881 -29.752  1.00  0.00    -0.326 N 
HETATM   30  H   UNL     1      -0.503   5.864 -29.763  1.00  0.00     0.169 HD
HETATM   31  O   UNL     1      -1.595   8.595 -30.983  1.00  0.00    -0.271 OA
BRANCH  29  32
HETATM   32  C   UNL     1      -0.252   7.524 -28.549  1.00  0.00     0.035 A 
HETATM   33  C   UNL     1      -1.149   7.745 -27.501  1.00  0.00     0.045 A 
HETATM   34  C   UNL     1      -0.750   8.441 -26.346  1.00  0.00     0.050 A 
HETATM   35  C   UNL     1       0.571   8.903 -26.248  1.00  0.00     0.016 A 
HETATM   36  C   UNL     1       1.471   8.683 -27.288  1.00  0.00     0.003 A 
HETATM   37  C   UNL     1       1.059   8.002 -28.435  1.00  0.00     0.029 A 
BRANCH  34  38
HETATM   38  C   UNL     1      -1.720   8.702 -25.220  1.00  0.00     0.417 C 
HETATM   39  F   UNL     1      -2.737   9.546 -25.549  1.00  0.00    -0.166 F 
HETATM   40  F   UNL     1      -2.312   7.562 -24.767  1.00  0.00    -0.166 F 
HETATM   41  F   UNL     1      -1.113   9.261 -24.134  1.00  0.00    -0.166 F 
ENDBRANCH  34  38
ENDBRANCH  29  32
ENDBRANCH  27  28
ENDBRANCH   9  27
TORSDOF 7
ENDMDL
MODEL 7
REMARK VINA RESULT:      -9.4      3.591      4.912
REMARK  7 active torsions:
REMARK  status: ('A' for Active; 'I' for Inactive)
REMARK    1  A    between atoms: C_3  and  C_4 
REMARK       I    between atoms: C_4  and  N_5 
REMARK    2  A    between atoms: N_5  and  C_6 
REMARK    3  A    between atoms: C_6  and  C_7 
REMARK    4  A    between atoms: N_23  and  C_24 
REMARK    5  A    between atoms: C_24  and  C_25 
REMARK       I    between atoms: C_25  and  N_26 
REMARK    6  A    between atoms: N_26  and  C_27 
REMARK    7  A    between atoms: C_29  and  C_30 
ROOT
HETATM    1  C   UNL     1      -4.984   4.645 -34.366  1.00  0.00     0.051 C 
HETATM    2  C   UNL     1      -4.454   3.753 -33.285  1.00  0.00    -0.021 C 
HETATM    3  C   UNL     1      -3.235   3.936 -32.631  1.00  0.00     0.081 C 
HETATM    4  S   UNL     1      -3.020   2.782 -31.375  1.00  0.00    -0.063 SA
HETATM    5  C   UNL     1      -4.437   1.945 -31.788  1.00  0.00     0.116 A 
HETATM    6  C   UNL     1      -5.099   2.542 -32.836  1.00  0.00     0.075 A 
HETATM    7  C   UNL     1      -6.290   1.870 -33.336  1.00  0.00     0.262 A 
HETATM    8  O   UNL     1      -7.000   2.319 -34.237  1.00  0.00    -0.267 OA
HETATM    9  N   UNL     1      -6.562   0.653 -32.716  1.00  0.00    -0.299 N 
HETATM   10  C   UNL     1      -5.834   0.216 -31.628  1.00  0.00     0.214 A 
HETATM   11  N   UNL     1      -4.797   0.811 -31.134  1.00  0.00    -0.235 NA
ENDROOT
BRANCH   3  12
HETATM   12  C   UNL     1      -2.193   4.923 -32.920  1.00  0.00     0.259 C 
HETATM   13  N   UNL     1      -1.933   5.840 -31.921  1.00  0.00    -0.354 N 
HETATM   14  H   UNL     1      -2.554   5.866 -31.121  1.00  0.00     0.162 HD
HETATM   15  O   UNL     1      -1.542   4.939 -33.963  1.00  0.00    -0.267 OA
BRANCH  13  16
HETATM   16  C   UNL     1      -0.881   6.834 -32.029  1.00  0.00     0.157 C 
BRANCH  16  17
HETATM   17  C   UNL     1      -0.055   6.980 -30.746  1.00  0.00     0.171 C 
HETATM   18  O   UNL     1      -0.677   7.995 -29.933  1.00  0.00    -0.339 OA
HETATM   19  C   UNL     1      -0.194   7.977 -28.650  1.00  0.00     0.102 A 
HETATM   20  C   UNL     1       0.511   6.897 -28.112  1.00  0.00     0.102 A 
HETATM   21  C   UNL     1      -0.449   9.102 -27.869  1.00  0.00     0.039 A 
HETATM   22  O   UNL     1       0.774   5.746 -28.810  1.00  0.00    -0.346 OA
HETATM   23  C   UNL     1       0.993   6.958 -26.806  1.00  0.00     0.039 A 
HETATM   24  C   UNL     1      -0.033   5.653 -29.989  1.00  0.00     0.209 C 
HETATM   25  C   UNL     1       0.749   8.091 -26.028  1.00  0.00     0.003 A 
HETATM   26  C   UNL     1       0.025   9.160 -26.558  1.00  0.00     0.003 A 
ENDBRANCH  16  17
ENDBRANCH  13  16
ENDBRANCH   3  12
BRANCH   9  27
HETATM   27  C   UNL     1      -7.616  -0.179 -33.266  1.00  0.00     0.236 C 
BRANCH  27  28
HETATM   28  C   UNL     1      -8.989   0.417 -32.974  1.00  0.00     0.240 C 
HETATM   29  N   UNL     1      -9.544   1.055 -34.070  1.00  0.00    -0.326 N 
HETATM   30  H   UNL     1      -8.912   1.254 -34.847  1.00  0.00     0.169 HD
HETATM   31  O   UNL     1      -9.476   0.337 -31.850  1.00  0.00    -0.271 OA
BRANCH  29  32
HETATM   32  C   UNL     1     -10.858   1.544 -34.198  1.00  0.00     0.035 A 
HETATM   33  C   UNL     1     -11.995   0.813 -33.844  1.00  0.00     0.045 A 
HETATM   34  C   UNL     1     -13.283   1.342 -34.046  1.00  0.00     0.050 A 
HETATM   35  C   UNL     1     -13.415   2.624 -34.599  1.00  0.00     0.016 A 
HETATM   36  C   UNL     1     -12.285   3.358 -34.951  1.00  0.00     0.003 A 
HETATM   37  C   UNL     1     -11.014   2.817 -34.757  1.00  0.00     0.029 A 
BRANCH  34  38
HETATM   38  C   UNL     1     -14.515   0.549 -33.687  1.00  0.00     0.417 C 
HETATM   39  F   UNL     1     -15.254   1.099 -32.684  1.00  0.00    -0.166 F 
HETATM   40  F   UNL     1     -15.366   0.401 -34.740  1.00  0.00    -0.166 F 
HETATM   41  F   UNL     1     -14.214  -0.715 -33.273  1.00  0.00    -0.166 F 
ENDBRANCH  34  38
ENDBRANCH  29  32
ENDBRANCH  27  28
ENDBRANCH   9  27
TORSDOF 7
ENDMDL
MODEL 8
REMARK VINA RESULT:      -9.4      5.456     11.579
REMARK  7 active torsions:
REMARK  status: ('A' for Active; 'I' for Inactive)
REMARK    1  A    between atoms: C_3  and  C_4 
REMARK       I    between atoms: C_4  and  N_5 
REMARK    2  A    between atoms: N_5  and  C_6 
REMARK    3  A    between atoms: C_6  and  C_7 
REMARK    4  A    between atoms: N_23  and  C_24 
REMARK    5  A    between atoms: C_24  and  C_25 
REMARK       I    between atoms: C_25  and  N_26 
REMARK    6  A    between atoms: N_26  and  C_27 
REMARK    7  A    between atoms: C_29  and  C_30 
ROOT
HETATM    1  C   UNL     1      -4.104   1.572 -31.398  1.00  0.00     0.051 C 
HETATM    2  C   UNL     1      -4.513   2.644 -32.363  1.00  0.00    -0.021 C 
HETATM    3  C   UNL     1      -5.603   2.557 -33.230  1.00  0.00     0.081 C 
HETATM    4  S   UNL     1      -5.826   4.022 -34.102  1.00  0.00    -0.063 SA
HETATM    5  C   UNL     1      -4.409   4.711 -33.472  1.00  0.00     0.116 A 
HETATM    6  C   UNL     1      -3.784   3.871 -32.578  1.00  0.00     0.075 A 
HETATM    7  C   UNL     1      -2.512   4.317 -32.029  1.00  0.00     0.262 A 
HETATM    8  O   UNL     1      -1.871   3.686 -31.188  1.00  0.00    -0.267 OA
HETATM    9  N   UNL     1      -2.060   5.529 -32.547  1.00  0.00    -0.299 N 
HETATM   10  C   UNL     1      -2.838   6.289 -33.397  1.00  0.00     0.214 A 
HETATM   11  N   UNL     1      -3.991   5.939 -33.870  1.00  0.00    -0.235 NA
ENDROOT
BRANCH   3  12
HETATM   12  C   UNL     1      -6.481   1.410 -33.468  1.00  0.00     0.259 C 
HETATM   13  N   UNL     1      -7.546   1.272 -32.601  1.00  0.00    -0.354 N 
HETATM   14  H   UNL     1      -7.583   1.875 -31.787  1.00  0.00     0.162 HD
HETATM   15  O   UNL     1      -6.330   0.619 -34.398  1.00  0.00    -0.267 OA
BRANCH  13  16
HETATM   16  C   UNL     1      -8.544   0.228 -32.750  1.00  0.00     0.157 C 
BRANCH  16  17
HETATM   17  C   UNL     1      -9.789   0.690 -33.515  1.00  0.00     0.171 C 
HETATM   18  O   UNL     1     -10.888  -0.157 -33.126  1.00  0.00    -0.339 OA
HETATM   19  C   UNL     1     -12.092   0.367 -33.519  1.00  0.00     0.102 A 
HETATM   20  C   UNL     1     -12.258   1.702 -33.901  1.00  0.00     0.102 A 
HETATM   21  C   UNL     1     -13.184  -0.497 -33.512  1.00  0.00     0.039 A 
HETATM   22  O   UNL     1     -11.236   2.617 -33.904  1.00  0.00    -0.346 OA
HETATM   23  C   UNL     1     -13.507   2.160 -34.312  1.00  0.00     0.039 A 
HETATM   24  C   UNL     1     -10.106   2.142 -33.163  1.00  0.00     0.209 C 
HETATM   25  C   UNL     1     -14.600   1.291 -34.318  1.00  0.00     0.003 A 
HETATM   26  C   UNL     1     -14.439  -0.036 -33.915  1.00  0.00     0.003 A 
ENDBRANCH  16  17
ENDBRANCH  13  16
ENDBRANCH   3  12
BRANCH   9  27
HETATM   27  C   UNL     1      -0.720   5.967 -32.203  1.00  0.00     0.236 C 
BRANCH  27  28
HETATM   28  C   UNL     1      -0.744   6.900 -30.997  1.00  0.00     0.240 C 
HETATM   29  N   UNL     1      -0.717   6.222 -29.790  1.00  0.00    -0.326 N 
HETATM   30  H   UNL     1      -0.911   5.220 -29.829  1.00  0.00     0.169 HD
HETATM   31  O   UNL     1      -0.820   8.115 -31.151  1.00  0.00    -0.271 OA
BRANCH  29  32
HETATM   32  C   UNL     1      -0.545   6.771 -28.506  1.00  0.00     0.035 A 
HETATM   33  C   UNL     1      -1.603   7.165 -27.682  1.00  0.00     0.045 A 
HETATM   34  C   UNL     1      -1.359   7.756 -26.430  1.00  0.00     0.050 A 
HETATM   35  C   UNL     1      -0.034   7.936 -26.006  1.00  0.00     0.016 A 
HETATM   36  C   UNL     1       1.025   7.544 -26.821  1.00  0.00     0.003 A 
HETATM   37  C   UNL     1       0.769   6.970 -28.067  1.00  0.00     0.029 A 
BRANCH  34  38
HETATM   38  C   UNL     1      -2.496   8.203 -25.545  1.00  0.00     0.417 C 
HETATM   39  F   UNL     1      -2.481   7.651 -24.301  1.00  0.00    -0.166 F 
HETATM   40  F   UNL     1      -2.510   9.552 -25.355  1.00  0.00    -0.166 F 
HETATM   41  F   UNL     1      -3.715   7.891 -26.073  1.00  0.00    -0.166 F 
ENDBRANCH  34  38
ENDBRANCH  29  32
ENDBRANCH  27  28
ENDBRANCH   9  27
TORSDOF 7
ENDMDL
MODEL 9
REMARK VINA RESULT:      -9.3      4.496     10.403
REMARK  7 active torsions:
REMARK  status: ('A' for Active; 'I' for Inactive)
REMARK    1  A    between atoms: C_3  and  C_4 
REMARK       I    between atoms: C_4  and  N_5 
REMARK    2  A    between atoms: N_5  and  C_6 
REMARK    3  A    between atoms: C_6  and  C_7 
REMARK    4  A    between atoms: N_23  and  C_24 
REMARK    5  A    between atoms: C_24  and  C_25 
REMARK       I    between atoms: C_25  and  N_26 
REMARK    6  A    between atoms: N_26  and  C_27 
REMARK    7  A    between atoms: C_29  and  C_30 
ROOT
HETATM    1  C   UNL     1      -5.601   2.807 -30.308  1.00  0.00     0.051 C 
HETATM    2  C   UNL     1      -6.409   3.948 -30.847  1.00  0.00    -0.021 C 
HETATM    3  C   UNL     1      -7.008   3.971 -32.107  1.00  0.00     0.081 C 
HETATM    4  S   UNL     1      -7.944   5.395 -32.329  1.00  0.00    -0.063 SA
HETATM    5  C   UNL     1      -7.439   6.058 -30.851  1.00  0.00     0.116 A 
HETATM    6  C   UNL     1      -6.603   5.206 -30.165  1.00  0.00     0.075 A 
HETATM    7  C   UNL     1      -6.037   5.696 -28.917  1.00  0.00     0.262 A 
HETATM    8  O   UNL     1      -5.312   5.022 -28.185  1.00  0.00    -0.267 OA
HETATM    9  N   UNL     1      -6.372   7.014 -28.617  1.00  0.00    -0.299 N 
HETATM   10  C   UNL     1      -7.280   7.723 -29.378  1.00  0.00     0.214 A 
HETATM   11  N   UNL     1      -7.832   7.300 -30.469  1.00  0.00    -0.235 NA
ENDROOT
BRANCH   3  12
HETATM   12  C   UNL     1      -6.892   2.983 -33.182  1.00  0.00     0.259 C 
HETATM   13  N   UNL     1      -7.565   1.794 -32.988  1.00  0.00    -0.354 N 
HETATM   14  H   UNL     1      -7.978   1.620 -32.079  1.00  0.00     0.162 HD
HETATM   15  O   UNL     1      -6.271   3.183 -34.225  1.00  0.00    -0.267 OA
BRANCH  13  16
HETATM   16  C   UNL     1      -7.605   0.747 -33.993  1.00  0.00     0.157 C 
BRANCH  16  17
HETATM   17  C   UNL     1      -6.782  -0.488 -33.610  1.00  0.00     0.171 C 
HETATM   18  O   UNL     1      -7.151  -1.560 -34.499  1.00  0.00    -0.339 OA
HETATM   19  C   UNL     1      -6.259  -2.598 -34.433  1.00  0.00     0.102 A 
HETATM   20  C   UNL     1      -4.983  -2.478 -33.876  1.00  0.00     0.102 A 
HETATM   21  C   UNL     1      -6.674  -3.815 -34.970  1.00  0.00     0.039 A 
HETATM   22  O   UNL     1      -4.497  -1.306 -33.355  1.00  0.00    -0.346 OA
HETATM   23  C   UNL     1      -4.137  -3.583 -33.822  1.00  0.00     0.039 A 
HETATM   24  C   UNL     1      -5.292  -0.185 -33.756  1.00  0.00     0.209 C 
HETATM   25  C   UNL     1      -4.557  -4.806 -34.348  1.00  0.00     0.003 A 
HETATM   26  C   UNL     1      -5.823  -4.921 -34.925  1.00  0.00     0.003 A 
ENDBRANCH  16  17
ENDBRANCH  13  16
ENDBRANCH   3  12
BRANCH   9  27
HETATM   27  C   UNL     1      -5.712   7.653 -27.494  1.00  0.00     0.236 C 
BRANCH  27  28
HETATM   28  C   UNL     1      -4.355   8.213 -27.906  1.00  0.00     0.240 C 
HETATM   29  N   UNL     1      -3.328   7.295 -27.771  1.00  0.00    -0.326 N 
HETATM   30  H   UNL     1      -3.535   6.461 -27.218  1.00  0.00     0.169 HD
HETATM   31  O   UNL     1      -4.248   9.380 -28.274  1.00  0.00    -0.271 OA
BRANCH  29  32
HETATM   32  C   UNL     1      -2.003   7.421 -28.230  1.00  0.00     0.035 A 
HETATM   33  C   UNL     1      -1.584   7.035 -29.505  1.00  0.00     0.045 A 
HETATM   34  C   UNL     1      -0.233   7.141 -29.882  1.00  0.00     0.050 A 
HETATM   35  C   UNL     1       0.694   7.654 -28.963  1.00  0.00     0.016 A 
HETATM   36  C   UNL     1       0.282   8.043 -27.691  1.00  0.00     0.003 A 
HETATM   37  C   UNL     1      -1.059   7.921 -27.325  1.00  0.00     0.029 A 
BRANCH  34  38
HETATM   38  C   UNL     1       0.230   6.705 -31.250  1.00  0.00     0.417 C 
HETATM   39  F   UNL     1      -0.610   7.062 -32.260  1.00  0.00    -0.166 F 
HETATM   40  F   UNL     1       1.448   7.221 -31.577  1.00  0.00    -0.166 F 
HETATM   41  F   UNL     1       0.365   5.351 -31.343  1.00  0.00    -0.166 F 
ENDBRANCH  34  38
ENDBRANCH  29  32
ENDBRANCH  27  28
ENDBRANCH   9  27
TORSDOF 7
ENDMDL
MODEL 10
REMARK VINA RESULT:      -9.3      4.942      8.825
REMARK  7 active torsions:
REMARK  status: ('A' for Active; 'I' for Inactive)
REMARK    1  A    between atoms: C_3  and  C_4 
REMARK       I    between atoms: C_4  and  N_5 
REMARK    2  A    between atoms: N_5  and  C_6 
REMARK    3  A    between atoms: C_6  and  C_7 
REMARK    4  A    between atoms: N_23  and  C_24 
REMARK    5  A    between atoms: C_24  and  C_25 
REMARK       I    between atoms: C_25  and  N_26 
REMARK    6  A    between atoms: N_26  and  C_27 
REMARK    7  A    between atoms: C_29  and  C_30 
ROOT
HETATM    1  C   UNL     1      -5.282   4.499 -33.658  1.00  0.00     0.051 C 
HETATM    2  C   UNL     1      -5.718   4.341 -32.233  1.00  0.00    -0.021 C 
HETATM    3  C   UNL     1      -5.073   3.539 -31.290  1.00  0.00     0.081 C 
HETATM    4  S   UNL     1      -5.793   3.699 -29.737  1.00  0.00    -0.063 SA
HETATM    5  C   UNL     1      -7.043   4.685 -30.325  1.00  0.00     0.116 A 
HETATM    6  C   UNL     1      -6.909   4.934 -31.673  1.00  0.00     0.075 A 
HETATM    7  C   UNL     1      -7.966   5.703 -32.312  1.00  0.00     0.262 A 
HETATM    8  O   UNL     1      -7.949   6.034 -33.498  1.00  0.00    -0.267 OA
HETATM    9  N   UNL     1      -9.025   6.030 -31.468  1.00  0.00    -0.299 N 
HETATM   10  C   UNL     1      -8.982   5.761 -30.115  1.00  0.00     0.214 A 
HETATM   11  N   UNL     1      -8.038   5.116 -29.510  1.00  0.00    -0.235 NA
ENDROOT
BRANCH   3  12
HETATM   12  C   UNL     1      -3.950   2.623 -31.498  1.00  0.00     0.259 C 
HETATM   13  N   UNL     1      -4.280   1.311 -31.771  1.00  0.00    -0.354 N 
HETATM   14  H   UNL     1      -5.250   1.032 -31.680  1.00  0.00     0.162 HD
HETATM   15  O   UNL     1      -2.772   2.976 -31.474  1.00  0.00    -0.267 OA
BRANCH  13  16
HETATM   16  C   UNL     1      -3.281   0.301 -32.071  1.00  0.00     0.157 C 
BRANCH  16  17
HETATM   17  C   UNL     1      -3.729  -0.689 -33.151  1.00  0.00     0.171 C 
HETATM   18  O   UNL     1      -3.473  -2.020 -32.665  1.00  0.00    -0.339 OA
HETATM   19  C   UNL     1      -4.116  -2.965 -33.423  1.00  0.00     0.102 A 
HETATM   20  C   UNL     1      -5.164  -2.662 -34.297  1.00  0.00     0.102 A 
HETATM   21  C   UNL     1      -3.687  -4.282 -33.279  1.00  0.00     0.039 A 
HETATM   22  O   UNL     1      -5.659  -1.394 -34.469  1.00  0.00    -0.346 OA
HETATM   23  C   UNL     1      -5.756  -3.670 -35.054  1.00  0.00     0.039 A 
HETATM   24  C   UNL     1      -5.222  -0.516 -33.426  1.00  0.00     0.209 C 
HETATM   25  C   UNL     1      -5.317  -4.989 -34.920  1.00  0.00     0.003 A 
HETATM   26  C   UNL     1      -4.286  -5.295 -34.030  1.00  0.00     0.003 A 
ENDBRANCH  16  17
ENDBRANCH  13  16
ENDBRANCH   3  12
BRANCH   9  27
HETATM   27  C   UNL     1     -10.209   6.633 -32.051  1.00  0.00     0.236 C 
BRANCH  27  28
HETATM   28  C   UNL     1     -11.081   5.580 -32.726  1.00  0.00     0.240 C 
HETATM   29  N   UNL     1     -11.720   4.749 -31.821  1.00  0.00    -0.326 N 
HETATM   30  H   UNL     1     -11.377   4.776 -30.860  1.00  0.00     0.169 HD
HETATM   31  O   UNL     1     -11.134   5.506 -33.950  1.00  0.00    -0.271 OA
BRANCH  29  32
HETATM   32  C   UNL     1     -12.728   3.805 -32.094  1.00  0.00     0.035 A 
HETATM   33  C   UNL     1     -12.553   2.706 -32.940  1.00  0.00     0.045 A 
HETATM   34  C   UNL     1     -13.617   1.829 -33.211  1.00  0.00     0.050 A 
HETATM   35  C   UNL     1     -14.863   2.060 -32.609  1.00  0.00     0.016 A 
HETATM   36  C   UNL     1     -15.043   3.151 -31.763  1.00  0.00     0.003 A 
HETATM   37  C   UNL     1     -13.982   4.022 -31.512  1.00  0.00     0.029 A 
BRANCH  34  38
HETATM   38  C   UNL     1     -13.441   0.653 -34.141  1.00  0.00     0.417 C 
HETATM   39  F   UNL     1     -14.611   0.123 -34.592  1.00  0.00    -0.166 F 
HETATM   40  F   UNL     1     -12.721   0.972 -35.252  1.00  0.00    -0.166 F 
HETATM   41  F   UNL     1     -12.772  -0.378 -33.549  1.00  0.00    -0.166 F 
ENDBRANCH  34  38
ENDBRANCH  29  32
ENDBRANCH  27  28
ENDBRANCH   9  27
TORSDOF 7
ENDMDL
