MODEL 1
REMARK VINA RESULT:      -8.8      0.000      0.000
REMARK  6 active torsions:
REMARK  status: ('A' for Active; 'I' for Inactive)
REMARK    1  A    between atoms: C_3  and  N_4 
REMARK    2  A    between atoms: N_4  and  C_5 
REMARK    3  A    between atoms: C_5  and  C_6 
REMARK    4  A    between atoms: N_8  and  C_10 
REMARK    5  A    between atoms: C_10  and  C_11 
REMARK    6  A    between atoms: C_12  and  C_13 
ROOT
HETATM    1  C   UNL     1      -9.068   1.378 -32.603  1.00  0.00     0.031 C 
HETATM    2  C   UNL     1      -8.130   1.087 -31.424  1.00  0.00     0.241 C 
HETATM    3  N   UNL     1      -6.770   0.821 -32.043  1.00  0.00    -0.067 N 
HETATM    4  H   UNL     1      -6.116   1.525 -31.674  1.00  0.00     0.280 HD
HETATM    5  C   UNL     1      -6.878   1.077 -33.530  1.00  0.00     0.235 C 
HETATM    6  C   UNL     1      -8.112   1.946 -33.650  1.00  0.00     0.035 C 
ENDROOT
BRANCH   3   7
HETATM    7  C   UNL     1      -6.157  -0.511 -31.663  1.00  0.00     0.277 C 
BRANCH   7   8
HETATM    8  C   UNL     1      -4.680  -0.476 -31.538  1.00  0.00     0.016 A 
HETATM    9  C   UNL     1      -3.731  -1.385 -32.110  1.00  0.00     0.102 A 
HETATM   10  N   UNL     1      -2.483  -0.995 -31.832  1.00  0.00    -0.174 NA
HETATM   11  N   UNL     1      -2.608   0.047 -31.007  1.00  0.00    -0.288 N 
HETATM   12  H   UNL     1      -1.761   0.458 -30.619  1.00  0.00     0.188 HD
HETATM   13  C   UNL     1      -3.908   0.420 -30.819  1.00  0.00     0.120 A 
BRANCH   9  14
HETATM   14  C   UNL     1      -3.952  -2.584 -32.908  1.00  0.00     0.072 A 
HETATM   15  C   UNL     1      -3.473  -3.834 -32.508  1.00  0.00     0.132 A 
HETATM   16  F   UNL     1      -2.729  -3.955 -31.395  1.00  0.00    -0.205 F 
HETATM   17  C   UNL     1      -3.718  -4.982 -33.262  1.00  0.00     0.043 A 
HETATM   18  C   UNL     1      -4.453  -4.892 -34.444  1.00  0.00     0.006 A 
HETATM   19  C   UNL     1      -4.930  -3.652 -34.866  1.00  0.00     0.043 A 
HETATM   20  C   UNL     1      -4.679  -2.513 -34.100  1.00  0.00     0.132 A 
HETATM   21  F   UNL     1      -5.119  -1.333 -34.561  1.00  0.00    -0.205 F 
ENDBRANCH   9  14
ENDBRANCH   7   8
ENDBRANCH   3   7
BRANCH   1  22
HETATM   22  C   UNL     1      -9.820   0.109 -33.053  1.00  0.00     0.127 C 
BRANCH  22  23
HETATM   23  N   UNL     1     -11.266   0.323 -33.055  1.00  0.00    -0.376 N 
HETATM   24  H   UNL     1     -11.845  -0.490 -32.866  1.00  0.00     0.161 HD
BRANCH  23  25
HETATM   25  C   UNL     1     -11.846   1.413 -33.674  1.00  0.00     0.100 A 
HETATM   26  C   UNL     1     -11.823   1.651 -35.056  1.00  0.00     0.048 A 
HETATM   27  C   UNL     1     -12.412   2.798 -35.585  1.00  0.00     0.005 A 
HETATM   28  C   UNL     1     -13.004   3.719 -34.733  1.00  0.00     0.017 A 
HETATM   29  C   UNL     1     -12.995   3.467 -33.372  1.00  0.00     0.089 A 
HETATM   30  N   UNL     1     -12.431   2.345 -32.898  1.00  0.00    -0.353 N 
HETATM   31  H   UNL     1     -12.426   2.201 -31.893  1.00  0.00     0.166 HD
ENDBRANCH  23  25
ENDBRANCH  22  23
ENDBRANCH   1  22
TORSDOF 6
ENDMDL
MODEL 2
REMARK VINA RESULT:      -8.8      3.862      7.032
REMARK  6 active torsions:
REMARK  status: ('A' for Active; 'I' for Inactive)
REMARK    1  A    between atoms: C_3  and  N_4 
REMARK    2  A    between atoms: N_4  and  C_5 
REMARK    3  A    between atoms: C_5  and  C_6 
REMARK    4  A    between atoms: N_8  and  C_10 
REMARK    5  A    between atoms: C_10  and  C_11 
REMARK    6  A    between atoms: C_12  and  C_13 
ROOT
HETATM    1  C   UNL     1      -8.238  -0.016 -33.596  1.00  0.00     0.031 C 
HETATM    2  C   UNL     1      -7.389   0.189 -32.334  1.00  0.00     0.241 C 
HETATM    3  N   UNL     1      -7.133   1.684 -32.257  1.00  0.00    -0.067 N 
HETATM    4  H   UNL     1      -7.536   2.023 -31.372  1.00  0.00     0.280 HD
HETATM    5  C   UNL     1      -7.919   2.348 -33.366  1.00  0.00     0.235 C 
HETATM    6  C   UNL     1      -8.970   1.318 -33.720  1.00  0.00     0.035 C 
ENDROOT
BRANCH   3   7
HETATM    7  C   UNL     1      -5.670   2.067 -32.187  1.00  0.00     0.277 C 
BRANCH   7   8
HETATM    8  C   UNL     1      -5.391   3.199 -31.269  1.00  0.00     0.016 A 
HETATM    9  C   UNL     1      -4.558   4.339 -31.513  1.00  0.00     0.102 A 
HETATM   10  N   UNL     1      -4.601   5.181 -30.475  1.00  0.00    -0.174 NA
HETATM   11  N   UNL     1      -5.326   4.561 -29.541  1.00  0.00    -0.288 N 
HETATM   12  H   UNL     1      -5.427   5.012 -28.633  1.00  0.00     0.188 HD
HETATM   13  C   UNL     1      -5.850   3.377 -29.975  1.00  0.00     0.120 A 
BRANCH   9  14
HETATM   14  C   UNL     1      -3.743   4.667 -32.675  1.00  0.00     0.072 A 
HETATM   15  C   UNL     1      -2.348   4.592 -32.642  1.00  0.00     0.132 A 
HETATM   16  F   UNL     1      -1.709   4.275 -31.503  1.00  0.00    -0.205 F 
HETATM   17  C   UNL     1      -1.577   4.877 -33.770  1.00  0.00     0.043 A 
HETATM   18  C   UNL     1      -2.201   5.247 -34.961  1.00  0.00     0.006 A 
HETATM   19  C   UNL     1      -3.591   5.339 -35.011  1.00  0.00     0.043 A 
HETATM   20  C   UNL     1      -4.349   5.049 -33.876  1.00  0.00     0.132 A 
HETATM   21  F   UNL     1      -5.680   5.189 -33.953  1.00  0.00    -0.205 F 
ENDBRANCH   9  14
ENDBRANCH   7   8
ENDBRANCH   3   7
BRANCH   1  22
HETATM   22  C   UNL     1      -7.363  -0.374 -34.815  1.00  0.00     0.127 C 
BRANCH  22  23
HETATM   23  N   UNL     1      -6.072  -0.919 -34.398  1.00  0.00    -0.376 N 
HETATM   24  H   UNL     1      -5.298  -0.263 -34.345  1.00  0.00     0.161 HD
BRANCH  23  25
HETATM   25  C   UNL     1      -5.786  -2.268 -34.478  1.00  0.00     0.100 A 
HETATM   26  C   UNL     1      -6.715  -3.262 -34.819  1.00  0.00     0.048 A 
HETATM   27  C   UNL     1      -6.337  -4.603 -34.843  1.00  0.00     0.005 A 
HETATM   28  C   UNL     1      -5.038  -4.956 -34.506  1.00  0.00     0.017 A 
HETATM   29  C   UNL     1      -4.148  -3.955 -34.156  1.00  0.00     0.089 A 
HETATM   30  N   UNL     1      -4.543  -2.672 -34.156  1.00  0.00    -0.353 N 
HETATM   31  H   UNL     1      -3.868  -1.965 -33.877  1.00  0.00     0.166 HD
ENDBRANCH  23  25
ENDBRANCH  22  23
ENDBRANCH   1  22
TORSDOF 6
ENDMDL
MODEL 3
REMARK VINA RESULT:      -8.7      4.071      7.776
REMARK  6 active torsions:
REMARK  status: ('A' for Active; 'I' for Inactive)
REMARK    1  A    between atoms: C_3  and  N_4 
REMARK    2  A    between atoms: N_4  and  C_5 
REMARK    3  A    between atoms: C_5  and  C_6 
REMARK    4  A    between atoms: N_8  and  C_10 
REMARK    5  A    between atoms: C_10  and  C_11 
REMARK    6  A    between atoms: C_12  and  C_13 
ROOT
HETATM    1  C   UNL     1      -3.954   0.241 -31.978  1.00  0.00     0.031 C 
HETATM    2  C   UNL     1      -4.084   1.754 -32.196  1.00  0.00     0.241 C 
HETATM    3  N   UNL     1      -5.573   2.019 -32.327  1.00  0.00    -0.067 N 
HETATM    4  H   UNL     1      -5.842   2.663 -31.569  1.00  0.00     0.280 HD
HETATM    5  C   UNL     1      -6.301   0.720 -32.061  1.00  0.00     0.235 C 
HETATM    6  C   UNL     1      -5.281  -0.110 -31.309  1.00  0.00     0.035 C 
ENDROOT
BRANCH   3   7
HETATM    7  C   UNL     1      -5.974   2.732 -33.601  1.00  0.00     0.277 C 
BRANCH   7   8
HETATM    8  C   UNL     1      -6.309   4.164 -33.405  1.00  0.00     0.016 A 
HETATM    9  C   UNL     1      -5.406   5.275 -33.354  1.00  0.00     0.102 A 
HETATM   10  N   UNL     1      -6.083   6.422 -33.227  1.00  0.00    -0.174 NA
HETATM   11  N   UNL     1      -7.361   6.069 -33.070  1.00  0.00    -0.288 N 
HETATM   12  H   UNL     1      -8.044   6.803 -32.888  1.00  0.00     0.188 HD
HETATM   13  C   UNL     1      -7.558   4.724 -33.196  1.00  0.00     0.120 A 
BRANCH   9  14
HETATM   14  C   UNL     1      -3.952   5.300 -33.433  1.00  0.00     0.072 A 
HETATM   15  C   UNL     1      -3.153   5.353 -32.289  1.00  0.00     0.132 A 
HETATM   16  F   UNL     1      -3.712   5.451 -31.069  1.00  0.00    -0.205 F 
HETATM   17  C   UNL     1      -1.760   5.344 -32.373  1.00  0.00     0.043 A 
HETATM   18  C   UNL     1      -1.141   5.282 -33.620  1.00  0.00     0.006 A 
HETATM   19  C   UNL     1      -1.921   5.240 -34.775  1.00  0.00     0.043 A 
HETATM   20  C   UNL     1      -3.313   5.248 -34.675  1.00  0.00     0.132 A 
HETATM   21  F   UNL     1      -4.027   5.249 -35.810  1.00  0.00    -0.205 F 
ENDBRANCH   9  14
ENDBRANCH   7   8
ENDBRANCH   3   7
BRANCH   1  22
HETATM   22  C   UNL     1      -3.697  -0.502 -33.304  1.00  0.00     0.127 C 
BRANCH  22  23
HETATM   23  N   UNL     1      -3.744  -1.951 -33.118  1.00  0.00    -0.376 N 
HETATM   24  H   UNL     1      -2.914  -2.385 -32.723  1.00  0.00     0.161 HD
BRANCH  23  25
HETATM   25  C   UNL     1      -4.643  -2.749 -33.798  1.00  0.00     0.100 A 
HETATM   26  C   UNL     1      -5.896  -2.323 -34.262  1.00  0.00     0.048 A 
HETATM   27  C   UNL     1      -6.748  -3.213 -34.914  1.00  0.00     0.005 A 
HETATM   28  C   UNL     1      -6.359  -4.534 -35.084  1.00  0.00     0.017 A 
HETATM   29  C   UNL     1      -5.124  -4.930 -34.600  1.00  0.00     0.089 A 
HETATM   30  N   UNL     1      -4.323  -4.043 -33.988  1.00  0.00    -0.353 N 
HETATM   31  H   UNL     1      -3.432  -4.373 -33.629  1.00  0.00     0.166 HD
ENDBRANCH  23  25
ENDBRANCH  22  23
ENDBRANCH   1  22
TORSDOF 6
ENDMDL
MODEL 4
REMARK VINA RESULT:      -8.6      3.637      6.998
REMARK  6 active torsions:
REMARK  status: ('A' for Active; 'I' for Inactive)
REMARK    1  A    between atoms: C_3  and  N_4 
REMARK    2  A    between atoms: N_4  and  C_5 
REMARK    3  A    between atoms: C_5  and  C_6 
REMARK    4  A    between atoms: N_8  and  C_10 
REMARK    5  A    between atoms: C_10  and  C_11 
REMARK    6  A    between atoms: C_12  and  C_13 
ROOT
HETATM    1  C   UNL     1      -5.040   4.265 -30.795  1.00  0.00     0.031 C 
HETATM    2  C   UNL     1      -5.950   4.688 -31.956  1.00  0.00     0.241 C 
HETATM    3  N   UNL     1      -7.185   3.813 -31.843  1.00  0.00    -0.067 N 
HETATM    4  H   UNL     1      -7.995   4.434 -31.710  1.00  0.00     0.280 HD
HETATM    5  C   UNL     1      -7.061   2.995 -30.576  1.00  0.00     0.235 C 
HETATM    6  C   UNL     1      -6.043   3.761 -29.759  1.00  0.00     0.035 C 
ENDROOT
BRANCH   3   7
HETATM    7  C   UNL     1      -7.509   3.020 -33.092  1.00  0.00     0.277 C 
BRANCH   7   8
HETATM    8  C   UNL     1      -8.576   2.008 -32.897  1.00  0.00     0.016 A 
HETATM    9  C   UNL     1      -8.456   0.582 -32.977  1.00  0.00     0.102 A 
HETATM   10  N   UNL     1      -9.621  -0.003 -32.679  1.00  0.00    -0.174 NA
HETATM   11  N   UNL     1     -10.498   0.994 -32.539  1.00  0.00    -0.288 N 
HETATM   12  H   UNL     1     -11.474   0.757 -32.372  1.00  0.00     0.188 HD
HETATM   13  C   UNL     1      -9.917   2.227 -32.632  1.00  0.00     0.120 A 
BRANCH   9  14
HETATM   14  C   UNL     1      -7.299  -0.239 -33.305  1.00  0.00     0.072 A 
HETATM   15  C   UNL     1      -6.326  -0.555 -32.354  1.00  0.00     0.132 A 
HETATM   16  F   UNL     1      -6.397  -0.049 -31.110  1.00  0.00    -0.205 F 
HETATM   17  C   UNL     1      -5.238  -1.371 -32.669  1.00  0.00     0.043 A 
HETATM   18  C   UNL     1      -5.107  -1.884 -33.958  1.00  0.00     0.006 A 
HETATM   19  C   UNL     1      -6.061  -1.571 -34.925  1.00  0.00     0.043 A 
HETATM   20  C   UNL     1      -7.145  -0.757 -34.594  1.00  0.00     0.132 A 
HETATM   21  F   UNL     1      -8.018  -0.445 -35.563  1.00  0.00    -0.205 F 
ENDBRANCH   9  14
ENDBRANCH   7   8
ENDBRANCH   3   7
BRANCH   1  22
HETATM   22  C   UNL     1      -4.006   3.211 -31.240  1.00  0.00     0.127 C 
BRANCH  22  23
HETATM   23  N   UNL     1      -2.654   3.766 -31.251  1.00  0.00    -0.376 N 
HETATM   24  H   UNL     1      -2.168   3.794 -30.360  1.00  0.00     0.161 HD
BRANCH  23  25
HETATM   25  C   UNL     1      -2.205   4.582 -32.271  1.00  0.00     0.100 A 
HETATM   26  C   UNL     1      -2.331   4.293 -33.637  1.00  0.00     0.048 A 
HETATM   27  C   UNL     1      -1.818   5.168 -34.594  1.00  0.00     0.005 A 
HETATM   28  C   UNL     1      -1.161   6.320 -34.187  1.00  0.00     0.017 A 
HETATM   29  C   UNL     1      -1.036   6.570 -32.831  1.00  0.00     0.089 A 
HETATM   30  N   UNL     1      -1.554   5.712 -31.938  1.00  0.00    -0.353 N 
HETATM   31  H   UNL     1      -1.428   5.918 -30.951  1.00  0.00     0.166 HD
ENDBRANCH  23  25
ENDBRANCH  22  23
ENDBRANCH   1  22
TORSDOF 6
ENDMDL
MODEL 5
REMARK VINA RESULT:      -8.5      4.132      7.356
REMARK  6 active torsions:
REMARK  status: ('A' for Active; 'I' for Inactive)
REMARK    1  A    between atoms: C_3  and  N_4 
REMARK    2  A    between atoms: N_4  and  C_5 
REMARK    3  A    between atoms: C_5  and  C_6 
REMARK    4  A    between atoms: N_8  and  C_10 
REMARK    5  A    between atoms: C_10  and  C_11 
REMARK    6  A    between atoms: C_12  and  C_13 
ROOT
HETATM    1  C   UNL     1      -3.832   4.566 -32.848  1.00  0.00     0.031 C 
HETATM    2  C   UNL     1      -4.405   3.162 -32.615  1.00  0.00     0.241 C 
HETATM    3  N   UNL     1      -5.659   3.089 -33.468  1.00  0.00    -0.067 N 
HETATM    4  H   UNL     1      -5.532   2.324 -34.144  1.00  0.00     0.280 HD
HETATM    5  C   UNL     1      -5.745   4.364 -34.277  1.00  0.00     0.235 C 
HETATM    6  C   UNL     1      -4.326   4.894 -34.254  1.00  0.00     0.035 C 
ENDROOT
BRANCH   3   7
HETATM    7  C   UNL     1      -6.916   2.725 -32.706  1.00  0.00     0.277 C 
BRANCH   7   8
HETATM    8  C   UNL     1      -6.666   1.905 -31.495  1.00  0.00     0.016 A 
HETATM    9  C   UNL     1      -6.301   0.521 -31.435  1.00  0.00     0.102 A 
HETATM   10  N   UNL     1      -6.098   0.145 -30.168  1.00  0.00    -0.174 NA
HETATM   11  N   UNL     1      -6.440   1.198 -29.422  1.00  0.00    -0.288 N 
HETATM   12  H   UNL     1      -6.421   1.097 -28.409  1.00  0.00     0.188 HD
HETATM   13  C   UNL     1      -6.763   2.294 -30.170  1.00  0.00     0.120 A 
BRANCH   9  14
HETATM   14  C   UNL     1      -6.126  -0.445 -32.512  1.00  0.00     0.072 A 
HETATM   15  C   UNL     1      -7.200  -0.879 -33.294  1.00  0.00     0.132 A 
HETATM   16  F   UNL     1      -8.450  -0.461 -33.029  1.00  0.00    -0.205 F 
HETATM   17  C   UNL     1      -7.018  -1.779 -34.344  1.00  0.00     0.043 A 
HETATM   18  C   UNL     1      -5.742  -2.265 -34.627  1.00  0.00     0.006 A 
HETATM   19  C   UNL     1      -4.660  -1.853 -33.851  1.00  0.00     0.043 A 
HETATM   20  C   UNL     1      -4.857  -0.951 -32.806  1.00  0.00     0.132 A 
HETATM   21  F   UNL     1      -3.798  -0.612 -32.056  1.00  0.00    -0.205 F 
ENDBRANCH   9  14
ENDBRANCH   7   8
ENDBRANCH   3   7
BRANCH   1  22
HETATM   22  C   UNL     1      -4.303   5.556 -31.764  1.00  0.00     0.127 C 
BRANCH  22  23
HETATM   23  N   UNL     1      -3.387   5.570 -30.624  1.00  0.00    -0.376 N 
HETATM   24  H   UNL     1      -3.811   5.640 -29.703  1.00  0.00     0.161 HD
BRANCH  23  25
HETATM   25  C   UNL     1      -2.052   5.893 -30.760  1.00  0.00     0.100 A 
HETATM   26  C   UNL     1      -1.573   7.079 -31.338  1.00  0.00     0.048 A 
HETATM   27  C   UNL     1      -0.202   7.302 -31.458  1.00  0.00     0.005 A 
HETATM   28  C   UNL     1       0.691   6.334 -31.022  1.00  0.00     0.017 A 
HETATM   29  C   UNL     1       0.189   5.167 -30.473  1.00  0.00     0.089 A 
HETATM   30  N   UNL     1      -1.137   4.990 -30.361  1.00  0.00    -0.353 N 
HETATM   31  H   UNL     1      -1.471   4.114 -29.969  1.00  0.00     0.166 HD
ENDBRANCH  23  25
ENDBRANCH  22  23
ENDBRANCH   1  22
TORSDOF 6
ENDMDL
MODEL 6
REMARK VINA RESULT:      -8.5      4.418      7.854
REMARK  6 active torsions:
REMARK  status: ('A' for Active; 'I' for Inactive)
REMARK    1  A    between atoms: C_3  and  N_4 
REMARK    2  A    between atoms: N_4  and  C_5 
REMARK    3  A    between atoms: C_5  and  C_6 
REMARK    4  A    between atoms: N_8  and  C_10 
REMARK    5  A    between atoms: C_10  and  C_11 
REMARK    6  A    between atoms: C_12  and  C_13 
ROOT
HETATM    1  C   UNL     1      -3.784   4.790 -33.335  1.00  0.00     0.031 C 
HETATM    2  C   UNL     1      -3.865   3.402 -32.687  1.00  0.00     0.241 C 
HETATM    3  N   UNL     1      -5.346   3.088 -32.582  1.00  0.00    -0.067 N 
HETATM    4  H   UNL     1      -5.523   2.234 -33.130  1.00  0.00     0.280 HD
HETATM    5  C   UNL     1      -6.107   4.201 -33.269  1.00  0.00     0.235 C 
HETATM    6  C   UNL     1      -5.066   4.841 -34.164  1.00  0.00     0.035 C 
ENDROOT
BRANCH   3   7
HETATM    7  C   UNL     1      -5.819   2.753 -31.183  1.00  0.00     0.277 C 
BRANCH   7   8
HETATM    8  C   UNL     1      -7.262   2.415 -31.105  1.00  0.00     0.016 A 
HETATM    9  C   UNL     1      -7.972   1.429 -31.864  1.00  0.00     0.102 A 
HETATM   10  N   UNL     1      -9.249   1.367 -31.471  1.00  0.00    -0.174 NA
HETATM   11  N   UNL     1      -9.401   2.355 -30.587  1.00  0.00    -0.288 N 
HETATM   12  H   UNL     1     -10.331   2.525 -30.209  1.00  0.00     0.188 HD
HETATM   13  C   UNL     1      -8.230   3.001 -30.308  1.00  0.00     0.120 A 
BRANCH   9  14
HETATM   14  C   UNL     1      -7.498   0.547 -32.921  1.00  0.00     0.072 A 
HETATM   15  C   UNL     1      -6.686  -0.558 -32.651  1.00  0.00     0.132 A 
HETATM   16  F   UNL     1      -6.260  -0.802 -31.399  1.00  0.00    -0.205 F 
HETATM   17  C   UNL     1      -6.264  -1.416 -33.667  1.00  0.00     0.043 A 
HETATM   18  C   UNL     1      -6.653  -1.176 -34.984  1.00  0.00     0.006 A 
HETATM   19  C   UNL     1      -7.454  -0.073 -35.276  1.00  0.00     0.043 A 
HETATM   20  C   UNL     1      -7.870   0.775 -34.249  1.00  0.00     0.132 A 
HETATM   21  F   UNL     1      -8.604   1.849 -34.576  1.00  0.00    -0.205 F 
ENDBRANCH   9  14
ENDBRANCH   7   8
ENDBRANCH   3   7
BRANCH   1  22
HETATM   22  C   UNL     1      -3.672   5.904 -32.275  1.00  0.00     0.127 C 
BRANCH  22  23
HETATM   23  N   UNL     1      -2.963   5.434 -31.085  1.00  0.00    -0.376 N 
HETATM   24  H   UNL     1      -3.502   4.880 -30.426  1.00  0.00     0.161 HD
BRANCH  23  25
HETATM   25  C   UNL     1      -1.794   6.024 -30.648  1.00  0.00     0.100 A 
HETATM   26  C   UNL     1      -0.663   6.243 -31.448  1.00  0.00     0.048 A 
HETATM   27  C   UNL     1       0.485   6.820 -30.907  1.00  0.00     0.005 A 
HETATM   28  C   UNL     1       0.512   7.158 -29.561  1.00  0.00     0.017 A 
HETATM   29  C   UNL     1      -0.613   6.913 -28.792  1.00  0.00     0.089 A 
HETATM   30  N   UNL     1      -1.705   6.368 -29.350  1.00  0.00    -0.353 N 
HETATM   31  H   UNL     1      -2.506   6.186 -28.751  1.00  0.00     0.166 HD
ENDBRANCH  23  25
ENDBRANCH  22  23
ENDBRANCH   1  22
TORSDOF 6
ENDMDL
MODEL 7
REMARK VINA RESULT:      -8.5      2.386      4.380
REMARK  6 active torsions:
REMARK  status: ('A' for Active; 'I' for Inactive)
REMARK    1  A    between atoms: C_3  and  N_4 
REMARK    2  A    between atoms: N_4  and  C_5 
REMARK    3  A    between atoms: C_5  and  C_6 
REMARK    4  A    between atoms: N_8  and  C_10 
REMARK    5  A    between atoms: C_10  and  C_11 
REMARK    6  A    between atoms: C_12  and  C_13 
ROOT
HETATM    1  C   UNL     1      -8.264   0.992 -34.126  1.00  0.00     0.031 C 
HETATM    2  C   UNL     1      -7.023   1.140 -33.236  1.00  0.00     0.241 C 
HETATM    3  N   UNL     1      -6.154  -0.065 -33.548  1.00  0.00    -0.067 N 
HETATM    4  H   UNL     1      -5.255   0.285 -33.910  1.00  0.00     0.280 HD
HETATM    5  C   UNL     1      -6.804  -0.826 -34.682  1.00  0.00     0.235 C 
HETATM    6  C   UNL     1      -7.724   0.198 -35.313  1.00  0.00     0.035 C 
ENDROOT
BRANCH   3   7
HETATM    7  C   UNL     1      -5.784  -0.901 -32.341  1.00  0.00     0.277 C 
BRANCH   7   8
HETATM    8  C   UNL     1      -4.368  -0.752 -31.921  1.00  0.00     0.016 A 
HETATM    9  C   UNL     1      -3.736   0.410 -31.371  1.00  0.00     0.102 A 
HETATM   10  N   UNL     1      -2.464   0.145 -31.056  1.00  0.00    -0.174 NA
HETATM   11  N   UNL     1      -2.235  -1.093 -31.498  1.00  0.00    -0.288 N 
HETATM   12  H   UNL     1      -1.291  -1.468 -31.414  1.00  0.00     0.188 HD
HETATM   13  C   UNL     1      -3.354  -1.691 -32.003  1.00  0.00     0.120 A 
BRANCH   9  14
HETATM   14  C   UNL     1      -4.280   1.738 -31.123  1.00  0.00     0.072 A 
HETATM   15  C   UNL     1      -3.879   2.850 -31.868  1.00  0.00     0.132 A 
HETATM   16  F   UNL     1      -2.920   2.735 -32.804  1.00  0.00    -0.205 F 
HETATM   17  C   UNL     1      -4.430   4.112 -31.645  1.00  0.00     0.043 A 
HETATM   18  C   UNL     1      -5.399   4.282 -30.658  1.00  0.00     0.006 A 
HETATM   19  C   UNL     1      -5.805   3.187 -29.896  1.00  0.00     0.043 A 
HETATM   20  C   UNL     1      -5.247   1.930 -30.132  1.00  0.00     0.132 A 
HETATM   21  F   UNL     1      -5.632   0.911 -29.349  1.00  0.00    -0.205 F 
ENDBRANCH   9  14
ENDBRANCH   7   8
ENDBRANCH   3   7
BRANCH   1  22
HETATM   22  C   UNL     1      -9.420   0.300 -33.374  1.00  0.00     0.127 C 
BRANCH  22  23
HETATM   23  N   UNL     1     -10.499   1.242 -33.080  1.00  0.00    -0.376 N 
HETATM   24  H   UNL     1     -10.349   1.873 -32.297  1.00  0.00     0.161 HD
BRANCH  23  25
HETATM   25  C   UNL     1     -11.791   1.038 -33.523  1.00  0.00     0.100 A 
HETATM   26  C   UNL     1     -12.536   1.967 -34.263  1.00  0.00     0.048 A 
HETATM   27  C   UNL     1     -13.847   1.681 -34.640  1.00  0.00     0.005 A 
HETATM   28  C   UNL     1     -14.423   0.477 -34.259  1.00  0.00     0.017 A 
HETATM   29  C   UNL     1     -13.669  -0.413 -33.513  1.00  0.00     0.089 A 
HETATM   30  N   UNL     1     -12.404  -0.110 -33.179  1.00  0.00    -0.353 N 
HETATM   31  H   UNL     1     -11.886  -0.779 -32.616  1.00  0.00     0.166 HD
ENDBRANCH  23  25
ENDBRANCH  22  23
ENDBRANCH   1  22
TORSDOF 6
ENDMDL
MODEL 8
REMARK VINA RESULT:      -8.4      4.596      7.976
REMARK  6 active torsions:
REMARK  status: ('A' for Active; 'I' for Inactive)
REMARK    1  A    between atoms: C_3  and  N_4 
REMARK    2  A    between atoms: N_4  and  C_5 
REMARK    3  A    between atoms: C_5  and  C_6 
REMARK    4  A    between atoms: N_8  and  C_10 
REMARK    5  A    between atoms: C_10  and  C_11 
REMARK    6  A    between atoms: C_12  and  C_13 
ROOT
HETATM    1  C   UNL     1      -2.550   4.140 -32.158  1.00  0.00     0.031 C 
HETATM    2  C   UNL     1      -3.466   2.912 -32.074  1.00  0.00     0.241 C 
HETATM    3  N   UNL     1      -4.581   3.168 -33.071  1.00  0.00    -0.067 N 
HETATM    4  H   UNL     1      -4.554   2.413 -33.770  1.00  0.00     0.280 HD
HETATM    5  C   UNL     1      -4.257   4.447 -33.813  1.00  0.00     0.235 C 
HETATM    6  C   UNL     1      -2.768   4.615 -33.592  1.00  0.00     0.035 C 
ENDROOT
BRANCH   3   7
HETATM    7  C   UNL     1      -5.976   3.101 -32.485  1.00  0.00     0.277 C 
BRANCH   7   8
HETATM    8  C   UNL     1      -6.091   2.192 -31.319  1.00  0.00     0.016 A 
HETATM    9  C   UNL     1      -6.079   0.759 -31.322  1.00  0.00     0.102 A 
HETATM   10  N   UNL     1      -6.142   0.288 -30.072  1.00  0.00    -0.174 NA
HETATM   11  N   UNL     1      -6.319   1.358 -29.294  1.00  0.00    -0.288 N 
HETATM   12  H   UNL     1      -6.459   1.210 -28.296  1.00  0.00     0.188 HD
HETATM   13  C   UNL     1      -6.269   2.533 -29.989  1.00  0.00     0.120 A 
BRANCH   9  14
HETATM   14  C   UNL     1      -5.998  -0.171 -32.440  1.00  0.00     0.072 A 
HETATM   15  C   UNL     1      -4.791  -0.764 -32.820  1.00  0.00     0.132 A 
HETATM   16  F   UNL     1      -3.645  -0.439 -32.196  1.00  0.00    -0.205 F 
HETATM   17  C   UNL     1      -4.730  -1.679 -33.871  1.00  0.00     0.043 A 
HETATM   18  C   UNL     1      -5.890  -2.014 -34.568  1.00  0.00     0.006 A 
HETATM   19  C   UNL     1      -7.102  -1.425 -34.212  1.00  0.00     0.043 A 
HETATM   20  C   UNL     1      -7.148  -0.513 -33.157  1.00  0.00     0.132 A 
HETATM   21  F   UNL     1      -8.325   0.064 -32.873  1.00  0.00    -0.205 F 
ENDBRANCH   9  14
ENDBRANCH   7   8
ENDBRANCH   3   7
BRANCH   1  22
HETATM   22  C   UNL     1      -2.907   5.186 -31.083  1.00  0.00     0.127 C 
BRANCH  22  23
HETATM   23  N   UNL     1      -1.989   6.323 -31.125  1.00  0.00    -0.376 N 
HETATM   24  H   UNL     1      -1.803   6.723 -32.041  1.00  0.00     0.161 HD
BRANCH  23  25
HETATM   25  C   UNL     1      -1.102   6.587 -30.100  1.00  0.00     0.100 A 
HETATM   26  C   UNL     1      -0.825   7.866 -29.595  1.00  0.00     0.048 A 
HETATM   27  C   UNL     1       0.112   8.035 -28.576  1.00  0.00     0.005 A 
HETATM   28  C   UNL     1       0.788   6.931 -28.076  1.00  0.00     0.017 A 
HETATM   29  C   UNL     1       0.507   5.684 -28.607  1.00  0.00     0.089 A 
HETATM   30  N   UNL     1      -0.411   5.556 -29.579  1.00  0.00    -0.353 N 
HETATM   31  H   UNL     1      -0.579   4.629 -29.958  1.00  0.00     0.166 HD
ENDBRANCH  23  25
ENDBRANCH  22  23
ENDBRANCH   1  22
TORSDOF 6
ENDMDL
MODEL 9
REMARK VINA RESULT:      -8.3      2.242      3.128
REMARK  6 active torsions:
REMARK  status: ('A' for Active; 'I' for Inactive)
REMARK    1  A    between atoms: C_3  and  N_4 
REMARK    2  A    between atoms: N_4  and  C_5 
REMARK    3  A    between atoms: C_5  and  C_6 
REMARK    4  A    between atoms: N_8  and  C_10 
REMARK    5  A    between atoms: C_10  and  C_11 
REMARK    6  A    between atoms: C_12  and  C_13 
ROOT
HETATM    1  C   UNL     1      -9.257   3.787 -33.368  1.00  0.00     0.031 C 
HETATM    2  C   UNL     1      -8.356   3.438 -32.176  1.00  0.00     0.241 C 
HETATM    3  N   UNL     1      -6.973   3.936 -32.553  1.00  0.00    -0.067 N 
HETATM    4  H   UNL     1      -6.692   4.637 -31.853  1.00  0.00     0.280 HD
HETATM    5  C   UNL     1      -7.087   4.672 -33.870  1.00  0.00     0.235 C 
HETATM    6  C   UNL     1      -8.561   5.010 -33.960  1.00  0.00     0.035 C 
ENDROOT
BRANCH   3   7
HETATM    7  C   UNL     1      -5.889   2.881 -32.499  1.00  0.00     0.277 C 
BRANCH   7   8
HETATM    8  C   UNL     1      -6.007   1.962 -31.339  1.00  0.00     0.016 A 
HETATM    9  C   UNL     1      -6.027   0.530 -31.356  1.00  0.00     0.102 A 
HETATM   10  N   UNL     1      -6.081   0.049 -30.109  1.00  0.00    -0.174 NA
HETATM   11  N   UNL     1      -6.221   1.115 -29.318  1.00  0.00    -0.288 N 
HETATM   12  H   UNL     1      -6.348   0.960 -28.320  1.00  0.00     0.188 HD
HETATM   13  C   UNL     1      -6.155   2.295 -30.003  1.00  0.00     0.120 A 
BRANCH   9  14
HETATM   14  C   UNL     1      -5.985  -0.391 -32.484  1.00  0.00     0.072 A 
HETATM   15  C   UNL     1      -4.794  -0.991 -32.902  1.00  0.00     0.132 A 
HETATM   16  F   UNL     1      -3.628  -0.681 -32.307  1.00  0.00    -0.205 F 
HETATM   17  C   UNL     1      -4.770  -1.897 -33.962  1.00  0.00     0.043 A 
HETATM   18  C   UNL     1      -5.951  -2.216 -34.630  1.00  0.00     0.006 A 
HETATM   19  C   UNL     1      -7.148  -1.619 -34.235  1.00  0.00     0.043 A 
HETATM   20  C   UNL     1      -7.158  -0.717 -33.171  1.00  0.00     0.132 A 
HETATM   21  F   UNL     1      -8.321  -0.132 -32.850  1.00  0.00    -0.205 F 
ENDBRANCH   9  14
ENDBRANCH   7   8
ENDBRANCH   3   7
BRANCH   1  22
HETATM   22  C   UNL     1      -9.389   2.599 -34.343  1.00  0.00     0.127 C 
BRANCH  22  23
HETATM   23  N   UNL     1     -10.682   2.616 -35.026  1.00  0.00    -0.376 N 
HETATM   24  H   UNL     1     -10.893   3.442 -35.578  1.00  0.00     0.161 HD
BRANCH  23  25
HETATM   25  C   UNL     1     -11.726   1.799 -34.639  1.00  0.00     0.100 A 
HETATM   26  C   UNL     1     -13.075   2.033 -34.942  1.00  0.00     0.048 A 
HETATM   27  C   UNL     1     -14.063   1.165 -34.480  1.00  0.00     0.005 A 
HETATM   28  C   UNL     1     -13.707   0.075 -33.697  1.00  0.00     0.017 A 
HETATM   29  C   UNL     1     -12.369  -0.119 -33.400  1.00  0.00     0.089 A 
HETATM   30  N   UNL     1     -11.443   0.730 -33.873  1.00  0.00    -0.353 N 
HETATM   31  H   UNL     1     -10.473   0.566 -33.620  1.00  0.00     0.166 HD
ENDBRANCH  23  25
ENDBRANCH  22  23
ENDBRANCH   1  22
TORSDOF 6
ENDMDL
MODEL 10
REMARK VINA RESULT:      -8.3      3.933      7.214
REMARK  6 active torsions:
REMARK  status: ('A' for Active; 'I' for Inactive)
REMARK    1  A    between atoms: C_3  and  N_4 
REMARK    2  A    between atoms: N_4  and  C_5 
REMARK    3  A    between atoms: C_5  and  C_6 
REMARK    4  A    between atoms: N_8  and  C_10 
REMARK    5  A    between atoms: C_10  and  C_11 
REMARK    6  A    between atoms: C_12  and  C_13 
ROOT
HETATM    1  C   UNL     1      -4.649   4.636 -33.342  1.00  0.00     0.031 C 
HETATM    2  C   UNL     1      -5.688   3.763 -34.057  1.00  0.00     0.241 C 
HETATM    3  N   UNL     1      -7.036   4.230 -33.539  1.00  0.00    -0.067 N 
HETATM    4  H   UNL     1      -7.579   4.570 -34.345  1.00  0.00     0.280 HD
HETATM    5  C   UNL     1      -6.801   5.430 -32.648  1.00  0.00     0.235 C 
HETATM    6  C   UNL     1      -5.430   5.919 -33.067  1.00  0.00     0.035 C 
ENDROOT
BRANCH   3   7
HETATM    7  C   UNL     1      -7.889   3.136 -32.932  1.00  0.00     0.277 C 
BRANCH   7   8
HETATM    8  C   UNL     1      -7.330   2.565 -31.683  1.00  0.00     0.016 A 
HETATM    9  C   UNL     1      -6.641   1.319 -31.522  1.00  0.00     0.102 A 
HETATM   10  N   UNL     1      -6.228   1.173 -30.258  1.00  0.00    -0.174 NA
HETATM   11  N   UNL     1      -6.735   2.213 -29.592  1.00  0.00    -0.288 N 
HETATM   12  H   UNL     1      -6.590   2.256 -28.585  1.00  0.00     0.188 HD
HETATM   13  C   UNL     1      -7.384   3.097 -30.405  1.00  0.00     0.120 A 
BRANCH   9  14
HETATM   14  C   UNL     1      -6.349   0.281 -32.501  1.00  0.00     0.072 A 
HETATM   15  C   UNL     1      -5.044   0.005 -32.917  1.00  0.00     0.132 A 
HETATM   16  F   UNL     1      -4.014   0.744 -32.467  1.00  0.00    -0.205 F 
HETATM   17  C   UNL     1      -4.772  -1.013 -33.831  1.00  0.00     0.043 A 
HETATM   18  C   UNL     1      -5.816  -1.777 -34.350  1.00  0.00     0.006 A 
HETATM   19  C   UNL     1      -7.127  -1.510 -33.956  1.00  0.00     0.043 A 
HETATM   20  C   UNL     1      -7.383  -0.490 -33.040  1.00  0.00     0.132 A 
HETATM   21  F   UNL     1      -8.661  -0.237 -32.719  1.00  0.00    -0.205 F 
ENDBRANCH   9  14
ENDBRANCH   7   8
ENDBRANCH   3   7
BRANCH   1  22
HETATM   22  C   UNL     1      -4.102   3.945 -32.077  1.00  0.00     0.127 C 
BRANCH  22  23
HETATM   23  N   UNL     1      -2.649   3.790 -32.143  1.00  0.00    -0.376 N 
HETATM   24  H   UNL     1      -2.294   2.837 -32.139  1.00  0.00     0.161 HD
BRANCH  23  25
HETATM   25  C   UNL     1      -1.787   4.815 -31.810  1.00  0.00     0.100 A 
HETATM   26  C   UNL     1      -1.348   5.808 -32.697  1.00  0.00     0.048 A 
HETATM   27  C   UNL     1      -0.450   6.787 -32.273  1.00  0.00     0.005 A 
HETATM   28  C   UNL     1       0.026   6.763 -30.970  1.00  0.00     0.017 A 
HETATM   29  C   UNL     1      -0.411   5.759 -30.122  1.00  0.00     0.089 A 
HETATM   30  N   UNL     1      -1.286   4.840 -30.561  1.00  0.00    -0.353 N 
HETATM   31  H   UNL     1      -1.571   4.108 -29.917  1.00  0.00     0.166 HD
ENDBRANCH  23  25
ENDBRANCH  22  23
ENDBRANCH   1  22
TORSDOF 6
ENDMDL
