MODEL 1
REMARK VINA RESULT:      -8.3      0.000      0.000
REMARK  6 active torsions:
REMARK  status: ('A' for Active; 'I' for Inactive)
REMARK    1  A    between atoms: C_4  and  C_5 
REMARK    2  A    between atoms: C_5  and  N_6 
REMARK    3  A    between atoms: C_5  and  C_10 
REMARK    4  A    between atoms: C_10  and  N_11 
REMARK       I    between atoms: N_11  and  C_12 
REMARK       I    between atoms: C_12  and  N_13 
REMARK    5  A    between atoms: N_13  and  C_14 
REMARK    6  A    between atoms: C_17  and  N_18 
ROOT
HETATM    1  N   UNL     1      -6.078   3.532 -34.109  1.00  0.00    -0.340 N 
HETATM    2  C   UNL     1      -7.360   3.213 -33.811  1.00  0.00     0.320 C 
HETATM    3  N   UNL     1      -7.752   1.923 -33.942  1.00  0.00    -0.309 N 
HETATM    4  O   UNL     1      -8.179   4.085 -33.518  1.00  0.00    -0.247 OA
HETATM    5  H   UNL     1      -5.566   2.850 -34.657  1.00  0.00     0.164 HD
HETATM    6  H   UNL     1      -8.762   1.826 -33.949  1.00  0.00     0.170 HD
ENDROOT
BRANCH   1   7
HETATM    7  C   UNL     1      -5.470   4.848 -33.900  1.00  0.00     0.164 C 
BRANCH   7   8
HETATM    8  C   UNL     1      -4.560   5.000 -32.636  1.00  0.00     0.261 C 
BRANCH   8   9
HETATM    9  C   UNL     1      -3.153   5.339 -33.018  1.00  0.00     0.085 A 
HETATM   10  O   UNL     1      -2.388   5.960 -32.074  1.00  0.00    -0.318 OA
HETATM   11  C   UNL     1      -1.172   6.204 -32.638  1.00  0.00     0.049 A 
HETATM   12  C   UNL     1      -0.174   6.902 -31.800  1.00  0.00     0.076 C 
HETATM   13  C   UNL     1      -1.144   5.722 -33.929  1.00  0.00     0.035 A 
HETATM   14  C   UNL     1      -2.421   5.163 -34.175  1.00  0.00     0.037 A 
ENDBRANCH   8   9
BRANCH   8  15
HETATM   15  N   UNL     1      -4.660   3.794 -31.698  1.00  0.00    -0.067 N 
HETATM   16  H   UNL     1      -5.396   3.198 -32.128  1.00  0.00     0.280 HD
HETATM   17  C   UNL     1      -3.453   2.908 -31.618  1.00  0.00     0.270 C 
HETATM   18  C   UNL     1      -5.165   4.154 -30.337  1.00  0.00     0.270 C 
ENDBRANCH   8  15
ENDBRANCH   7   8
ENDBRANCH   1   7
BRANCH   3  19
HETATM   19  C   UNL     1      -7.038   0.708 -33.919  1.00  0.00     0.036 A 
HETATM   20  C   UNL     1      -6.339   0.221 -32.816  1.00  0.00     0.032 A 
HETATM   21  C   UNL     1      -5.702  -1.030 -32.865  1.00  0.00     0.032 A 
HETATM   22  C   UNL     1      -5.771  -1.825 -34.014  1.00  0.00     0.040 A 
HETATM   23  C   UNL     1      -6.475  -1.333 -35.121  1.00  0.00     0.032 A 
HETATM   24  C   UNL     1      -7.110  -0.086 -35.066  1.00  0.00     0.032 A 
BRANCH  22  25
HETATM   25  N   UNL     1      -5.141  -3.108 -34.085  1.00  0.00    -0.309 N 
HETATM   26  C   UNL     1      -5.611  -4.311 -34.616  1.00  0.00     0.106 A 
HETATM   27  C   UNL     1      -6.850  -4.497 -35.414  1.00  0.00     0.091 C 
HETATM   28  N   UNL     1      -4.748  -5.291 -34.417  1.00  0.00    -0.246 NA
HETATM   29  C   UNL     1      -3.669  -4.731 -33.808  1.00  0.00     0.136 A 
HETATM   30  C   UNL     1      -3.871  -3.389 -33.615  1.00  0.00     0.118 A 
ENDBRANCH  22  25
ENDBRANCH   3  19
TORSDOF 6
ENDMDL
MODEL 2
REMARK VINA RESULT:      -8.3      1.371      2.852
REMARK  6 active torsions:
REMARK  status: ('A' for Active; 'I' for Inactive)
REMARK    1  A    between atoms: C_4  and  C_5 
REMARK    2  A    between atoms: C_5  and  N_6 
REMARK    3  A    between atoms: C_5  and  C_10 
REMARK    4  A    between atoms: C_10  and  N_11 
REMARK       I    between atoms: N_11  and  C_12 
REMARK       I    between atoms: C_12  and  N_13 
REMARK    5  A    between atoms: N_13  and  C_14 
REMARK    6  A    between atoms: C_17  and  N_18 
ROOT
HETATM    1  N   UNL     1      -6.157   3.494 -34.241  1.00  0.00    -0.340 N 
HETATM    2  C   UNL     1      -7.415   3.258 -33.798  1.00  0.00     0.320 C 
HETATM    3  N   UNL     1      -7.925   2.011 -33.939  1.00  0.00    -0.309 N 
HETATM    4  O   UNL     1      -8.116   4.173 -33.363  1.00  0.00    -0.247 OA
HETATM    5  H   UNL     1      -5.775   2.808 -34.882  1.00  0.00     0.164 HD
HETATM    6  H   UNL     1      -8.933   1.993 -33.822  1.00  0.00     0.170 HD
ENDROOT
BRANCH   1   7
HETATM    7  C   UNL     1      -5.420   4.747 -34.050  1.00  0.00     0.164 C 
BRANCH   7   8
HETATM    8  C   UNL     1      -4.160   4.676 -33.126  1.00  0.00     0.261 C 
BRANCH   8   9
HETATM    9  C   UNL     1      -4.150   3.417 -32.318  1.00  0.00     0.085 A 
HETATM   10  O   UNL     1      -5.147   3.262 -31.400  1.00  0.00    -0.318 OA
HETATM   11  C   UNL     1      -4.927   2.078 -30.762  1.00  0.00     0.049 A 
HETATM   12  C   UNL     1      -5.879   1.707 -29.693  1.00  0.00     0.076 C 
HETATM   13  C   UNL     1      -3.810   1.462 -31.282  1.00  0.00     0.035 A 
HETATM   14  C   UNL     1      -3.308   2.323 -32.286  1.00  0.00     0.037 A 
ENDBRANCH   8   9
BRANCH   8  15
HETATM   15  N   UNL     1      -3.986   5.941 -32.280  1.00  0.00    -0.067 N 
HETATM   16  H   UNL     1      -3.715   5.583 -31.341  1.00  0.00     0.280 HD
HETATM   17  C   UNL     1      -2.867   6.858 -32.673  1.00  0.00     0.270 C 
HETATM   18  C   UNL     1      -5.265   6.691 -32.081  1.00  0.00     0.270 C 
ENDBRANCH   8  15
ENDBRANCH   7   8
ENDBRANCH   1   7
BRANCH   3  19
HETATM   19  C   UNL     1      -7.317   0.746 -34.063  1.00  0.00     0.036 A 
HETATM   20  C   UNL     1      -7.080   0.098 -35.274  1.00  0.00     0.032 A 
HETATM   21  C   UNL     1      -6.414  -1.139 -35.307  1.00  0.00     0.032 A 
HETATM   22  C   UNL     1      -5.957  -1.739 -34.129  1.00  0.00     0.040 A 
HETATM   23  C   UNL     1      -6.197  -1.085 -32.913  1.00  0.00     0.032 A 
HETATM   24  C   UNL     1      -6.858   0.150 -32.886  1.00  0.00     0.032 A 
BRANCH  22  25
HETATM   25  N   UNL     1      -5.267  -2.992 -34.137  1.00  0.00    -0.309 N 
HETATM   26  C   UNL     1      -5.664  -4.234 -34.636  1.00  0.00     0.106 A 
HETATM   27  C   UNL     1      -6.871  -4.505 -35.459  1.00  0.00     0.091 C 
HETATM   28  N   UNL     1      -4.763  -5.165 -34.377  1.00  0.00    -0.246 NA
HETATM   29  C   UNL     1      -3.729  -4.533 -33.760  1.00  0.00     0.136 A 
HETATM   30  C   UNL     1      -3.999  -3.197 -33.622  1.00  0.00     0.118 A 
ENDBRANCH  22  25
ENDBRANCH   3  19
TORSDOF 6
ENDMDL
MODEL 3
REMARK VINA RESULT:      -8.2      3.127      8.129
REMARK  6 active torsions:
REMARK  status: ('A' for Active; 'I' for Inactive)
REMARK    1  A    between atoms: C_4  and  C_5 
REMARK    2  A    between atoms: C_5  and  N_6 
REMARK    3  A    between atoms: C_5  and  C_10 
REMARK    4  A    between atoms: C_10  and  N_11 
REMARK       I    between atoms: N_11  and  C_12 
REMARK       I    between atoms: C_12  and  N_13 
REMARK    5  A    between atoms: N_13  and  C_14 
REMARK    6  A    between atoms: C_17  and  N_18 
ROOT
HETATM    1  N   UNL     1      -7.337   1.369 -31.575  1.00  0.00    -0.340 N 
HETATM    2  C   UNL     1      -6.398   0.781 -30.797  1.00  0.00     0.320 C 
HETATM    3  N   UNL     1      -5.121   1.223 -30.881  1.00  0.00    -0.309 N 
HETATM    4  O   UNL     1      -6.675  -0.196 -30.099  1.00  0.00    -0.247 OA
HETATM    5  H   UNL     1      -6.990   1.917 -32.355  1.00  0.00     0.164 HD
HETATM    6  H   UNL     1      -4.460   0.571 -30.470  1.00  0.00     0.170 HD
ENDROOT
BRANCH   1   7
HETATM    7  C   UNL     1      -8.775   1.094 -31.510  1.00  0.00     0.164 C 
BRANCH   7   8
HETATM    8  C   UNL     1      -9.437   0.548 -32.818  1.00  0.00     0.261 C 
BRANCH   8   9
HETATM    9  C   UNL     1      -8.403   0.135 -33.818  1.00  0.00     0.085 A 
HETATM   10  O   UNL     1      -7.759  -1.046 -33.590  1.00  0.00    -0.318 OA
HETATM   11  C   UNL     1      -6.847  -1.207 -34.591  1.00  0.00     0.049 A 
HETATM   12  C   UNL     1      -6.004  -2.420 -34.538  1.00  0.00     0.076 C 
HETATM   13  C   UNL     1      -6.920  -0.150 -35.471  1.00  0.00     0.035 A 
HETATM   14  C   UNL     1      -7.924   0.717 -34.974  1.00  0.00     0.037 A 
ENDBRANCH   8   9
BRANCH   8  15
HETATM   15  N   UNL     1     -10.483   1.510 -33.389  1.00  0.00    -0.067 N 
HETATM   16  H   UNL     1     -10.106   1.770 -34.323  1.00  0.00     0.280 HD
HETATM   17  C   UNL     1     -11.837   0.933 -33.672  1.00  0.00     0.270 C 
HETATM   18  C   UNL     1     -10.582   2.787 -32.617  1.00  0.00     0.270 C 
ENDBRANCH   8  15
ENDBRANCH   7   8
ENDBRANCH   1   7
BRANCH   3  19
HETATM   19  C   UNL     1      -4.568   2.455 -31.285  1.00  0.00     0.036 A 
HETATM   20  C   UNL     1      -4.954   3.697 -30.785  1.00  0.00     0.032 A 
HETATM   21  C   UNL     1      -4.307   4.872 -31.205  1.00  0.00     0.032 A 
HETATM   22  C   UNL     1      -3.248   4.820 -32.119  1.00  0.00     0.040 A 
HETATM   23  C   UNL     1      -2.863   3.569 -32.620  1.00  0.00     0.032 A 
HETATM   24  C   UNL     1      -3.509   2.401 -32.196  1.00  0.00     0.032 A 
BRANCH  22  25
HETATM   25  N   UNL     1      -2.566   6.000 -32.554  1.00  0.00    -0.309 N 
HETATM   26  C   UNL     1      -1.838   6.238 -33.722  1.00  0.00     0.106 A 
HETATM   27  C   UNL     1      -1.752   5.341 -34.902  1.00  0.00     0.091 C 
HETATM   28  N   UNL     1      -1.296   7.443 -33.711  1.00  0.00    -0.246 NA
HETATM   29  C   UNL     1      -1.714   8.038 -32.562  1.00  0.00     0.136 A 
HETATM   30  C   UNL     1      -2.514   7.187 -31.845  1.00  0.00     0.118 A 
ENDBRANCH  22  25
ENDBRANCH   3  19
TORSDOF 6
ENDMDL
MODEL 4
REMARK VINA RESULT:      -8.1      3.080      3.628
REMARK  6 active torsions:
REMARK  status: ('A' for Active; 'I' for Inactive)
REMARK    1  A    between atoms: C_4  and  C_5 
REMARK    2  A    between atoms: C_5  and  N_6 
REMARK    3  A    between atoms: C_5  and  C_10 
REMARK    4  A    between atoms: C_10  and  N_11 
REMARK       I    between atoms: N_11  and  C_12 
REMARK       I    between atoms: C_12  and  N_13 
REMARK    5  A    between atoms: N_13  and  C_14 
REMARK    6  A    between atoms: C_17  and  N_18 
ROOT
HETATM    1  N   UNL     1      -8.120   3.517 -33.520  1.00  0.00    -0.340 N 
HETATM    2  C   UNL     1      -9.260   2.946 -33.977  1.00  0.00     0.320 C 
HETATM    3  N   UNL     1      -9.191   1.699 -34.502  1.00  0.00    -0.309 N 
HETATM    4  O   UNL     1     -10.317   3.576 -34.005  1.00  0.00    -0.247 OA
HETATM    5  H   UNL     1      -7.254   3.094 -33.833  1.00  0.00     0.164 HD
HETATM    6  H   UNL     1     -10.018   1.463 -35.041  1.00  0.00     0.170 HD
ENDROOT
BRANCH   1   7
HETATM    7  C   UNL     1      -8.048   4.799 -32.813  1.00  0.00     0.164 C 
BRANCH   7   8
HETATM    8  C   UNL     1      -7.382   4.775 -31.398  1.00  0.00     0.261 C 
BRANCH   8   9
HETATM    9  C   UNL     1      -6.757   3.445 -31.115  1.00  0.00     0.085 A 
HETATM   10  O   UNL     1      -5.824   2.998 -32.004  1.00  0.00    -0.318 OA
HETATM   11  C   UNL     1      -5.417   1.769 -31.577  1.00  0.00     0.049 A 
HETATM   12  C   UNL     1      -4.414   1.071 -32.409  1.00  0.00     0.076 C 
HETATM   13  C   UNL     1      -6.065   1.437 -30.408  1.00  0.00     0.035 A 
HETATM   14  C   UNL     1      -6.930   2.517 -30.108  1.00  0.00     0.037 A 
ENDBRANCH   8   9
BRANCH   8  15
HETATM   15  N   UNL     1      -8.336   5.244 -30.296  1.00  0.00    -0.067 N 
HETATM   16  H   UNL     1      -8.054   4.689 -29.463  1.00  0.00     0.280 HD
HETATM   17  C   UNL     1      -8.204   6.673 -29.863  1.00  0.00     0.270 C 
HETATM   18  C   UNL     1      -9.762   4.883 -30.568  1.00  0.00     0.270 C 
ENDBRANCH   8  15
ENDBRANCH   7   8
ENDBRANCH   1   7
BRANCH   3  19
HETATM   19  C   UNL     1      -8.278   0.642 -34.319  1.00  0.00     0.036 A 
HETATM   20  C   UNL     1      -8.222  -0.169 -33.187  1.00  0.00     0.032 A 
HETATM   21  C   UNL     1      -7.314  -1.239 -33.115  1.00  0.00     0.032 A 
HETATM   22  C   UNL     1      -6.460  -1.528 -34.184  1.00  0.00     0.040 A 
HETATM   23  C   UNL     1      -6.518  -0.711 -35.321  1.00  0.00     0.032 A 
HETATM   24  C   UNL     1      -7.427   0.353 -35.390  1.00  0.00     0.032 A 
BRANCH  22  25
HETATM   25  N   UNL     1      -5.534  -2.618 -34.140  1.00  0.00    -0.309 N 
HETATM   26  C   UNL     1      -5.665  -3.927 -34.611  1.00  0.00     0.106 A 
HETATM   27  C   UNL     1      -6.770  -4.453 -35.451  1.00  0.00     0.091 C 
HETATM   28  N   UNL     1      -4.604  -4.653 -34.306  1.00  0.00    -0.246 NA
HETATM   29  C   UNL     1      -3.732  -3.813 -33.686  1.00  0.00     0.136 A 
HETATM   30  C   UNL     1      -4.265  -2.553 -33.593  1.00  0.00     0.118 A 
ENDBRANCH  22  25
ENDBRANCH   3  19
TORSDOF 6
ENDMDL
MODEL 5
REMARK VINA RESULT:      -8.0     15.313     17.210
REMARK  6 active torsions:
REMARK  status: ('A' for Active; 'I' for Inactive)
REMARK    1  A    between atoms: C_4  and  C_5 
REMARK    2  A    between atoms: C_5  and  N_6 
REMARK    3  A    between atoms: C_5  and  C_10 
REMARK    4  A    between atoms: C_10  and  N_11 
REMARK       I    between atoms: N_11  and  C_12 
REMARK       I    between atoms: C_12  and  N_13 
REMARK    5  A    between atoms: N_13  and  C_14 
REMARK    6  A    between atoms: C_17  and  N_18 
ROOT
HETATM    1  N   UNL     1      -3.086 -13.657 -38.039  1.00  0.00    -0.340 N 
HETATM    2  C   UNL     1      -3.085 -12.371 -38.463  1.00  0.00     0.320 C 
HETATM    3  N   UNL     1      -4.086 -11.959 -39.278  1.00  0.00    -0.309 N 
HETATM    4  O   UNL     1      -2.151 -11.615 -38.194  1.00  0.00    -0.247 OA
HETATM    5  H   UNL     1      -3.676 -14.296 -38.560  1.00  0.00     0.164 HD
HETATM    6  H   UNL     1      -3.869 -11.082 -39.741  1.00  0.00     0.170 HD
ENDROOT
BRANCH   1   7
HETATM    7  C   UNL     1      -2.152 -14.220 -37.061  1.00  0.00     0.164 C 
BRANCH   7   8
HETATM    8  C   UNL     1      -2.709 -15.359 -36.144  1.00  0.00     0.261 C 
BRANCH   8   9
HETATM    9  C   UNL     1      -4.203 -15.316 -36.074  1.00  0.00     0.085 A 
HETATM   10  O   UNL     1      -4.761 -14.268 -35.402  1.00  0.00    -0.318 OA
HETATM   11  C   UNL     1      -6.113 -14.445 -35.432  1.00  0.00     0.049 A 
HETATM   12  C   UNL     1      -6.935 -13.432 -34.736  1.00  0.00     0.076 C 
HETATM   13  C   UNL     1      -6.424 -15.586 -36.138  1.00  0.00     0.035 A 
HETATM   14  C   UNL     1      -5.194 -16.149 -36.554  1.00  0.00     0.037 A 
ENDBRANCH   8   9
BRANCH   8  15
HETATM   15  N   UNL     1      -2.037 -15.380 -34.768  1.00  0.00    -0.067 N 
HETATM   16  H   UNL     1      -2.344 -14.492 -34.322  1.00  0.00     0.280 HD
HETATM   17  C   UNL     1      -2.486 -16.455 -33.824  1.00  0.00     0.270 C 
HETATM   18  C   UNL     1      -0.545 -15.308 -34.846  1.00  0.00     0.270 C 
ENDBRANCH   8  15
ENDBRANCH   7   8
ENDBRANCH   1   7
BRANCH   3  19
HETATM   19  C   UNL     1      -5.399 -12.430 -39.481  1.00  0.00     0.036 A 
HETATM   20  C   UNL     1      -6.377 -12.499 -38.490  1.00  0.00     0.032 A 
HETATM   21  C   UNL     1      -7.678 -12.930 -38.797  1.00  0.00     0.032 A 
HETATM   22  C   UNL     1      -8.029 -13.279 -40.106  1.00  0.00     0.040 A 
HETATM   23  C   UNL     1      -7.043 -13.208 -41.099  1.00  0.00     0.032 A 
HETATM   24  C   UNL     1      -5.748 -12.776 -40.789  1.00  0.00     0.032 A 
BRANCH  22  25
HETATM   25  N   UNL     1      -9.350 -13.709 -40.446  1.00  0.00    -0.309 N 
HETATM   26  C   UNL     1     -10.549 -12.993 -40.476  1.00  0.00     0.106 A 
HETATM   27  C   UNL     1     -10.699 -11.523 -40.324  1.00  0.00     0.091 C 
HETATM   28  N   UNL     1     -11.569 -13.779 -40.772  1.00  0.00    -0.246 NA
HETATM   29  C   UNL     1     -11.045 -15.012 -41.004  1.00  0.00     0.136 A 
HETATM   30  C   UNL     1      -9.685 -14.994 -40.836  1.00  0.00     0.118 A 
ENDBRANCH  22  25
ENDBRANCH   3  19
TORSDOF 6
ENDMDL
MODEL 6
REMARK VINA RESULT:      -8.0      2.627      5.033
REMARK  6 active torsions:
REMARK  status: ('A' for Active; 'I' for Inactive)
REMARK    1  A    between atoms: C_4  and  C_5 
REMARK    2  A    between atoms: C_5  and  N_6 
REMARK    3  A    between atoms: C_5  and  C_10 
REMARK    4  A    between atoms: C_10  and  N_11 
REMARK       I    between atoms: N_11  and  C_12 
REMARK       I    between atoms: C_12  and  N_13 
REMARK    5  A    between atoms: N_13  and  C_14 
REMARK    6  A    between atoms: C_17  and  N_18 
ROOT
HETATM    1  N   UNL     1      -6.218   3.029 -31.754  1.00  0.00    -0.340 N 
HETATM    2  C   UNL     1      -4.931   2.960 -31.337  1.00  0.00     0.320 C 
HETATM    3  N   UNL     1      -4.308   1.758 -31.361  1.00  0.00    -0.309 N 
HETATM    4  O   UNL     1      -4.367   3.945 -30.857  1.00  0.00    -0.247 OA
HETATM    5  H   UNL     1      -6.715   2.147 -31.808  1.00  0.00     0.164 HD
HETATM    6  H   UNL     1      -3.460   1.753 -30.803  1.00  0.00     0.170 HD
ENDROOT
BRANCH   1   7
HETATM    7  C   UNL     1      -6.986   4.267 -31.907  1.00  0.00     0.164 C 
BRANCH   7   8
HETATM    8  C   UNL     1      -8.419   4.124 -32.518  1.00  0.00     0.261 C 
BRANCH   8   9
HETATM    9  C   UNL     1      -8.642   2.747 -33.060  1.00  0.00     0.085 A 
HETATM   10  O   UNL     1      -7.764   2.304 -34.005  1.00  0.00    -0.318 OA
HETATM   11  C   UNL     1      -8.169   1.058 -34.379  1.00  0.00     0.049 A 
HETATM   12  C   UNL     1      -7.373   0.382 -35.426  1.00  0.00     0.076 C 
HETATM   13  C   UNL     1      -9.287   0.690 -33.664  1.00  0.00     0.035 A 
HETATM   14  C   UNL     1      -9.593   1.778 -32.811  1.00  0.00     0.037 A 
ENDBRANCH   8   9
BRANCH   8  15
HETATM   15  N   UNL     1      -8.737   5.232 -33.526  1.00  0.00    -0.067 N 
HETATM   16  H   UNL     1      -7.875   5.304 -34.104  1.00  0.00     0.280 HD
HETATM   17  C   UNL     1      -9.831   4.945 -34.510  1.00  0.00     0.270 C 
HETATM   18  C   UNL     1      -8.915   6.571 -32.885  1.00  0.00     0.270 C 
ENDBRANCH   8  15
ENDBRANCH   7   8
ENDBRANCH   1   7
BRANCH   3  19
HETATM   19  C   UNL     1      -4.530   0.590 -32.117  1.00  0.00     0.036 A 
HETATM   20  C   UNL     1      -3.616   0.044 -33.017  1.00  0.00     0.032 A 
HETATM   21  C   UNL     1      -3.900  -1.159 -33.686  1.00  0.00     0.032 A 
HETATM   22  C   UNL     1      -5.095  -1.846 -33.450  1.00  0.00     0.040 A 
HETATM   23  C   UNL     1      -6.012  -1.294 -32.545  1.00  0.00     0.032 A 
HETATM   24  C   UNL     1      -5.723  -0.097 -31.878  1.00  0.00     0.032 A 
BRANCH  22  25
HETATM   25  N   UNL     1      -5.403  -3.077 -34.110  1.00  0.00    -0.309 N 
HETATM   26  C   UNL     1      -4.682  -4.272 -34.164  1.00  0.00     0.106 A 
HETATM   27  C   UNL     1      -3.470  -4.605 -33.373  1.00  0.00     0.091 C 
HETATM   28  N   UNL     1      -5.277  -5.155 -34.947  1.00  0.00    -0.246 NA
HETATM   29  C   UNL     1      -6.431  -4.574 -35.368  1.00  0.00     0.136 A 
HETATM   30  C   UNL     1      -6.548  -3.310 -34.852  1.00  0.00     0.118 A 
ENDBRANCH  22  25
ENDBRANCH   3  19
TORSDOF 6
ENDMDL
MODEL 7
REMARK VINA RESULT:      -8.0      3.082      5.266
REMARK  6 active torsions:
REMARK  status: ('A' for Active; 'I' for Inactive)
REMARK    1  A    between atoms: C_4  and  C_5 
REMARK    2  A    between atoms: C_5  and  N_6 
REMARK    3  A    between atoms: C_5  and  C_10 
REMARK    4  A    between atoms: C_10  and  N_11 
REMARK       I    between atoms: N_11  and  C_12 
REMARK       I    between atoms: C_12  and  N_13 
REMARK    5  A    between atoms: N_13  and  C_14 
REMARK    6  A    between atoms: C_17  and  N_18 
ROOT
HETATM    1  N   UNL     1      -6.895   2.779 -30.229  1.00  0.00    -0.340 N 
HETATM    2  C   UNL     1      -5.681   3.377 -30.254  1.00  0.00     0.320 C 
HETATM    3  N   UNL     1      -4.593   2.619 -30.533  1.00  0.00    -0.309 N 
HETATM    4  O   UNL     1      -5.551   4.561 -29.940  1.00  0.00    -0.247 OA
HETATM    5  H   UNL     1      -6.892   1.767 -30.158  1.00  0.00     0.164 HD
HETATM    6  H   UNL     1      -3.727   3.082 -30.280  1.00  0.00     0.170 HD
ENDROOT
BRANCH   1   7
HETATM    7  C   UNL     1      -8.173   3.478 -30.070  1.00  0.00     0.164 C 
BRANCH   7   8
HETATM    8  C   UNL     1      -9.393   2.881 -30.846  1.00  0.00     0.261 C 
BRANCH   8   9
HETATM    9  C   UNL     1      -8.958   1.817 -31.804  1.00  0.00     0.085 A 
HETATM   10  O   UNL     1      -8.023   2.167 -32.734  1.00  0.00    -0.318 OA
HETATM   11  C   UNL     1      -7.801   1.071 -33.514  1.00  0.00     0.049 A 
HETATM   12  C   UNL     1      -6.832   1.223 -34.620  1.00  0.00     0.076 C 
HETATM   13  C   UNL     1      -8.571   0.016 -33.076  1.00  0.00     0.035 A 
HETATM   14  C   UNL     1      -9.317   0.495 -31.972  1.00  0.00     0.037 A 
ENDBRANCH   8   9
BRANCH   8  15
HETATM   15  N   UNL     1     -10.258   3.965 -31.496  1.00  0.00    -0.067 N 
HETATM   16  H   UNL     1     -10.499   3.573 -32.428  1.00  0.00     0.280 HD
HETATM   17  C   UNL     1     -11.581   4.242 -30.846  1.00  0.00     0.270 C 
HETATM   18  C   UNL     1      -9.505   5.229 -31.764  1.00  0.00     0.270 C 
ENDBRANCH   8  15
ENDBRANCH   7   8
ENDBRANCH   1   7
BRANCH   3  19
HETATM   19  C   UNL     1      -4.438   1.403 -31.228  1.00  0.00     0.036 A 
HETATM   20  C   UNL     1      -3.415   1.135 -32.136  1.00  0.00     0.032 A 
HETATM   21  C   UNL     1      -3.305  -0.128 -32.740  1.00  0.00     0.032 A 
HETATM   22  C   UNL     1      -4.206  -1.153 -32.430  1.00  0.00     0.040 A 
HETATM   23  C   UNL     1      -5.233  -0.881 -31.516  1.00  0.00     0.032 A 
HETATM   24  C   UNL     1      -5.337   0.379 -30.914  1.00  0.00     0.032 A 
BRANCH  22  25
HETATM   25  N   UNL     1      -4.108  -2.451 -33.023  1.00  0.00    -0.309 N 
HETATM   26  C   UNL     1      -4.818  -3.008 -34.089  1.00  0.00     0.106 A 
HETATM   27  C   UNL     1      -5.749  -2.289 -34.996  1.00  0.00     0.091 C 
HETATM   28  N   UNL     1      -4.481  -4.271 -34.282  1.00  0.00    -0.246 NA
HETATM   29  C   UNL     1      -3.496  -4.543 -33.384  1.00  0.00     0.136 A 
HETATM   30  C   UNL     1      -3.230  -3.439 -32.616  1.00  0.00     0.118 A 
ENDBRANCH  22  25
ENDBRANCH   3  19
TORSDOF 6
ENDMDL
MODEL 8
REMARK VINA RESULT:      -8.0      3.254      5.437
REMARK  6 active torsions:
REMARK  status: ('A' for Active; 'I' for Inactive)
REMARK    1  A    between atoms: C_4  and  C_5 
REMARK    2  A    between atoms: C_5  and  N_6 
REMARK    3  A    between atoms: C_5  and  C_10 
REMARK    4  A    between atoms: C_10  and  N_11 
REMARK       I    between atoms: N_11  and  C_12 
REMARK       I    between atoms: C_12  and  N_13 
REMARK    5  A    between atoms: N_13  and  C_14 
REMARK    6  A    between atoms: C_17  and  N_18 
ROOT
HETATM    1  N   UNL     1      -4.999   1.898 -31.608  1.00  0.00    -0.340 N 
HETATM    2  C   UNL     1      -5.253   0.611 -31.272  1.00  0.00     0.320 C 
HETATM    3  N   UNL     1      -6.523   0.154 -31.383  1.00  0.00    -0.309 N 
HETATM    4  O   UNL     1      -4.374  -0.103 -30.788  1.00  0.00    -0.247 OA
HETATM    5  H   UNL     1      -5.805   2.510 -31.668  1.00  0.00     0.164 HD
HETATM    6  H   UNL     1      -6.665  -0.715 -30.877  1.00  0.00     0.170 HD
ENDROOT
BRANCH   1   7
HETATM    7  C   UNL     1      -3.665   2.504 -31.665  1.00  0.00     0.164 C 
BRANCH   7   8
HETATM    8  C   UNL     1      -3.450   3.607 -32.753  1.00  0.00     0.261 C 
BRANCH   8   9
HETATM    9  C   UNL     1      -2.240   4.435 -32.453  1.00  0.00     0.085 A 
HETATM   10  O   UNL     1      -1.678   4.285 -31.219  1.00  0.00    -0.318 OA
HETATM   11  C   UNL     1      -0.624   5.147 -31.148  1.00  0.00     0.049 A 
HETATM   12  C   UNL     1       0.130   5.179 -29.877  1.00  0.00     0.076 C 
HETATM   13  C   UNL     1      -0.494   5.831 -32.337  1.00  0.00     0.035 A 
HETATM   14  C   UNL     1      -1.534   5.372 -33.180  1.00  0.00     0.037 A 
ENDBRANCH   8   9
BRANCH   8  15
HETATM   15  N   UNL     1      -4.711   4.440 -32.996  1.00  0.00    -0.067 N 
HETATM   16  H   UNL     1      -5.492   3.791 -32.772  1.00  0.00     0.280 HD
HETATM   17  C   UNL     1      -4.920   5.614 -32.088  1.00  0.00     0.270 C 
HETATM   18  C   UNL     1      -4.891   4.820 -34.432  1.00  0.00     0.270 C 
ENDBRANCH   8  15
ENDBRANCH   7   8
ENDBRANCH   1   7
BRANCH   3  19
HETATM   19  C   UNL     1      -7.615   0.569 -32.171  1.00  0.00     0.036 A 
HETATM   20  C   UNL     1      -7.880   0.111 -33.461  1.00  0.00     0.032 A 
HETATM   21  C   UNL     1      -9.026   0.537 -34.152  1.00  0.00     0.032 A 
HETATM   22  C   UNL     1      -9.939   1.414 -33.555  1.00  0.00     0.040 A 
HETATM   23  C   UNL     1      -9.670   1.872 -32.259  1.00  0.00     0.032 A 
HETATM   24  C   UNL     1      -8.527   1.442 -31.573  1.00  0.00     0.032 A 
BRANCH  22  25
HETATM   25  N   UNL     1     -11.119   1.853 -34.234  1.00  0.00    -0.309 N 
HETATM   26  C   UNL     1     -12.358   1.226 -34.380  1.00  0.00     0.106 A 
HETATM   27  C   UNL     1     -12.805  -0.011 -33.689  1.00  0.00     0.091 C 
HETATM   28  N   UNL     1     -13.166   1.935 -35.148  1.00  0.00    -0.246 NA
HETATM   29  C   UNL     1     -12.491   3.071 -35.466  1.00  0.00     0.136 A 
HETATM   30  C   UNL     1     -11.243   3.060 -34.899  1.00  0.00     0.118 A 
ENDBRANCH  22  25
ENDBRANCH   3  19
TORSDOF 6
ENDMDL
MODEL 9
REMARK VINA RESULT:      -7.8      1.896      3.117
REMARK  6 active torsions:
REMARK  status: ('A' for Active; 'I' for Inactive)
REMARK    1  A    between atoms: C_4  and  C_5 
REMARK    2  A    between atoms: C_5  and  N_6 
REMARK    3  A    between atoms: C_5  and  C_10 
REMARK    4  A    between atoms: C_10  and  N_11 
REMARK       I    between atoms: N_11  and  C_12 
REMARK       I    between atoms: C_12  and  N_13 
REMARK    5  A    between atoms: N_13  and  C_14 
REMARK    6  A    between atoms: C_17  and  N_18 
ROOT
HETATM    1  N   UNL     1      -4.838   2.976 -31.567  1.00  0.00    -0.340 N 
HETATM    2  C   UNL     1      -3.524   2.657 -31.488  1.00  0.00     0.320 C 
HETATM    3  N   UNL     1      -3.165   1.359 -31.629  1.00  0.00    -0.309 N 
HETATM    4  O   UNL     1      -2.681   3.509 -31.203  1.00  0.00    -0.247 OA
HETATM    5  H   UNL     1      -5.489   2.207 -31.462  1.00  0.00     0.164 HD
HETATM    6  H   UNL     1      -2.219   1.184 -31.305  1.00  0.00     0.170 HD
ENDROOT
BRANCH   1   7
HETATM    7  C   UNL     1      -5.373   4.341 -31.562  1.00  0.00     0.164 C 
BRANCH   7   8
HETATM    8  C   UNL     1      -5.635   4.988 -32.962  1.00  0.00     0.261 C 
BRANCH   8   9
HETATM    9  C   UNL     1      -4.352   5.377 -33.628  1.00  0.00     0.085 A 
HETATM   10  O   UNL     1      -3.554   6.262 -32.965  1.00  0.00    -0.318 OA
HETATM   11  C   UNL     1      -2.470   6.500 -33.757  1.00  0.00     0.049 A 
HETATM   12  C   UNL     1      -1.468   7.460 -33.248  1.00  0.00     0.076 C 
HETATM   13  C   UNL     1      -2.558   5.755 -34.912  1.00  0.00     0.035 A 
HETATM   14  C   UNL     1      -3.771   5.029 -34.831  1.00  0.00     0.037 A 
ENDBRANCH   8   9
BRANCH   8  15
HETATM   15  N   UNL     1      -6.654   6.129 -32.895  1.00  0.00    -0.067 N 
HETATM   16  H   UNL     1      -6.301   6.825 -33.583  1.00  0.00     0.280 HD
HETATM   17  C   UNL     1      -8.044   5.810 -33.358  1.00  0.00     0.270 C 
HETATM   18  C   UNL     1      -6.663   6.826 -31.572  1.00  0.00     0.270 C 
ENDBRANCH   8  15
ENDBRANCH   7   8
ENDBRANCH   1   7
BRANCH   3  19
HETATM   19  C   UNL     1      -3.789   0.266 -32.262  1.00  0.00     0.036 A 
HETATM   20  C   UNL     1      -4.875   0.368 -33.131  1.00  0.00     0.032 A 
HETATM   21  C   UNL     1      -5.397  -0.772 -33.764  1.00  0.00     0.032 A 
HETATM   22  C   UNL     1      -4.829  -2.033 -33.553  1.00  0.00     0.040 A 
HETATM   23  C   UNL     1      -3.738  -2.133 -32.679  1.00  0.00     0.032 A 
HETATM   24  C   UNL     1      -3.219  -0.993 -32.053  1.00  0.00     0.032 A 
BRANCH  22  25
HETATM   25  N   UNL     1      -5.335  -3.208 -34.194  1.00  0.00    -0.309 N 
HETATM   26  C   UNL     1      -4.751  -4.466 -34.356  1.00  0.00     0.106 A 
HETATM   27  C   UNL     1      -3.494  -4.940 -33.722  1.00  0.00     0.091 C 
HETATM   28  N   UNL     1      -5.520  -5.261 -35.078  1.00  0.00    -0.246 NA
HETATM   29  C   UNL     1      -6.651  -4.557 -35.347  1.00  0.00     0.136 A 
HETATM   30  C   UNL     1      -6.577  -3.303 -34.797  1.00  0.00     0.118 A 
ENDBRANCH  22  25
ENDBRANCH   3  19
TORSDOF 6
ENDMDL
MODEL 10
REMARK VINA RESULT:      -7.8     15.273     17.581
REMARK  6 active torsions:
REMARK  status: ('A' for Active; 'I' for Inactive)
REMARK    1  A    between atoms: C_4  and  C_5 
REMARK    2  A    between atoms: C_5  and  N_6 
REMARK    3  A    between atoms: C_5  and  C_10 
REMARK    4  A    between atoms: C_10  and  N_11 
REMARK       I    between atoms: N_11  and  C_12 
REMARK       I    between atoms: C_12  and  N_13 
REMARK    5  A    between atoms: N_13  and  C_14 
REMARK    6  A    between atoms: C_17  and  N_18 
ROOT
HETATM    1  N   UNL     1      -3.151 -13.479 -37.763  1.00  0.00    -0.340 N 
HETATM    2  C   UNL     1      -3.083 -12.283 -38.395  1.00  0.00     0.320 C 
HETATM    3  N   UNL     1      -4.023 -11.990 -39.326  1.00  0.00    -0.309 N 
HETATM    4  O   UNL     1      -2.138 -11.517 -38.202  1.00  0.00    -0.247 OA
HETATM    5  H   UNL     1      -3.734 -14.182 -38.203  1.00  0.00     0.164 HD
HETATM    6  H   UNL     1      -3.750 -11.211 -39.915  1.00  0.00     0.170 HD
ENDROOT
BRANCH   1   7
HETATM    7  C   UNL     1      -2.291 -13.891 -36.650  1.00  0.00     0.164 C 
BRANCH   7   8
HETATM    8  C   UNL     1      -1.140 -14.892 -36.996  1.00  0.00     0.261 C 
BRANCH   8   9
HETATM    9  C   UNL     1      -0.806 -14.851 -38.454  1.00  0.00     0.085 A 
HETATM   10  O   UNL     1      -1.637 -15.527 -39.299  1.00  0.00    -0.318 OA
HETATM   11  C   UNL     1      -1.133 -15.388 -40.557  1.00  0.00     0.049 A 
HETATM   12  C   UNL     1      -1.864 -16.067 -41.649  1.00  0.00     0.076 C 
HETATM   13  C   UNL     1       0.001 -14.607 -40.528  1.00  0.00     0.035 A 
HETATM   14  C   UNL     1       0.214 -14.259 -39.173  1.00  0.00     0.037 A 
ENDBRANCH   8   9
BRANCH   8  15
HETATM   15  N   UNL     1      -1.420 -16.305 -36.477  1.00  0.00    -0.067 N 
HETATM   16  H   UNL     1      -1.384 -16.900 -37.330  1.00  0.00     0.280 HD
HETATM   17  C   UNL     1      -0.392 -16.894 -35.559  1.00  0.00     0.270 C 
HETATM   18  C   UNL     1      -2.801 -16.460 -35.924  1.00  0.00     0.270 C 
ENDBRANCH   8  15
ENDBRANCH   7   8
ENDBRANCH   1   7
BRANCH   3  19
HETATM   19  C   UNL     1      -5.338 -12.456 -39.524  1.00  0.00     0.036 A 
HETATM   20  C   UNL     1      -6.352 -12.393 -38.570  1.00  0.00     0.032 A 
HETATM   21  C   UNL     1      -7.652 -12.830 -38.876  1.00  0.00     0.032 A 
HETATM   22  C   UNL     1      -7.963 -13.319 -40.149  1.00  0.00     0.040 A 
HETATM   23  C   UNL     1      -6.942 -13.381 -41.106  1.00  0.00     0.032 A 
HETATM   24  C   UNL     1      -5.648 -12.941 -40.797  1.00  0.00     0.032 A 
BRANCH  22  25
HETATM   25  N   UNL     1      -9.282 -13.760 -40.489  1.00  0.00    -0.309 N 
HETATM   26  C   UNL     1     -10.491 -13.062 -40.485  1.00  0.00     0.106 A 
HETATM   27  C   UNL     1     -10.662 -11.600 -40.286  1.00  0.00     0.091 C 
HETATM   28  N   UNL     1     -11.502 -13.854 -40.794  1.00  0.00    -0.246 NA
HETATM   29  C   UNL     1     -10.962 -15.071 -41.069  1.00  0.00     0.136 A 
HETATM   30  C   UNL     1      -9.600 -15.037 -40.915  1.00  0.00     0.118 A 
ENDBRANCH  22  25
ENDBRANCH   3  19
TORSDOF 6
ENDMDL
