MODEL 1
REMARK VINA RESULT:      -9.8      0.000      0.000
REMARK  7 active torsions:
REMARK  status: ('A' for Active; 'I' for Inactive)
REMARK    1  A    between atoms: C_4  and  N_5 
REMARK    2  A    between atoms: C_6  and  S_7 
REMARK    3  A    between atoms: S_7  and  C_8 
REMARK    4  A    between atoms: C_8  and  C_9 
REMARK       I    between atoms: C_9  and  N_10 
REMARK    5  A    between atoms: N_10  and  C_11 
REMARK    6  A    between atoms: C_14  and  C_15 
REMARK       I    between atoms: C_15  and  N_16 
REMARK    7  A    between atoms: C_23  and  C_24 
ROOT
HETATM    1  N   UNL     1      -5.306   2.776 -31.232  1.00  0.00    -0.271 N 
HETATM    2  C   UNL     1      -6.337   3.327 -30.483  1.00  0.00     0.197 A 
HETATM    3  N   UNL     1      -6.957   2.392 -29.802  1.00  0.00    -0.122 NA
HETATM    4  N   UNL     1      -6.360   1.199 -30.093  1.00  0.00    -0.128 NA
HETATM    5  C   UNL     1      -5.420   1.406 -30.998  1.00  0.00     0.171 A 
ENDROOT
BRANCH   2   6
HETATM    6  S   UNL     1      -6.653   5.024 -30.289  1.00  0.00    -0.080 SA
BRANCH   6   7
HETATM    7  C   UNL     1      -7.668   5.345 -31.766  1.00  0.00     0.185 C 
BRANCH   7   8
HETATM    8  C   UNL     1      -8.945   4.517 -31.733  1.00  0.00     0.231 C 
HETATM    9  N   UNL     1      -9.137   3.752 -32.873  1.00  0.00    -0.327 N 
HETATM   10  H   UNL     1      -8.462   3.893 -33.616  1.00  0.00     0.169 HD
HETATM   11  O   UNL     1      -9.666   4.518 -30.738  1.00  0.00    -0.272 OA
BRANCH   9  12
HETATM   12  C   UNL     1     -10.203   2.875 -33.158  1.00  0.00     0.034 A 
HETATM   13  C   UNL     1     -10.098   1.483 -33.134  1.00  0.00     0.030 A 
HETATM   14  C   UNL     1     -11.210   0.676 -33.417  1.00  0.00     0.019 A 
HETATM   15  C   UNL     1     -12.441   1.257 -33.737  1.00  0.00     0.032 A 
HETATM   16  C   UNL     1     -12.551   2.652 -33.754  1.00  0.00     0.019 A 
HETATM   17  C   UNL     1     -11.438   3.453 -33.470  1.00  0.00     0.030 A 
BRANCH  15  18
HETATM   18  C   UNL     1     -13.655   0.453 -34.037  1.00  0.00     0.249 C 
HETATM   19  N   UNL     1     -13.752  -0.791 -33.478  1.00  0.00    -0.366 N 
HETATM   20  H   UNL     1     -12.978  -1.263 -33.036  1.00  0.00     0.159 HD
HETATM   21  H   UNL     1     -14.543  -1.353 -33.768  1.00  0.00     0.159 HD
HETATM   22  O   UNL     1     -14.532   0.870 -34.785  1.00  0.00    -0.268 OA
ENDBRANCH  15  18
ENDBRANCH   9  12
ENDBRANCH   7   8
ENDBRANCH   6   7
ENDBRANCH   2   6
BRANCH   1  23
HETATM   23  C   UNL     1      -4.287   3.455 -31.952  1.00  0.00     0.044 A 
HETATM   24  C   UNL     1      -4.535   3.968 -33.231  1.00  0.00     0.037 A 
HETATM   25  C   UNL     1      -3.525   4.646 -33.929  1.00  0.00    -0.060 A 
HETATM   26  C   UNL     1      -3.791   5.228 -35.286  1.00  0.00     0.048 C 
HETATM   27  C   UNL     1      -2.276   4.825 -33.324  1.00  0.00     0.007 A 
HETATM   28  C   UNL     1      -2.027   4.316 -32.049  1.00  0.00     0.003 A 
HETATM   29  C   UNL     1      -3.028   3.632 -31.361  1.00  0.00     0.030 A 
ENDBRANCH   1  23
BRANCH   5  30
HETATM   30  C   UNL     1      -4.725   0.267 -31.682  1.00  0.00     0.040 A 
HETATM   31  C   UNL     1      -5.256  -0.538 -32.739  1.00  0.00     0.006 A 
HETATM   32  C   UNL     1      -4.269  -1.463 -33.088  1.00  0.00     0.043 A 
HETATM   33  C   UNL     1      -6.488  -0.590 -33.425  1.00  0.00     0.015 A 
HETATM   34  C   UNL     1      -4.452  -2.432 -34.081  1.00  0.00     0.030 A 
HETATM   35  N   UNL     1      -3.175  -1.209 -32.293  1.00  0.00    -0.364 N 
HETATM   36  C   UNL     1      -5.684  -2.461 -34.741  1.00  0.00     0.002 A 
HETATM   37  C   UNL     1      -6.689  -1.554 -34.420  1.00  0.00     0.001 A 
HETATM   38  H   UNL     1      -2.303  -1.717 -32.342  1.00  0.00     0.165 HD
HETATM   39  C   UNL     1      -3.435  -0.161 -31.448  1.00  0.00     0.104 A 
ENDBRANCH   5  30
TORSDOF 7
ENDMDL
MODEL 2
REMARK VINA RESULT:      -9.7      0.659      1.242
REMARK  7 active torsions:
REMARK  status: ('A' for Active; 'I' for Inactive)
REMARK    1  A    between atoms: C_4  and  N_5 
REMARK    2  A    between atoms: C_6  and  S_7 
REMARK    3  A    between atoms: S_7  and  C_8 
REMARK    4  A    between atoms: C_8  and  C_9 
REMARK       I    between atoms: C_9  and  N_10 
REMARK    5  A    between atoms: N_10  and  C_11 
REMARK    6  A    between atoms: C_14  and  C_15 
REMARK       I    between atoms: C_15  and  N_16 
REMARK    7  A    between atoms: C_23  and  C_24 
ROOT
HETATM    1  N   UNL     1      -5.575   3.201 -31.806  1.00  0.00    -0.271 N 
HETATM    2  C   UNL     1      -6.506   3.731 -30.923  1.00  0.00     0.197 A 
HETATM    3  N   UNL     1      -6.935   2.804 -30.100  1.00  0.00    -0.122 NA
HETATM    4  N   UNL     1      -6.308   1.635 -30.425  1.00  0.00    -0.128 NA
HETATM    5  C   UNL     1      -5.548   1.844 -31.486  1.00  0.00     0.171 A 
ENDROOT
BRANCH   2   6
HETATM    6  S   UNL     1      -6.910   5.413 -30.766  1.00  0.00    -0.080 SA
BRANCH   6   7
HETATM    7  C   UNL     1      -8.010   5.627 -32.201  1.00  0.00     0.185 C 
BRANCH   7   8
HETATM    8  C   UNL     1      -9.230   4.723 -32.084  1.00  0.00     0.231 C 
HETATM    9  N   UNL     1      -9.459   3.956 -33.217  1.00  0.00    -0.327 N 
HETATM   10  H   UNL     1      -8.849   4.144 -34.005  1.00  0.00     0.169 HD
HETATM   11  O   UNL     1      -9.874   4.674 -31.039  1.00  0.00    -0.272 OA
BRANCH   9  12
HETATM   12  C   UNL     1     -10.488   3.019 -33.433  1.00  0.00     0.034 A 
HETATM   13  C   UNL     1     -10.317   1.636 -33.352  1.00  0.00     0.030 A 
HETATM   14  C   UNL     1     -11.396   0.767 -33.569  1.00  0.00     0.019 A 
HETATM   15  C   UNL     1     -12.661   1.275 -33.879  1.00  0.00     0.032 A 
HETATM   16  C   UNL     1     -12.838   2.661 -33.953  1.00  0.00     0.019 A 
HETATM   17  C   UNL     1     -11.758   3.525 -33.736  1.00  0.00     0.030 A 
BRANCH  15  18
HETATM   18  C   UNL     1     -13.843   0.402 -34.111  1.00  0.00     0.249 C 
HETATM   19  N   UNL     1     -13.792  -0.880 -33.640  1.00  0.00    -0.366 N 
HETATM   20  H   UNL     1     -12.943  -1.321 -33.318  1.00  0.00     0.159 HD
HETATM   21  H   UNL     1     -14.569  -1.481 -33.887  1.00  0.00     0.159 HD
HETATM   22  O   UNL     1     -14.823   0.800 -34.729  1.00  0.00    -0.268 OA
ENDBRANCH  15  18
ENDBRANCH   9  12
ENDBRANCH   7   8
ENDBRANCH   6   7
ENDBRANCH   2   6
BRANCH   1  23
HETATM   23  C   UNL     1      -4.741   3.897 -32.721  1.00  0.00     0.044 A 
HETATM   24  C   UNL     1      -3.420   4.218 -32.384  1.00  0.00     0.037 A 
HETATM   25  C   UNL     1      -2.602   4.896 -33.299  1.00  0.00    -0.060 A 
HETATM   26  C   UNL     1      -1.176   5.215 -32.961  1.00  0.00     0.048 C 
HETATM   27  C   UNL     1      -3.113   5.227 -34.560  1.00  0.00     0.007 A 
HETATM   28  C   UNL     1      -4.427   4.907 -34.898  1.00  0.00     0.003 A 
HETATM   29  C   UNL     1      -5.243   4.244 -33.983  1.00  0.00     0.030 A 
ENDBRANCH   1  23
BRANCH   5  30
HETATM   30  C   UNL     1      -4.893   0.711 -32.218  1.00  0.00     0.040 A 
HETATM   31  C   UNL     1      -5.552  -0.272 -33.022  1.00  0.00     0.006 A 
HETATM   32  C   UNL     1      -4.564  -1.121 -33.527  1.00  0.00     0.043 A 
HETATM   33  C   UNL     1      -6.896  -0.542 -33.357  1.00  0.00     0.015 A 
HETATM   34  C   UNL     1      -4.851  -2.220 -34.345  1.00  0.00     0.030 A 
HETATM   35  N   UNL     1      -3.355  -0.653 -33.070  1.00  0.00    -0.364 N 
HETATM   36  C   UNL     1      -6.192  -2.464 -34.657  1.00  0.00     0.002 A 
HETATM   37  C   UNL     1      -7.201  -1.638 -34.172  1.00  0.00     0.001 A 
HETATM   38  H   UNL     1      -2.460  -1.065 -33.296  1.00  0.00     0.165 HD
HETATM   39  C   UNL     1      -3.539   0.457 -32.287  1.00  0.00     0.104 A 
ENDBRANCH   5  30
TORSDOF 7
ENDMDL
MODEL 3
REMARK VINA RESULT:      -9.1      3.407      6.748
REMARK  7 active torsions:
REMARK  status: ('A' for Active; 'I' for Inactive)
REMARK    1  A    between atoms: C_4  and  N_5 
REMARK    2  A    between atoms: C_6  and  S_7 
REMARK    3  A    between atoms: S_7  and  C_8 
REMARK    4  A    between atoms: C_8  and  C_9 
REMARK       I    between atoms: C_9  and  N_10 
REMARK    5  A    between atoms: N_10  and  C_11 
REMARK    6  A    between atoms: C_14  and  C_15 
REMARK       I    between atoms: C_15  and  N_16 
REMARK    7  A    between atoms: C_23  and  C_24 
ROOT
HETATM    1  N   UNL     1      -5.562   5.292 -31.209  1.00  0.00    -0.271 N 
HETATM    2  C   UNL     1      -6.783   5.719 -31.711  1.00  0.00     0.197 A 
HETATM    3  N   UNL     1      -6.818   7.029 -31.774  1.00  0.00    -0.122 NA
HETATM    4  N   UNL     1      -5.625   7.500 -31.304  1.00  0.00    -0.128 NA
HETATM    5  C   UNL     1      -4.897   6.476 -30.898  1.00  0.00     0.171 A 
ENDROOT
BRANCH   2   6
HETATM    6  S   UNL     1      -8.024   4.695 -32.367  1.00  0.00    -0.080 SA
BRANCH   6   7
HETATM    7  C   UNL     1      -7.096   3.849 -33.685  1.00  0.00     0.185 C 
BRANCH   7   8
HETATM    8  C   UNL     1      -7.254   2.339 -33.571  1.00  0.00     0.231 C 
HETATM    9  N   UNL     1      -6.251   1.630 -34.216  1.00  0.00    -0.327 N 
HETATM   10  H   UNL     1      -5.590   2.186 -34.746  1.00  0.00     0.169 HD
HETATM   11  O   UNL     1      -8.166   1.854 -32.907  1.00  0.00    -0.272 OA
BRANCH   9  12
HETATM   12  C   UNL     1      -6.095   0.231 -34.296  1.00  0.00     0.034 A 
HETATM   13  C   UNL     1      -5.054  -0.476 -33.693  1.00  0.00     0.030 A 
HETATM   14  C   UNL     1      -4.975  -1.871 -33.808  1.00  0.00     0.019 A 
HETATM   15  C   UNL     1      -5.937  -2.575 -34.539  1.00  0.00     0.032 A 
HETATM   16  C   UNL     1      -6.987  -1.870 -35.138  1.00  0.00     0.019 A 
HETATM   17  C   UNL     1      -7.062  -0.477 -35.020  1.00  0.00     0.030 A 
BRANCH  15  18
HETATM   18  C   UNL     1      -5.909  -4.055 -34.688  1.00  0.00     0.249 C 
HETATM   19  N   UNL     1      -6.975  -4.657 -35.295  1.00  0.00    -0.366 N 
HETATM   20  H   UNL     1      -7.850  -4.187 -35.475  1.00  0.00     0.159 HD
HETATM   21  H   UNL     1      -6.974  -5.669 -35.305  1.00  0.00     0.159 HD
HETATM   22  O   UNL     1      -4.978  -4.725 -34.256  1.00  0.00    -0.268 OA
ENDBRANCH  15  18
ENDBRANCH   9  12
ENDBRANCH   7   8
ENDBRANCH   6   7
ENDBRANCH   2   6
BRANCH   1  23
HETATM   23  C   UNL     1      -5.053   3.966 -31.156  1.00  0.00     0.044 A 
HETATM   24  C   UNL     1      -5.692   2.984 -30.389  1.00  0.00     0.037 A 
HETATM   25  C   UNL     1      -5.187   1.676 -30.353  1.00  0.00    -0.060 A 
HETATM   26  C   UNL     1      -5.883   0.608 -29.561  1.00  0.00     0.048 C 
HETATM   27  C   UNL     1      -4.053   1.358 -31.110  1.00  0.00     0.007 A 
HETATM   28  C   UNL     1      -3.417   2.335 -31.875  1.00  0.00     0.003 A 
HETATM   29  C   UNL     1      -3.912   3.637 -31.901  1.00  0.00     0.030 A 
ENDBRANCH   1  23
BRANCH   5  30
HETATM   30  C   UNL     1      -3.621   6.674 -30.136  1.00  0.00     0.040 A 
HETATM   31  C   UNL     1      -2.303   6.732 -30.691  1.00  0.00     0.006 A 
HETATM   32  C   UNL     1      -1.419   6.948 -29.630  1.00  0.00     0.043 A 
HETATM   33  C   UNL     1      -1.765   6.602 -31.989  1.00  0.00     0.015 A 
HETATM   34  C   UNL     1      -0.032   7.038 -29.803  1.00  0.00     0.030 A 
HETATM   35  N   UNL     1      -2.174   7.045 -28.485  1.00  0.00    -0.364 N 
HETATM   36  C   UNL     1       0.471   6.902 -31.099  1.00  0.00     0.002 A 
HETATM   37  C   UNL     1      -0.381   6.688 -32.179  1.00  0.00     0.001 A 
HETATM   38  H   UNL     1      -1.796   7.220 -27.565  1.00  0.00     0.165 HD
HETATM   39  C   UNL     1      -3.504   6.891 -28.779  1.00  0.00     0.104 A 
ENDBRANCH   5  30
TORSDOF 7
ENDMDL
MODEL 4
REMARK VINA RESULT:      -9.0      4.152      8.552
REMARK  7 active torsions:
REMARK  status: ('A' for Active; 'I' for Inactive)
REMARK    1  A    between atoms: C_4  and  N_5 
REMARK    2  A    between atoms: C_6  and  S_7 
REMARK    3  A    between atoms: S_7  and  C_8 
REMARK    4  A    between atoms: C_8  and  C_9 
REMARK       I    between atoms: C_9  and  N_10 
REMARK    5  A    between atoms: N_10  and  C_11 
REMARK    6  A    between atoms: C_14  and  C_15 
REMARK       I    between atoms: C_15  and  N_16 
REMARK    7  A    between atoms: C_23  and  C_24 
ROOT
HETATM    1  N   UNL     1      -4.940   1.867 -31.652  1.00  0.00    -0.271 N 
HETATM    2  C   UNL     1      -4.281   3.000 -31.196  1.00  0.00     0.197 A 
HETATM    3  N   UNL     1      -2.986   2.874 -31.366  1.00  0.00    -0.122 NA
HETATM    4  N   UNL     1      -2.756   1.651 -31.928  1.00  0.00    -0.128 NA
HETATM    5  C   UNL     1      -3.908   1.014 -32.037  1.00  0.00     0.171 A 
ENDROOT
BRANCH   2   6
HETATM    6  S   UNL     1      -5.040   4.470 -30.667  1.00  0.00    -0.080 SA
BRANCH   6   7
HETATM    7  C   UNL     1      -4.437   5.631 -31.934  1.00  0.00     0.185 C 
BRANCH   7   8
HETATM    8  C   UNL     1      -3.352   6.535 -31.364  1.00  0.00     0.231 C 
HETATM    9  N   UNL     1      -2.640   5.955 -30.324  1.00  0.00    -0.327 N 
HETATM   10  H   UNL     1      -2.973   5.049 -30.016  1.00  0.00     0.169 HD
HETATM   11  O   UNL     1      -3.132   7.637 -31.860  1.00  0.00    -0.272 OA
BRANCH   9  12
HETATM   12  C   UNL     1      -1.575   6.512 -29.589  1.00  0.00     0.034 A 
HETATM   13  C   UNL     1      -0.260   6.588 -30.053  1.00  0.00     0.030 A 
HETATM   14  C   UNL     1       0.744   7.170 -29.266  1.00  0.00     0.019 A 
HETATM   15  C   UNL     1       0.444   7.675 -27.997  1.00  0.00     0.032 A 
HETATM   16  C   UNL     1      -0.874   7.607 -27.533  1.00  0.00     0.019 A 
HETATM   17  C   UNL     1      -1.874   7.026 -28.322  1.00  0.00     0.030 A 
BRANCH  15  18
HETATM   18  C   UNL     1       1.466   8.309 -27.123  1.00  0.00     0.249 C 
HETATM   19  N   UNL     1       1.991   9.507 -27.519  1.00  0.00    -0.366 N 
HETATM   20  H   UNL     1       1.870   9.888 -28.445  1.00  0.00     0.159 HD
HETATM   21  H   UNL     1       2.748   9.874 -26.954  1.00  0.00     0.159 HD
HETATM   22  O   UNL     1       1.853   7.768 -26.094  1.00  0.00    -0.268 OA
ENDBRANCH  15  18
ENDBRANCH   9  12
ENDBRANCH   7   8
ENDBRANCH   6   7
ENDBRANCH   2   6
BRANCH   1  23
HETATM   23  C   UNL     1      -6.338   1.677 -31.822  1.00  0.00     0.044 A 
HETATM   24  C   UNL     1      -7.037   2.360 -32.825  1.00  0.00     0.037 A 
HETATM   25  C   UNL     1      -8.414   2.157 -32.992  1.00  0.00    -0.060 A 
HETATM   26  C   UNL     1      -9.166   2.860 -34.084  1.00  0.00     0.048 C 
HETATM   27  C   UNL     1      -9.077   1.247 -32.160  1.00  0.00     0.007 A 
HETATM   28  C   UNL     1      -8.383   0.564 -31.162  1.00  0.00     0.003 A 
HETATM   29  C   UNL     1      -7.016   0.776 -30.990  1.00  0.00     0.030 A 
ENDBRANCH   1  23
BRANCH   5  30
HETATM   30  C   UNL     1      -3.970  -0.435 -32.422  1.00  0.00     0.040 A 
HETATM   31  C   UNL     1      -4.851  -1.018 -33.387  1.00  0.00     0.006 A 
HETATM   32  C   UNL     1      -4.555  -2.382 -33.442  1.00  0.00     0.043 A 
HETATM   33  C   UNL     1      -5.890  -0.529 -34.207  1.00  0.00     0.015 A 
HETATM   34  C   UNL     1      -5.242  -3.276 -34.272  1.00  0.00     0.030 A 
HETATM   35  N   UNL     1      -3.518  -2.609 -32.568  1.00  0.00    -0.364 N 
HETATM   36  C   UNL     1      -6.268  -2.763 -35.071  1.00  0.00     0.002 A 
HETATM   37  C   UNL     1      -6.589  -1.409 -35.041  1.00  0.00     0.001 A 
HETATM   38  H   UNL     1      -3.084  -3.509 -32.417  1.00  0.00     0.165 HD
HETATM   39  C   UNL     1      -3.150  -1.440 -31.954  1.00  0.00     0.104 A 
ENDBRANCH   5  30
TORSDOF 7
ENDMDL
MODEL 5
REMARK VINA RESULT:      -9.0      4.801      9.273
REMARK  7 active torsions:
REMARK  status: ('A' for Active; 'I' for Inactive)
REMARK    1  A    between atoms: C_4  and  N_5 
REMARK    2  A    between atoms: C_6  and  S_7 
REMARK    3  A    between atoms: S_7  and  C_8 
REMARK    4  A    between atoms: C_8  and  C_9 
REMARK       I    between atoms: C_9  and  N_10 
REMARK    5  A    between atoms: N_10  and  C_11 
REMARK    6  A    between atoms: C_14  and  C_15 
REMARK       I    between atoms: C_15  and  N_16 
REMARK    7  A    between atoms: C_23  and  C_24 
ROOT
HETATM    1  N   UNL     1      -5.116   2.548 -32.147  1.00  0.00    -0.271 N 
HETATM    2  C   UNL     1      -3.908   2.915 -31.570  1.00  0.00     0.197 A 
HETATM    3  N   UNL     1      -3.032   1.947 -31.691  1.00  0.00    -0.122 NA
HETATM    4  N   UNL     1      -3.641   0.912 -32.340  1.00  0.00    -0.128 NA
HETATM    5  C   UNL     1      -4.905   1.232 -32.554  1.00  0.00     0.171 A 
ENDROOT
BRANCH   2   6
HETATM    6  S   UNL     1      -3.516   4.493 -30.957  1.00  0.00    -0.080 SA
BRANCH   6   7
HETATM    7  C   UNL     1      -1.897   4.763 -31.746  1.00  0.00     0.185 C 
BRANCH   7   8
HETATM    8  C   UNL     1      -0.857   5.179 -30.715  1.00  0.00     0.231 C 
HETATM    9  N   UNL     1      -1.286   6.200 -29.880  1.00  0.00    -0.327 N 
HETATM   10  H   UNL     1      -2.191   6.599 -30.102  1.00  0.00     0.169 HD
HETATM   11  O   UNL     1       0.216   4.588 -30.637  1.00  0.00    -0.272 OA
BRANCH   9  12
HETATM   12  C   UNL     1      -0.579   6.807 -28.823  1.00  0.00     0.034 A 
HETATM   13  C   UNL     1      -0.884   6.626 -27.473  1.00  0.00     0.030 A 
HETATM   14  C   UNL     1      -0.124   7.256 -26.476  1.00  0.00     0.019 A 
HETATM   15  C   UNL     1       0.949   8.083 -26.823  1.00  0.00     0.032 A 
HETATM   16  C   UNL     1       1.262   8.259 -28.176  1.00  0.00     0.019 A 
HETATM   17  C   UNL     1       0.501   7.628 -29.167  1.00  0.00     0.030 A 
BRANCH  15  18
HETATM   18  C   UNL     1       1.795   8.769 -25.810  1.00  0.00     0.249 C 
HETATM   19  N   UNL     1       1.989  10.115 -25.945  1.00  0.00    -0.366 N 
HETATM   20  H   UNL     1       1.754  10.629 -26.782  1.00  0.00     0.159 HD
HETATM   21  H   UNL     1       2.638  10.543 -25.297  1.00  0.00     0.159 HD
HETATM   22  O   UNL     1       2.329   8.151 -24.897  1.00  0.00    -0.268 OA
ENDBRANCH  15  18
ENDBRANCH   9  12
ENDBRANCH   7   8
ENDBRANCH   6   7
ENDBRANCH   2   6
BRANCH   1  23
HETATM   23  C   UNL     1      -6.252   3.365 -32.395  1.00  0.00     0.044 A 
HETATM   24  C   UNL     1      -7.189   3.612 -31.383  1.00  0.00     0.037 A 
HETATM   25  C   UNL     1      -8.301   4.429 -31.634  1.00  0.00    -0.060 A 
HETATM   26  C   UNL     1      -9.294   4.727 -30.549  1.00  0.00     0.048 C 
HETATM   27  C   UNL     1      -8.452   5.011 -32.899  1.00  0.00     0.007 A 
HETATM   28  C   UNL     1      -7.519   4.767 -33.906  1.00  0.00     0.003 A 
HETATM   29  C   UNL     1      -6.420   3.946 -33.659  1.00  0.00     0.030 A 
ENDBRANCH   1  23
BRANCH   5  30
HETATM   30  C   UNL     1      -5.895   0.225 -33.058  1.00  0.00     0.040 A 
HETATM   31  C   UNL     1      -5.589  -1.040 -33.652  1.00  0.00     0.006 A 
HETATM   32  C   UNL     1      -6.805  -1.658 -33.954  1.00  0.00     0.043 A 
HETATM   33  C   UNL     1      -4.397  -1.719 -33.985  1.00  0.00     0.015 A 
HETATM   34  C   UNL     1      -6.888  -2.913 -34.570  1.00  0.00     0.030 A 
HETATM   35  N   UNL     1      -7.805  -0.814 -33.533  1.00  0.00    -0.364 N 
HETATM   36  C   UNL     1      -5.691  -3.559 -34.891  1.00  0.00     0.002 A 
HETATM   37  C   UNL     1      -4.462  -2.973 -34.603  1.00  0.00     0.001 A 
HETATM   38  H   UNL     1      -8.793  -1.015 -33.610  1.00  0.00     0.165 HD
HETATM   39  C   UNL     1      -7.269   0.321 -32.983  1.00  0.00     0.104 A 
ENDBRANCH   5  30
TORSDOF 7
ENDMDL
MODEL 6
REMARK VINA RESULT:      -8.9      2.634      5.250
REMARK  7 active torsions:
REMARK  status: ('A' for Active; 'I' for Inactive)
REMARK    1  A    between atoms: C_4  and  N_5 
REMARK    2  A    between atoms: C_6  and  S_7 
REMARK    3  A    between atoms: S_7  and  C_8 
REMARK    4  A    between atoms: C_8  and  C_9 
REMARK       I    between atoms: C_9  and  N_10 
REMARK    5  A    between atoms: N_10  and  C_11 
REMARK    6  A    between atoms: C_14  and  C_15 
REMARK       I    between atoms: C_15  and  N_16 
REMARK    7  A    between atoms: C_23  and  C_24 
ROOT
HETATM    1  N   UNL     1      -7.018   1.743 -32.530  1.00  0.00    -0.271 N 
HETATM    2  C   UNL     1      -8.360   1.973 -32.258  1.00  0.00     0.197 A 
HETATM    3  N   UNL     1      -8.551   3.228 -31.930  1.00  0.00    -0.122 NA
HETATM    4  N   UNL     1      -7.339   3.857 -31.964  1.00  0.00    -0.128 NA
HETATM    5  C   UNL     1      -6.408   2.964 -32.251  1.00  0.00     0.171 A 
ENDROOT
BRANCH   2   6
HETATM    6  S   UNL     1      -9.653   0.841 -32.511  1.00  0.00    -0.080 SA
BRANCH   6   7
HETATM    7  C   UNL     1     -10.119   1.244 -34.224  1.00  0.00     0.185 C 
BRANCH   7   8
HETATM    8  C   UNL     1     -11.505   1.872 -34.273  1.00  0.00     0.231 C 
HETATM    9  N   UNL     1     -12.257   1.638 -33.131  1.00  0.00    -0.327 N 
HETATM   10  H   UNL     1     -11.836   1.020 -32.447  1.00  0.00     0.169 HD
HETATM   11  O   UNL     1     -11.846   2.561 -35.231  1.00  0.00    -0.272 OA
BRANCH   9  12
HETATM   12  C   UNL     1     -13.565   2.081 -32.851  1.00  0.00     0.034 A 
HETATM   13  C   UNL     1     -14.719   1.368 -33.178  1.00  0.00     0.030 A 
HETATM   14  C   UNL     1     -15.988   1.870 -32.853  1.00  0.00     0.019 A 
HETATM   15  C   UNL     1     -16.114   3.102 -32.202  1.00  0.00     0.032 A 
HETATM   16  C   UNL     1     -14.958   3.815 -31.866  1.00  0.00     0.019 A 
HETATM   17  C   UNL     1     -13.694   3.310 -32.192  1.00  0.00     0.030 A 
BRANCH  15  18
HETATM   18  C   UNL     1     -17.432   3.680 -31.826  1.00  0.00     0.249 C 
HETATM   19  N   UNL     1     -17.472   4.996 -31.460  1.00  0.00    -0.366 N 
HETATM   20  H   UNL     1     -16.648   5.540 -31.251  1.00  0.00     0.159 HD
HETATM   21  H   UNL     1     -18.362   5.342 -31.124  1.00  0.00     0.159 HD
HETATM   22  O   UNL     1     -18.450   2.998 -31.812  1.00  0.00    -0.268 OA
ENDBRANCH  15  18
ENDBRANCH   9  12
ENDBRANCH   7   8
ENDBRANCH   6   7
ENDBRANCH   2   6
BRANCH   1  23
HETATM   23  C   UNL     1      -6.426   0.581 -33.094  1.00  0.00     0.044 A 
HETATM   24  C   UNL     1      -5.412  -0.107 -32.416  1.00  0.00     0.037 A 
HETATM   25  C   UNL     1      -4.841  -1.258 -32.977  1.00  0.00    -0.060 A 
HETATM   26  C   UNL     1      -3.777  -2.021 -32.244  1.00  0.00     0.048 C 
HETATM   27  C   UNL     1      -5.312  -1.725 -34.210  1.00  0.00     0.007 A 
HETATM   28  C   UNL     1      -6.323  -1.042 -34.886  1.00  0.00     0.003 A 
HETATM   29  C   UNL     1      -6.881   0.109 -34.333  1.00  0.00     0.030 A 
ENDBRANCH   1  23
BRANCH   5  30
HETATM   30  C   UNL     1      -4.948   3.294 -32.156  1.00  0.00     0.040 A 
HETATM   31  C   UNL     1      -4.187   4.049 -33.104  1.00  0.00     0.006 A 
HETATM   32  C   UNL     1      -2.882   4.131 -32.613  1.00  0.00     0.043 A 
HETATM   33  C   UNL     1      -4.469   4.656 -34.347  1.00  0.00     0.015 A 
HETATM   34  C   UNL     1      -1.851   4.785 -33.298  1.00  0.00     0.030 A 
HETATM   35  N   UNL     1      -2.862   3.478 -31.403  1.00  0.00    -0.364 N 
HETATM   36  C   UNL     1      -2.160   5.374 -34.527  1.00  0.00     0.002 A 
HETATM   37  C   UNL     1      -3.450   5.312 -35.046  1.00  0.00     0.001 A 
HETATM   38  H   UNL     1      -2.047   3.396 -30.812  1.00  0.00     0.165 HD
HETATM   39  C   UNL     1      -4.105   2.977 -31.113  1.00  0.00     0.104 A 
ENDBRANCH   5  30
TORSDOF 7
ENDMDL
MODEL 7
REMARK VINA RESULT:      -8.8      3.277      6.853
REMARK  7 active torsions:
REMARK  status: ('A' for Active; 'I' for Inactive)
REMARK    1  A    between atoms: C_4  and  N_5 
REMARK    2  A    between atoms: C_6  and  S_7 
REMARK    3  A    between atoms: S_7  and  C_8 
REMARK    4  A    between atoms: C_8  and  C_9 
REMARK       I    between atoms: C_9  and  N_10 
REMARK    5  A    between atoms: N_10  and  C_11 
REMARK    6  A    between atoms: C_14  and  C_15 
REMARK       I    between atoms: C_15  and  N_16 
REMARK    7  A    between atoms: C_23  and  C_24 
ROOT
HETATM    1  N   UNL     1      -4.947   4.429 -31.280  1.00  0.00    -0.271 N 
HETATM    2  C   UNL     1      -5.688   3.262 -31.155  1.00  0.00     0.197 A 
HETATM    3  N   UNL     1      -4.904   2.213 -31.238  1.00  0.00    -0.122 NA
HETATM    4  N   UNL     1      -3.628   2.660 -31.431  1.00  0.00    -0.128 NA
HETATM    5  C   UNL     1      -3.653   3.977 -31.529  1.00  0.00     0.171 A 
ENDROOT
BRANCH   2   6
HETATM    6  S   UNL     1      -7.372   3.169 -30.739  1.00  0.00    -0.080 SA
BRANCH   6   7
HETATM    7  C   UNL     1      -8.053   2.452 -32.267  1.00  0.00     0.185 C 
BRANCH   7   8
HETATM    8  C   UNL     1      -7.762   0.959 -32.339  1.00  0.00     0.231 C 
HETATM    9  N   UNL     1      -6.780   0.632 -33.263  1.00  0.00    -0.327 N 
HETATM   10  H   UNL     1      -6.438   1.399 -33.830  1.00  0.00     0.169 HD
HETATM   11  O   UNL     1      -8.327   0.174 -31.582  1.00  0.00    -0.272 OA
BRANCH   9  12
HETATM   12  C   UNL     1      -6.271  -0.645 -33.569  1.00  0.00     0.034 A 
HETATM   13  C   UNL     1      -5.002  -1.091 -33.196  1.00  0.00     0.030 A 
HETATM   14  C   UNL     1      -4.571  -2.384 -33.527  1.00  0.00     0.019 A 
HETATM   15  C   UNL     1      -5.407  -3.245 -34.246  1.00  0.00     0.032 A 
HETATM   16  C   UNL     1      -6.683  -2.804 -34.613  1.00  0.00     0.019 A 
HETATM   17  C   UNL     1      -7.109  -1.512 -34.280  1.00  0.00     0.030 A 
BRANCH  15  18
HETATM   18  C   UNL     1      -5.007  -4.629 -34.617  1.00  0.00     0.249 C 
HETATM   19  N   UNL     1      -3.769  -5.061 -34.233  1.00  0.00    -0.366 N 
HETATM   20  H   UNL     1      -3.049  -4.446 -33.884  1.00  0.00     0.159 HD
HETATM   21  H   UNL     1      -3.486  -5.971 -34.573  1.00  0.00     0.159 HD
HETATM   22  O   UNL     1      -5.745  -5.355 -35.273  1.00  0.00    -0.268 OA
ENDBRANCH  15  18
ENDBRANCH   9  12
ENDBRANCH   7   8
ENDBRANCH   6   7
ENDBRANCH   2   6
BRANCH   1  23
HETATM   23  C   UNL     1      -5.377   5.766 -31.063  1.00  0.00     0.044 A 
HETATM   24  C   UNL     1      -5.227   6.371 -29.809  1.00  0.00     0.037 A 
HETATM   25  C   UNL     1      -5.644   7.695 -29.609  1.00  0.00    -0.060 A 
HETATM   26  C   UNL     1      -5.457   8.364 -28.279  1.00  0.00     0.048 C 
HETATM   27  C   UNL     1      -6.191   8.411 -30.680  1.00  0.00     0.007 A 
HETATM   28  C   UNL     1      -6.341   7.810 -31.930  1.00  0.00     0.003 A 
HETATM   29  C   UNL     1      -5.936   6.490 -32.125  1.00  0.00     0.030 A 
ENDBRANCH   1  23
BRANCH   5  30
HETATM   30  C   UNL     1      -2.443   4.755 -31.954  1.00  0.00     0.040 A 
HETATM   31  C   UNL     1      -1.614   5.560 -31.110  1.00  0.00     0.006 A 
HETATM   32  C   UNL     1      -0.596   6.083 -31.911  1.00  0.00     0.043 A 
HETATM   33  C   UNL     1      -1.637   5.919 -29.745  1.00  0.00     0.015 A 
HETATM   34  C   UNL     1       0.394   6.941 -31.418  1.00  0.00     0.030 A 
HETATM   35  N   UNL     1      -0.784   5.590 -33.181  1.00  0.00    -0.364 N 
HETATM   36  C   UNL     1       0.344   7.280 -30.063  1.00  0.00     0.002 A 
HETATM   37  C   UNL     1      -0.656   6.777 -29.236  1.00  0.00     0.001 A 
HETATM   38  H   UNL     1      -0.181   5.790 -33.966  1.00  0.00     0.165 HD
HETATM   39  C   UNL     1      -1.890   4.781 -33.217  1.00  0.00     0.104 A 
ENDBRANCH   5  30
TORSDOF 7
ENDMDL
MODEL 8
REMARK VINA RESULT:      -8.7      3.651      6.808
REMARK  7 active torsions:
REMARK  status: ('A' for Active; 'I' for Inactive)
REMARK    1  A    between atoms: C_4  and  N_5 
REMARK    2  A    between atoms: C_6  and  S_7 
REMARK    3  A    between atoms: S_7  and  C_8 
REMARK    4  A    between atoms: C_8  and  C_9 
REMARK       I    between atoms: C_9  and  N_10 
REMARK    5  A    between atoms: N_10  and  C_11 
REMARK    6  A    between atoms: C_14  and  C_15 
REMARK       I    between atoms: C_15  and  N_16 
REMARK    7  A    between atoms: C_23  and  C_24 
ROOT
HETATM    1  N   UNL     1      -5.671   5.918 -31.284  1.00  0.00    -0.271 N 
HETATM    2  C   UNL     1      -6.949   6.164 -31.767  1.00  0.00     0.197 A 
HETATM    3  N   UNL     1      -7.521   7.121 -31.077  1.00  0.00    -0.122 NA
HETATM    4  N   UNL     1      -6.641   7.525 -30.114  1.00  0.00    -0.128 NA
HETATM    5  C   UNL     1      -5.562   6.766 -30.183  1.00  0.00     0.171 A 
ENDROOT
BRANCH   2   6
HETATM    6  S   UNL     1      -7.640   5.471 -33.202  1.00  0.00    -0.080 SA
BRANCH   6   7
HETATM    7  C   UNL     1      -8.051   3.802 -32.602  1.00  0.00     0.185 C 
BRANCH   7   8
HETATM    8  C   UNL     1      -7.169   2.756 -33.271  1.00  0.00     0.231 C 
HETATM    9  N   UNL     1      -7.416   1.464 -32.832  1.00  0.00    -0.327 N 
HETATM   10  H   UNL     1      -8.083   1.377 -32.073  1.00  0.00     0.169 HD
HETATM   11  O   UNL     1      -6.377   3.078 -34.152  1.00  0.00    -0.272 OA
BRANCH   9  12
HETATM   12  C   UNL     1      -6.788   0.274 -33.250  1.00  0.00     0.034 A 
HETATM   13  C   UNL     1      -5.513  -0.123 -32.843  1.00  0.00     0.030 A 
HETATM   14  C   UNL     1      -4.961  -1.331 -33.293  1.00  0.00     0.019 A 
HETATM   15  C   UNL     1      -5.680  -2.154 -34.166  1.00  0.00     0.032 A 
HETATM   16  C   UNL     1      -6.962  -1.763 -34.569  1.00  0.00     0.019 A 
HETATM   17  C   UNL     1      -7.508  -0.556 -34.117  1.00  0.00     0.030 A 
BRANCH  15  18
HETATM   18  C   UNL     1      -5.149  -3.449 -34.669  1.00  0.00     0.249 C 
HETATM   19  N   UNL     1      -5.997  -4.258 -35.373  1.00  0.00    -0.366 N 
HETATM   20  H   UNL     1      -6.995  -4.119 -35.408  1.00  0.00     0.159 HD
HETATM   21  H   UNL     1      -5.639  -5.170 -35.627  1.00  0.00     0.159 HD
HETATM   22  O   UNL     1      -3.998  -3.802 -34.439  1.00  0.00    -0.268 OA
ENDBRANCH  15  18
ENDBRANCH   9  12
ENDBRANCH   7   8
ENDBRANCH   6   7
ENDBRANCH   2   6
BRANCH   1  23
HETATM   23  C   UNL     1      -4.659   5.103 -31.858  1.00  0.00     0.044 A 
HETATM   24  C   UNL     1      -3.967   5.521 -33.002  1.00  0.00     0.037 A 
HETATM   25  C   UNL     1      -2.963   4.714 -33.555  1.00  0.00    -0.060 A 
HETATM   26  C   UNL     1      -2.192   5.167 -34.760  1.00  0.00     0.048 C 
HETATM   27  C   UNL     1      -2.645   3.497 -32.939  1.00  0.00     0.007 A 
HETATM   28  C   UNL     1      -3.333   3.080 -31.800  1.00  0.00     0.003 A 
HETATM   29  C   UNL     1      -4.338   3.878 -31.258  1.00  0.00     0.030 A 
ENDBRANCH   1  23
BRANCH   5  30
HETATM   30  C   UNL     1      -4.499   6.816 -29.126  1.00  0.00     0.040 A 
HETATM   31  C   UNL     1      -3.126   7.166 -29.323  1.00  0.00     0.006 A 
HETATM   32  C   UNL     1      -2.502   7.102 -28.075  1.00  0.00     0.043 A 
HETATM   33  C   UNL     1      -2.339   7.513 -30.443  1.00  0.00     0.015 A 
HETATM   34  C   UNL     1      -1.139   7.364 -27.891  1.00  0.00     0.030 A 
HETATM   35  N   UNL     1      -3.465   6.755 -27.157  1.00  0.00    -0.364 N 
HETATM   36  C   UNL     1      -0.385   7.702 -29.019  1.00  0.00     0.002 A 
HETATM   37  C   UNL     1      -0.975   7.776 -30.277  1.00  0.00     0.001 A 
HETATM   38  H   UNL     1      -3.299   6.653 -26.165  1.00  0.00     0.165 HD
HETATM   39  C   UNL     1      -4.676   6.589 -27.778  1.00  0.00     0.104 A 
ENDBRANCH   5  30
TORSDOF 7
ENDMDL
MODEL 9
REMARK VINA RESULT:      -8.7      4.148      8.012
REMARK  7 active torsions:
REMARK  status: ('A' for Active; 'I' for Inactive)
REMARK    1  A    between atoms: C_4  and  N_5 
REMARK    2  A    between atoms: C_6  and  S_7 
REMARK    3  A    between atoms: S_7  and  C_8 
REMARK    4  A    between atoms: C_8  and  C_9 
REMARK       I    between atoms: C_9  and  N_10 
REMARK    5  A    between atoms: N_10  and  C_11 
REMARK    6  A    between atoms: C_14  and  C_15 
REMARK       I    between atoms: C_15  and  N_16 
REMARK    7  A    between atoms: C_23  and  C_24 
ROOT
HETATM    1  N   UNL     1      -5.057   3.287 -31.273  1.00  0.00    -0.271 N 
HETATM    2  C   UNL     1      -6.073   3.866 -30.524  1.00  0.00     0.197 A 
HETATM    3  N   UNL     1      -6.749   2.944 -29.881  1.00  0.00    -0.122 NA
HETATM    4  N   UNL     1      -6.206   1.732 -30.197  1.00  0.00    -0.128 NA
HETATM    5  C   UNL     1      -5.242   1.919 -31.082  1.00  0.00     0.171 A 
ENDROOT
BRANCH   2   6
HETATM    6  S   UNL     1      -6.309   5.570 -30.284  1.00  0.00    -0.080 SA
BRANCH   6   7
HETATM    7  C   UNL     1      -6.384   5.644 -28.466  1.00  0.00     0.185 C 
BRANCH   7   8
HETATM    8  C   UNL     1      -5.280   6.536 -27.917  1.00  0.00     0.231 C 
HETATM    9  N   UNL     1      -4.102   6.469 -28.646  1.00  0.00    -0.327 N 
HETATM   10  H   UNL     1      -4.087   5.786 -29.395  1.00  0.00     0.169 HD
HETATM   11  O   UNL     1      -5.490   7.270 -26.954  1.00  0.00    -0.272 OA
BRANCH   9  12
HETATM   12  C   UNL     1      -2.900   7.167 -28.414  1.00  0.00     0.034 A 
HETATM   13  C   UNL     1      -2.371   8.122 -29.284  1.00  0.00     0.030 A 
HETATM   14  C   UNL     1      -1.173   8.785 -28.976  1.00  0.00     0.019 A 
HETATM   15  C   UNL     1      -0.487   8.491 -27.794  1.00  0.00     0.032 A 
HETATM   16  C   UNL     1      -1.020   7.541 -26.916  1.00  0.00     0.019 A 
HETATM   17  C   UNL     1      -2.215   6.882 -27.227  1.00  0.00     0.030 A 
BRANCH  15  18
HETATM   18  C   UNL     1       0.781   9.168 -27.412  1.00  0.00     0.249 C 
HETATM   19  N   UNL     1       0.695  10.327 -26.692  1.00  0.00    -0.366 N 
HETATM   20  H   UNL     1      -0.163  10.843 -26.570  1.00  0.00     0.159 HD
HETATM   21  H   UNL     1       1.566  10.815 -26.521  1.00  0.00     0.159 HD
HETATM   22  O   UNL     1       1.871   8.726 -27.753  1.00  0.00    -0.268 OA
ENDBRANCH  15  18
ENDBRANCH   9  12
ENDBRANCH   7   8
ENDBRANCH   6   7
ENDBRANCH   2   6
BRANCH   1  23
HETATM   23  C   UNL     1      -3.994   3.935 -31.956  1.00  0.00     0.044 A 
HETATM   24  C   UNL     1      -2.808   4.264 -31.287  1.00  0.00     0.037 A 
HETATM   25  C   UNL     1      -1.760   4.894 -31.973  1.00  0.00    -0.060 A 
HETATM   26  C   UNL     1      -0.474   5.220 -31.273  1.00  0.00     0.048 C 
HETATM   27  C   UNL     1      -1.904   5.170 -33.338  1.00  0.00     0.007 A 
HETATM   28  C   UNL     1      -3.083   4.843 -34.006  1.00  0.00     0.003 A 
HETATM   29  C   UNL     1      -4.128   4.227 -33.320  1.00  0.00     0.030 A 
ENDBRANCH   1  23
BRANCH   5  30
HETATM   30  C   UNL     1      -4.591   0.767 -31.787  1.00  0.00     0.040 A 
HETATM   31  C   UNL     1      -5.223  -0.131 -32.705  1.00  0.00     0.006 A 
HETATM   32  C   UNL     1      -4.248  -1.034 -33.135  1.00  0.00     0.043 A 
HETATM   33  C   UNL     1      -6.537  -0.284 -33.200  1.00  0.00     0.015 A 
HETATM   34  C   UNL     1      -4.519  -2.076 -34.030  1.00  0.00     0.030 A 
HETATM   35  N   UNL     1      -3.068  -0.679 -32.526  1.00  0.00    -0.364 N 
HETATM   36  C   UNL     1      -5.829  -2.204 -34.501  1.00  0.00     0.002 A 
HETATM   37  C   UNL     1      -6.825  -1.322 -34.093  1.00  0.00     0.001 A 
HETATM   38  H   UNL     1      -2.186  -1.150 -32.669  1.00  0.00     0.165 HD
HETATM   39  C   UNL     1      -3.260   0.412 -31.718  1.00  0.00     0.104 A 
ENDBRANCH   5  30
TORSDOF 7
ENDMDL
MODEL 10
REMARK VINA RESULT:      -8.6      2.328      5.089
REMARK  7 active torsions:
REMARK  status: ('A' for Active; 'I' for Inactive)
REMARK    1  A    between atoms: C_4  and  N_5 
REMARK    2  A    between atoms: C_6  and  S_7 
REMARK    3  A    between atoms: S_7  and  C_8 
REMARK    4  A    between atoms: C_8  and  C_9 
REMARK       I    between atoms: C_9  and  N_10 
REMARK    5  A    between atoms: N_10  and  C_11 
REMARK    6  A    between atoms: C_14  and  C_15 
REMARK       I    between atoms: C_15  and  N_16 
REMARK    7  A    between atoms: C_23  and  C_24 
ROOT
HETATM    1  N   UNL     1      -4.959   2.411 -31.475  1.00  0.00    -0.271 N 
HETATM    2  C   UNL     1      -4.637   1.065 -31.371  1.00  0.00     0.197 A 
HETATM    3  N   UNL     1      -5.325   0.505 -30.404  1.00  0.00    -0.122 NA
HETATM    4  N   UNL     1      -6.110   1.468 -29.839  1.00  0.00    -0.128 NA
HETATM    5  C   UNL     1      -5.847   2.624 -30.423  1.00  0.00     0.171 A 
ENDROOT
BRANCH   2   6
HETATM    6  S   UNL     1      -3.633   0.174 -32.474  1.00  0.00    -0.080 SA
BRANCH   6   7
HETATM    7  C   UNL     1      -4.762  -1.179 -32.932  1.00  0.00     0.185 C 
BRANCH   7   8
HETATM    8  C   UNL     1      -5.995  -0.636 -33.642  1.00  0.00     0.231 C 
HETATM    9  N   UNL     1      -6.948  -0.122 -32.776  1.00  0.00    -0.327 N 
HETATM   10  H   UNL     1      -6.755  -0.241 -31.788  1.00  0.00     0.169 HD
HETATM   11  O   UNL     1      -6.055  -0.623 -34.868  1.00  0.00    -0.272 OA
BRANCH   9  12
HETATM   12  C   UNL     1      -8.189   0.460 -33.102  1.00  0.00     0.034 A 
HETATM   13  C   UNL     1      -8.331   1.684 -33.759  1.00  0.00     0.030 A 
HETATM   14  C   UNL     1      -9.603   2.192 -34.061  1.00  0.00     0.019 A 
HETATM   15  C   UNL     1     -10.751   1.481 -33.699  1.00  0.00     0.032 A 
HETATM   16  C   UNL     1     -10.612   0.249 -33.048  1.00  0.00     0.019 A 
HETATM   17  C   UNL     1      -9.341  -0.253 -32.749  1.00  0.00     0.030 A 
BRANCH  15  18
HETATM   18  C   UNL     1     -12.125   1.966 -34.001  1.00  0.00     0.249 C 
HETATM   19  N   UNL     1     -13.029   2.004 -32.976  1.00  0.00    -0.366 N 
HETATM   20  H   UNL     1     -12.879   1.552 -32.086  1.00  0.00     0.159 HD
HETATM   21  H   UNL     1     -13.978   2.252 -33.224  1.00  0.00     0.159 HD
HETATM   22  O   UNL     1     -12.454   2.294 -35.134  1.00  0.00    -0.268 OA
ENDBRANCH  15  18
ENDBRANCH   9  12
ENDBRANCH   7   8
ENDBRANCH   6   7
ENDBRANCH   2   6
BRANCH   1  23
HETATM   23  C   UNL     1      -4.585   3.324 -32.498  1.00  0.00     0.044 A 
HETATM   24  C   UNL     1      -3.273   3.807 -32.581  1.00  0.00     0.037 A 
HETATM   25  C   UNL     1      -2.911   4.698 -33.601  1.00  0.00    -0.060 A 
HETATM   26  C   UNL     1      -1.500   5.196 -33.719  1.00  0.00     0.048 C 
HETATM   27  C   UNL     1      -3.869   5.082 -34.547  1.00  0.00     0.007 A 
HETATM   28  C   UNL     1      -5.175   4.601 -34.467  1.00  0.00     0.003 A 
HETATM   29  C   UNL     1      -5.536   3.724 -33.446  1.00  0.00     0.030 A 
ENDBRANCH   1  23
BRANCH   5  30
HETATM   30  C   UNL     1      -6.389   3.915 -29.887  1.00  0.00     0.040 A 
HETATM   31  C   UNL     1      -7.707   4.433 -30.097  1.00  0.00     0.006 A 
HETATM   32  C   UNL     1      -7.789   5.644 -29.405  1.00  0.00     0.043 A 
HETATM   33  C   UNL     1      -8.837   4.006 -30.827  1.00  0.00     0.015 A 
HETATM   34  C   UNL     1      -8.937   6.444 -29.407  1.00  0.00     0.030 A 
HETATM   35  N   UNL     1      -6.580   5.836 -28.778  1.00  0.00    -0.364 N 
HETATM   36  C   UNL     1     -10.040   5.996 -30.140  1.00  0.00     0.002 A 
HETATM   37  C   UNL     1      -9.993   4.795 -30.840  1.00  0.00     0.001 A 
HETATM   38  H   UNL     1      -6.362   6.626 -28.188  1.00  0.00     0.165 HD
HETATM   39  C   UNL     1      -5.731   4.795 -29.054  1.00  0.00     0.104 A 
ENDBRANCH   5  30
TORSDOF 7
ENDMDL
