MODEL 1
REMARK VINA RESULT:      -7.3      0.000      0.000
REMARK  9 active torsions:
REMARK  status: ('A' for Active; 'I' for Inactive)
REMARK       I    between atoms: N_2  and  C_3 
REMARK    1  A    between atoms: C_3  and  C_4 
REMARK    2  A    between atoms: C_7  and  N_8 
REMARK       I    between atoms: N_8  and  C_9 
REMARK    3  A    between atoms: C_9  and  C_10 
REMARK    4  A    between atoms: C_10  and  O_11 
REMARK    5  A    between atoms: O_11  and  C_12 
REMARK    6  A    between atoms: C_12  and  C_13 
REMARK    7  A    between atoms: C_14  and  N_15 
REMARK    8  A    between atoms: N_15  and  C_16 
REMARK    9  A    between atoms: C_16  and  C_17 
ROOT
HETATM    1  O   UNL     1      -3.704  -0.870 -33.409  1.00  0.00    -0.308 OA
ENDROOT
BRANCH   1   2
HETATM    2  C   UNL     1      -2.849  -0.003 -32.656  1.00  0.00     0.282 C 
BRANCH   2   3
HETATM    3  C   UNL     1      -3.602   1.240 -32.171  1.00  0.00     0.246 C 
HETATM    4  N   UNL     1      -4.927   1.258 -32.575  1.00  0.00    -0.325 N 
HETATM    5  H   UNL     1      -5.206   0.529 -33.232  1.00  0.00     0.169 HD
HETATM    6  O   UNL     1      -3.038   2.093 -31.492  1.00  0.00    -0.271 OA
BRANCH   4   7
HETATM    7  C   UNL     1      -5.948   2.125 -32.145  1.00  0.00     0.034 A 
HETATM    8  C   UNL     1      -6.696   1.933 -30.979  1.00  0.00     0.030 A 
HETATM    9  C   UNL     1      -7.724   2.819 -30.642  1.00  0.00     0.019 A 
HETATM   10  C   UNL     1      -7.999   3.913 -31.468  1.00  0.00     0.032 A 
HETATM   11  C   UNL     1      -7.277   4.101 -32.646  1.00  0.00     0.019 A 
HETATM   12  C   UNL     1      -6.247   3.214 -32.975  1.00  0.00     0.030 A 
BRANCH  10  13
HETATM   13  C   UNL     1      -9.105   4.843 -31.149  1.00  0.00     0.253 C 
HETATM   14  N   UNL     1      -8.852   5.925 -30.309  1.00  0.00    -0.357 N 
HETATM   15  C   UNL     1      -9.973   6.739 -29.868  1.00  0.00     0.152 C 
HETATM   16  C   UNL     1      -7.527   6.412 -29.952  1.00  0.00     0.152 C 
HETATM   17  O   UNL     1     -10.205   4.603 -31.642  1.00  0.00    -0.267 OA
ENDBRANCH  10  13
ENDBRANCH   4   7
ENDBRANCH   2   3
ENDBRANCH   1   2
BRANCH   1  18
HETATM   18  C   UNL     1      -3.865  -2.114 -32.896  1.00  0.00     0.295 C 
HETATM   19  O   UNL     1      -3.309  -2.555 -31.901  1.00  0.00    -0.259 OA
BRANCH  18  20
HETATM   20  C   UNL     1      -4.752  -2.912 -33.766  1.00  0.00     0.060 A 
HETATM   21  C   UNL     1      -6.010  -2.408 -34.162  1.00  0.00     0.025 A 
HETATM   22  C   UNL     1      -6.792  -3.242 -34.979  1.00  0.00     0.024 A 
HETATM   23  C   UNL     1      -6.381  -4.537 -35.319  1.00  0.00     0.002 A 
HETATM   24  C   UNL     1      -5.156  -5.025 -34.879  1.00  0.00     0.001 A 
HETATM   25  C   UNL     1      -4.335  -4.212 -34.108  1.00  0.00     0.019 A 
BRANCH  21  26
HETATM   26  N   UNL     1      -6.372  -1.081 -33.878  1.00  0.00    -0.286 NA
HETATM   27  H   UNL     1      -6.689  -0.979 -32.911  1.00  0.00     0.128 HD
BRANCH  26  28
HETATM   28  C   UNL     1      -7.221  -0.325 -34.798  1.00  0.00     0.157 C 
BRANCH  28  29
HETATM   29  C   UNL     1      -8.402   0.314 -34.146  1.00  0.00     0.065 A 
HETATM   30  O   UNL     1      -8.855   1.475 -34.702  1.00  0.00    -0.326 OA
HETATM   31  C   UNL     1      -9.902   1.896 -33.946  1.00  0.00     0.142 A 
HETATM   32  C   UNL     1     -10.128   1.024 -32.909  1.00  0.00     0.027 A 
HETATM   33  C   UNL     1      -9.160   0.000 -33.035  1.00  0.00     0.036 A 
ENDBRANCH  28  29
ENDBRANCH  26  28
ENDBRANCH  21  26
ENDBRANCH  18  20
ENDBRANCH   1  18
TORSDOF 9
ENDMDL
MODEL 2
REMARK VINA RESULT:      -7.3      4.139      8.995
REMARK  9 active torsions:
REMARK  status: ('A' for Active; 'I' for Inactive)
REMARK       I    between atoms: N_2  and  C_3 
REMARK    1  A    between atoms: C_3  and  C_4 
REMARK    2  A    between atoms: C_7  and  N_8 
REMARK       I    between atoms: N_8  and  C_9 
REMARK    3  A    between atoms: C_9  and  C_10 
REMARK    4  A    between atoms: C_10  and  O_11 
REMARK    5  A    between atoms: O_11  and  C_12 
REMARK    6  A    between atoms: C_12  and  C_13 
REMARK    7  A    between atoms: C_14  and  N_15 
REMARK    8  A    between atoms: N_15  and  C_16 
REMARK    9  A    between atoms: C_16  and  C_17 
ROOT
HETATM    1  O   UNL     1      -5.842   5.606 -31.888  1.00  0.00    -0.308 OA
ENDROOT
BRANCH   1   2
HETATM    2  C   UNL     1      -6.604   4.867 -30.927  1.00  0.00     0.282 C 
BRANCH   2   3
HETATM    3  C   UNL     1      -5.987   3.489 -30.666  1.00  0.00     0.246 C 
HETATM    4  N   UNL     1      -5.994   2.675 -31.786  1.00  0.00    -0.325 N 
HETATM    5  H   UNL     1      -6.505   3.029 -32.595  1.00  0.00     0.169 HD
HETATM    6  O   UNL     1      -5.543   3.198 -29.559  1.00  0.00    -0.271 OA
BRANCH   4   7
HETATM    7  C   UNL     1      -5.333   1.445 -31.963  1.00  0.00     0.034 A 
HETATM    8  C   UNL     1      -4.028   1.323 -32.450  1.00  0.00     0.030 A 
HETATM    9  C   UNL     1      -3.456   0.060 -32.635  1.00  0.00     0.019 A 
HETATM   10  C   UNL     1      -4.188  -1.089 -32.321  1.00  0.00     0.032 A 
HETATM   11  C   UNL     1      -5.500  -0.980 -31.859  1.00  0.00     0.019 A 
HETATM   12  C   UNL     1      -6.064   0.285 -31.671  1.00  0.00     0.030 A 
BRANCH  10  13
HETATM   13  C   UNL     1      -3.616  -2.435 -32.543  1.00  0.00     0.253 C 
HETATM   14  N   UNL     1      -4.081  -3.197 -33.612  1.00  0.00    -0.357 N 
HETATM   15  C   UNL     1      -3.637  -4.575 -33.729  1.00  0.00     0.152 C 
HETATM   16  C   UNL     1      -4.865  -2.679 -34.725  1.00  0.00     0.152 C 
HETATM   17  O   UNL     1      -2.753  -2.818 -31.756  1.00  0.00    -0.267 OA
ENDBRANCH  10  13
ENDBRANCH   4   7
ENDBRANCH   2   3
ENDBRANCH   1   2
BRANCH   1  18
HETATM   18  C   UNL     1      -4.583   5.929 -31.507  1.00  0.00     0.295 C 
HETATM   19  O   UNL     1      -4.274   6.498 -30.471  1.00  0.00    -0.259 OA
BRANCH  18  20
HETATM   20  C   UNL     1      -3.622   5.575 -32.570  1.00  0.00     0.060 A 
HETATM   21  C   UNL     1      -2.284   5.256 -32.250  1.00  0.00     0.025 A 
HETATM   22  C   UNL     1      -1.437   4.944 -33.326  1.00  0.00     0.024 A 
HETATM   23  C   UNL     1      -1.874   5.020 -34.655  1.00  0.00     0.002 A 
HETATM   24  C   UNL     1      -3.186   5.380 -34.945  1.00  0.00     0.001 A 
HETATM   25  C   UNL     1      -4.064   5.651 -33.904  1.00  0.00     0.019 A 
BRANCH  21  26
HETATM   26  N   UNL     1      -1.885   5.107 -30.911  1.00  0.00    -0.286 NA
HETATM   27  H   UNL     1      -2.337   5.798 -30.308  1.00  0.00     0.128 HD
BRANCH  26  28
HETATM   28  C   UNL     1      -0.472   4.945 -30.567  1.00  0.00     0.157 C 
BRANCH  28  29
HETATM   29  C   UNL     1       0.059   6.013 -29.670  1.00  0.00     0.065 A 
HETATM   30  O   UNL     1       0.359   5.645 -28.390  1.00  0.00    -0.326 OA
HETATM   31  C   UNL     1       0.792   6.760 -27.747  1.00  0.00     0.142 A 
HETATM   32  C   UNL     1       0.774   7.842 -28.595  1.00  0.00     0.027 A 
HETATM   33  C   UNL     1       0.300   7.363 -29.838  1.00  0.00     0.036 A 
ENDBRANCH  28  29
ENDBRANCH  26  28
ENDBRANCH  21  26
ENDBRANCH  18  20
ENDBRANCH   1  18
TORSDOF 9
ENDMDL
MODEL 3
REMARK VINA RESULT:      -7.1      4.751      9.369
REMARK  9 active torsions:
REMARK  status: ('A' for Active; 'I' for Inactive)
REMARK       I    between atoms: N_2  and  C_3 
REMARK    1  A    between atoms: C_3  and  C_4 
REMARK    2  A    between atoms: C_7  and  N_8 
REMARK       I    between atoms: N_8  and  C_9 
REMARK    3  A    between atoms: C_9  and  C_10 
REMARK    4  A    between atoms: C_10  and  O_11 
REMARK    5  A    between atoms: O_11  and  C_12 
REMARK    6  A    between atoms: C_12  and  C_13 
REMARK    7  A    between atoms: C_14  and  N_15 
REMARK    8  A    between atoms: N_15  and  C_16 
REMARK    9  A    between atoms: C_16  and  C_17 
ROOT
HETATM    1  O   UNL     1      -3.614   6.752 -29.082  1.00  0.00    -0.308 OA
ENDROOT
BRANCH   1   2
HETATM    2  C   UNL     1      -4.851   6.449 -29.737  1.00  0.00     0.282 C 
BRANCH   2   3
HETATM    3  C   UNL     1      -4.673   5.345 -30.783  1.00  0.00     0.246 C 
HETATM    4  N   UNL     1      -4.443   4.101 -30.220  1.00  0.00    -0.325 N 
HETATM    5  H   UNL     1      -4.299   4.085 -29.210  1.00  0.00     0.169 HD
HETATM    6  O   UNL     1      -4.744   5.598 -31.983  1.00  0.00    -0.271 OA
BRANCH   4   7
HETATM    7  C   UNL     1      -4.442   2.850 -30.864  1.00  0.00     0.034 A 
HETATM    8  C   UNL     1      -3.427   2.412 -31.720  1.00  0.00     0.030 A 
HETATM    9  C   UNL     1      -3.520   1.169 -32.353  1.00  0.00     0.019 A 
HETATM   10  C   UNL     1      -4.631   0.351 -32.121  1.00  0.00     0.032 A 
HETATM   11  C   UNL     1      -5.661   0.787 -31.289  1.00  0.00     0.019 A 
HETATM   12  C   UNL     1      -5.559   2.029 -30.655  1.00  0.00     0.030 A 
BRANCH  10  13
HETATM   13  C   UNL     1      -4.767  -0.952 -32.808  1.00  0.00     0.253 C 
HETATM   14  N   UNL     1      -5.698  -1.077 -33.836  1.00  0.00    -0.357 N 
HETATM   15  C   UNL     1      -5.943  -2.396 -34.395  1.00  0.00     0.152 C 
HETATM   16  C   UNL     1      -6.345   0.037 -34.514  1.00  0.00     0.152 C 
HETATM   17  O   UNL     1      -4.046  -1.871 -32.424  1.00  0.00    -0.267 OA
ENDBRANCH  10  13
ENDBRANCH   4   7
ENDBRANCH   2   3
ENDBRANCH   1   2
BRANCH   1  18
HETATM   18  C   UNL     1      -2.887   7.747 -29.645  1.00  0.00     0.295 C 
HETATM   19  O   UNL     1      -3.273   8.505 -30.523  1.00  0.00    -0.259 OA
BRANCH  18  20
HETATM   20  C   UNL     1      -1.511   7.739 -29.110  1.00  0.00     0.060 A 
HETATM   21  C   UNL     1      -0.690   6.600 -29.264  1.00  0.00     0.025 A 
HETATM   22  C   UNL     1       0.600   6.677 -28.713  1.00  0.00     0.024 A 
HETATM   23  C   UNL     1       1.024   7.794 -27.981  1.00  0.00     0.002 A 
HETATM   24  C   UNL     1       0.179   8.884 -27.807  1.00  0.00     0.001 A 
HETATM   25  C   UNL     1      -1.087   8.862 -28.377  1.00  0.00     0.019 A 
BRANCH  21  26
HETATM   26  N   UNL     1      -1.101   5.523 -30.067  1.00  0.00    -0.286 NA
HETATM   27  H   UNL     1      -1.279   4.686 -29.506  1.00  0.00     0.128 HD
BRANCH  26  28
HETATM   28  C   UNL     1      -0.386   5.195 -31.300  1.00  0.00     0.157 C 
BRANCH  28  29
HETATM   29  C   UNL     1      -1.088   5.633 -32.542  1.00  0.00     0.065 A 
HETATM   30  O   UNL     1      -1.240   6.979 -32.716  1.00  0.00    -0.326 OA
HETATM   31  C   UNL     1      -1.921   7.154 -33.878  1.00  0.00     0.142 A 
HETATM   32  C   UNL     1      -2.212   5.941 -34.454  1.00  0.00     0.027 A 
HETATM   33  C   UNL     1      -1.675   4.956 -33.592  1.00  0.00     0.036 A 
ENDBRANCH  28  29
ENDBRANCH  26  28
ENDBRANCH  21  26
ENDBRANCH  18  20
ENDBRANCH   1  18
TORSDOF 9
ENDMDL
MODEL 4
REMARK VINA RESULT:      -7.0      5.156      9.788
REMARK  9 active torsions:
REMARK  status: ('A' for Active; 'I' for Inactive)
REMARK       I    between atoms: N_2  and  C_3 
REMARK    1  A    between atoms: C_3  and  C_4 
REMARK    2  A    between atoms: C_7  and  N_8 
REMARK       I    between atoms: N_8  and  C_9 
REMARK    3  A    between atoms: C_9  and  C_10 
REMARK    4  A    between atoms: C_10  and  O_11 
REMARK    5  A    between atoms: O_11  and  C_12 
REMARK    6  A    between atoms: C_12  and  C_13 
REMARK    7  A    between atoms: C_14  and  N_15 
REMARK    8  A    between atoms: N_15  and  C_16 
REMARK    9  A    between atoms: C_16  and  C_17 
ROOT
HETATM    1  O   UNL     1      -4.504   6.883 -29.839  1.00  0.00    -0.308 OA
ENDROOT
BRANCH   1   2
HETATM    2  C   UNL     1      -5.126   5.654 -29.449  1.00  0.00     0.282 C 
BRANCH   2   3
HETATM    3  C   UNL     1      -5.049   4.610 -30.567  1.00  0.00     0.246 C 
HETATM    4  N   UNL     1      -4.709   3.350 -30.104  1.00  0.00    -0.325 N 
HETATM    5  H   UNL     1      -4.436   3.290 -29.123  1.00  0.00     0.169 HD
HETATM    6  O   UNL     1      -5.281   4.917 -31.732  1.00  0.00    -0.271 OA
BRANCH   4   7
HETATM    7  C   UNL     1      -4.751   2.132 -30.808  1.00  0.00     0.034 A 
HETATM    8  C   UNL     1      -5.706   1.135 -30.589  1.00  0.00     0.030 A 
HETATM    9  C   UNL     1      -5.655  -0.067 -31.303  1.00  0.00     0.019 A 
HETATM   10  C   UNL     1      -4.648  -0.270 -32.253  1.00  0.00     0.032 A 
HETATM   11  C   UNL     1      -3.676   0.707 -32.462  1.00  0.00     0.019 A 
HETATM   12  C   UNL     1      -3.736   1.908 -31.749  1.00  0.00     0.030 A 
BRANCH  10  13
HETATM   13  C   UNL     1      -4.554  -1.546 -32.994  1.00  0.00     0.253 C 
HETATM   14  N   UNL     1      -5.455  -1.793 -34.028  1.00  0.00    -0.357 N 
HETATM   15  C   UNL     1      -5.464  -3.109 -34.642  1.00  0.00     0.152 C 
HETATM   16  C   UNL     1      -6.294  -0.784 -34.659  1.00  0.00     0.152 C 
HETATM   17  O   UNL     1      -3.679  -2.337 -32.647  1.00  0.00    -0.267 OA
ENDBRANCH  10  13
ENDBRANCH   4   7
ENDBRANCH   2   3
ENDBRANCH   1   2
BRANCH   1  18
HETATM   18  C   UNL     1      -3.214   7.030 -29.452  1.00  0.00     0.295 C 
HETATM   19  O   UNL     1      -2.830   7.248 -28.312  1.00  0.00    -0.259 OA
BRANCH  18  20
HETATM   20  C   UNL     1      -2.320   6.978 -30.626  1.00  0.00     0.060 A 
HETATM   21  C   UNL     1      -1.084   6.298 -30.556  1.00  0.00     0.025 A 
HETATM   22  C   UNL     1      -0.294   6.312 -31.717  1.00  0.00     0.024 A 
HETATM   23  C   UNL     1      -0.673   7.027 -32.860  1.00  0.00     0.002 A 
HETATM   24  C   UNL     1      -1.876   7.725 -32.887  1.00  0.00     0.001 A 
HETATM   25  C   UNL     1      -2.705   7.696 -31.773  1.00  0.00     0.019 A 
BRANCH  21  26
HETATM   26  N   UNL     1      -0.756   5.522 -29.432  1.00  0.00    -0.286 NA
HETATM   27  H   UNL     1      -1.503   5.543 -28.734  1.00  0.00     0.128 HD
BRANCH  26  28
HETATM   28  C   UNL     1       0.561   5.635 -28.806  1.00  0.00     0.157 C 
BRANCH  28  29
HETATM   29  C   UNL     1       0.742   6.876 -27.997  1.00  0.00     0.065 A 
HETATM   30  O   UNL     1       0.361   6.814 -26.687  1.00  0.00    -0.326 OA
HETATM   31  C   UNL     1       0.580   8.042 -26.151  1.00  0.00     0.142 A 
HETATM   32  C   UNL     1       1.096   8.895 -27.097  1.00  0.00     0.027 A 
HETATM   33  C   UNL     1       1.201   8.144 -28.291  1.00  0.00     0.036 A 
ENDBRANCH  28  29
ENDBRANCH  26  28
ENDBRANCH  21  26
ENDBRANCH  18  20
ENDBRANCH   1  18
TORSDOF 9
ENDMDL
MODEL 5
REMARK VINA RESULT:      -6.9      3.096      8.567
REMARK  9 active torsions:
REMARK  status: ('A' for Active; 'I' for Inactive)
REMARK       I    between atoms: N_2  and  C_3 
REMARK    1  A    between atoms: C_3  and  C_4 
REMARK    2  A    between atoms: C_7  and  N_8 
REMARK       I    between atoms: N_8  and  C_9 
REMARK    3  A    between atoms: C_9  and  C_10 
REMARK    4  A    between atoms: C_10  and  O_11 
REMARK    5  A    between atoms: O_11  and  C_12 
REMARK    6  A    between atoms: C_12  and  C_13 
REMARK    7  A    between atoms: C_14  and  N_15 
REMARK    8  A    between atoms: N_15  and  C_16 
REMARK    9  A    between atoms: C_16  and  C_17 
ROOT
HETATM    1  O   UNL     1     -12.093   3.083 -33.874  1.00  0.00    -0.308 OA
ENDROOT
BRANCH   1   2
HETATM    2  C   UNL     1     -12.642   1.811 -33.513  1.00  0.00     0.282 C 
BRANCH   2   3
HETATM    3  C   UNL     1     -11.573   0.714 -33.540  1.00  0.00     0.246 C 
HETATM    4  N   UNL     1     -10.327   1.186 -33.916  1.00  0.00    -0.325 N 
HETATM    5  H   UNL     1     -10.292   2.153 -34.243  1.00  0.00     0.169 HD
HETATM    6  O   UNL     1     -11.851  -0.443 -33.242  1.00  0.00    -0.271 OA
BRANCH   4   7
HETATM    7  C   UNL     1      -9.092   0.514 -33.849  1.00  0.00     0.034 A 
HETATM    8  C   UNL     1      -8.504   0.077 -32.658  1.00  0.00     0.030 A 
HETATM    9  C   UNL     1      -7.254  -0.549 -32.672  1.00  0.00     0.019 A 
HETATM   10  C   UNL     1      -6.590  -0.752 -33.886  1.00  0.00     0.032 A 
HETATM   11  C   UNL     1      -7.155  -0.298 -35.078  1.00  0.00     0.019 A 
HETATM   12  C   UNL     1      -8.408   0.322 -35.057  1.00  0.00     0.030 A 
BRANCH  10  13
HETATM   13  C   UNL     1      -5.251  -1.380 -33.920  1.00  0.00     0.253 C 
HETATM   14  N   UNL     1      -5.151  -2.736 -34.220  1.00  0.00    -0.357 N 
HETATM   15  C   UNL     1      -3.856  -3.382 -34.093  1.00  0.00     0.152 C 
HETATM   16  C   UNL     1      -6.215  -3.540 -34.807  1.00  0.00     0.152 C 
HETATM   17  O   UNL     1      -4.285  -0.662 -33.671  1.00  0.00    -0.267 OA
ENDBRANCH  10  13
ENDBRANCH   4   7
ENDBRANCH   2   3
ENDBRANCH   1   2
BRANCH   1  18
HETATM   18  C   UNL     1     -12.361   3.494 -35.137  1.00  0.00     0.295 C 
HETATM   19  O   UNL     1     -12.825   2.801 -36.031  1.00  0.00    -0.259 OA
BRANCH  18  20
HETATM   20  C   UNL     1     -11.929   4.894 -35.321  1.00  0.00     0.060 A 
HETATM   21  C   UNL     1     -10.624   5.294 -34.959  1.00  0.00     0.025 A 
HETATM   22  C   UNL     1     -10.304   6.647 -35.157  1.00  0.00     0.024 A 
HETATM   23  C   UNL     1     -11.253   7.570 -35.617  1.00  0.00     0.002 A 
HETATM   24  C   UNL     1     -12.545   7.157 -35.924  1.00  0.00     0.001 A 
HETATM   25  C   UNL     1     -12.884   5.818 -35.784  1.00  0.00     0.019 A 
BRANCH  21  26
HETATM   26  N   UNL     1      -9.664   4.343 -34.575  1.00  0.00    -0.286 NA
HETATM   27  H   UNL     1     -10.028   3.390 -34.659  1.00  0.00     0.128 HD
BRANCH  26  28
HETATM   28  C   UNL     1      -8.896   4.512 -33.341  1.00  0.00     0.157 C 
BRANCH  28  29
HETATM   29  C   UNL     1      -7.444   4.199 -33.484  1.00  0.00     0.065 A 
HETATM   30  O   UNL     1      -6.687   5.103 -34.173  1.00  0.00    -0.326 OA
HETATM   31  C   UNL     1      -5.421   4.615 -34.210  1.00  0.00     0.142 A 
HETATM   32  C   UNL     1      -5.350   3.409 -33.555  1.00  0.00     0.027 A 
HETATM   33  C   UNL     1      -6.657   3.137 -33.086  1.00  0.00     0.036 A 
ENDBRANCH  28  29
ENDBRANCH  26  28
ENDBRANCH  21  26
ENDBRANCH  18  20
ENDBRANCH   1  18
TORSDOF 9
ENDMDL
MODEL 6
REMARK VINA RESULT:      -6.9      2.841      5.523
REMARK  9 active torsions:
REMARK  status: ('A' for Active; 'I' for Inactive)
REMARK       I    between atoms: N_2  and  C_3 
REMARK    1  A    between atoms: C_3  and  C_4 
REMARK    2  A    between atoms: C_7  and  N_8 
REMARK       I    between atoms: N_8  and  C_9 
REMARK    3  A    between atoms: C_9  and  C_10 
REMARK    4  A    between atoms: C_10  and  O_11 
REMARK    5  A    between atoms: O_11  and  C_12 
REMARK    6  A    between atoms: C_12  and  C_13 
REMARK    7  A    between atoms: C_14  and  N_15 
REMARK    8  A    between atoms: N_15  and  C_16 
REMARK    9  A    between atoms: C_16  and  C_17 
ROOT
HETATM    1  O   UNL     1      -8.932   1.278 -34.334  1.00  0.00    -0.308 OA
ENDROOT
BRANCH   1   2
HETATM    2  C   UNL     1      -9.507   2.504 -33.869  1.00  0.00     0.282 C 
BRANCH   2   3
HETATM    3  C   UNL     1      -8.426   3.523 -33.497  1.00  0.00     0.246 C 
HETATM    4  N   UNL     1      -7.154   2.976 -33.480  1.00  0.00    -0.325 N 
HETATM    5  H   UNL     1      -7.099   1.963 -33.591  1.00  0.00     0.169 HD
HETATM    6  O   UNL     1      -8.717   4.691 -33.256  1.00  0.00    -0.271 OA
BRANCH   4   7
HETATM    7  C   UNL     1      -5.924   3.654 -33.387  1.00  0.00     0.034 A 
HETATM    8  C   UNL     1      -5.742   4.994 -33.741  1.00  0.00     0.030 A 
HETATM    9  C   UNL     1      -4.476   5.584 -33.658  1.00  0.00     0.019 A 
HETATM   10  C   UNL     1      -3.386   4.833 -33.207  1.00  0.00     0.032 A 
HETATM   11  C   UNL     1      -3.551   3.489 -32.875  1.00  0.00     0.019 A 
HETATM   12  C   UNL     1      -4.819   2.906 -32.955  1.00  0.00     0.030 A 
BRANCH  10  13
HETATM   13  C   UNL     1      -2.033   5.427 -33.145  1.00  0.00     0.253 C 
HETATM   14  N   UNL     1      -1.673   6.166 -32.021  1.00  0.00    -0.357 N 
HETATM   15  C   UNL     1      -0.408   6.881 -32.036  1.00  0.00     0.152 C 
HETATM   16  C   UNL     1      -2.392   6.161 -30.755  1.00  0.00     0.152 C 
HETATM   17  O   UNL     1      -1.290   5.239 -34.107  1.00  0.00    -0.267 OA
ENDBRANCH  10  13
ENDBRANCH   4   7
ENDBRANCH   2   3
ENDBRANCH   1   2
BRANCH   1  18
HETATM   18  C   UNL     1      -8.966   0.250 -33.453  1.00  0.00     0.295 C 
HETATM   19  O   UNL     1      -9.930  -0.084 -32.780  1.00  0.00    -0.259 OA
BRANCH  18  20
HETATM   20  C   UNL     1      -7.632  -0.373 -33.345  1.00  0.00     0.060 A 
HETATM   21  C   UNL     1      -6.828  -0.153 -32.205  1.00  0.00     0.025 A 
HETATM   22  C   UNL     1      -5.569  -0.775 -32.194  1.00  0.00     0.024 A 
HETATM   23  C   UNL     1      -5.101  -1.513 -33.289  1.00  0.00     0.002 A 
HETATM   24  C   UNL     1      -5.896  -1.678 -34.418  1.00  0.00     0.001 A 
HETATM   25  C   UNL     1      -7.165  -1.115 -34.446  1.00  0.00     0.019 A 
BRANCH  21  26
HETATM   26  N   UNL     1      -7.343   0.522 -31.085  1.00  0.00    -0.286 NA
HETATM   27  H   UNL     1      -8.065   1.195 -31.355  1.00  0.00     0.128 HD
BRANCH  26  28
HETATM   28  C   UNL     1      -6.447   1.081 -30.073  1.00  0.00     0.157 C 
BRANCH  28  29
HETATM   29  C   UNL     1      -6.554   2.562 -29.920  1.00  0.00     0.065 A 
HETATM   30  O   UNL     1      -5.388   3.243 -29.721  1.00  0.00    -0.326 OA
HETATM   31  C   UNL     1      -5.713   4.554 -29.579  1.00  0.00     0.142 A 
HETATM   32  C   UNL     1      -7.073   4.727 -29.683  1.00  0.00     0.027 A 
HETATM   33  C   UNL     1      -7.619   3.441 -29.902  1.00  0.00     0.036 A 
ENDBRANCH  28  29
ENDBRANCH  26  28
ENDBRANCH  21  26
ENDBRANCH  18  20
ENDBRANCH   1  18
TORSDOF 9
ENDMDL
MODEL 7
REMARK VINA RESULT:      -6.7      5.296      7.710
REMARK  9 active torsions:
REMARK  status: ('A' for Active; 'I' for Inactive)
REMARK       I    between atoms: N_2  and  C_3 
REMARK    1  A    between atoms: C_3  and  C_4 
REMARK    2  A    between atoms: C_7  and  N_8 
REMARK       I    between atoms: N_8  and  C_9 
REMARK    3  A    between atoms: C_9  and  C_10 
REMARK    4  A    between atoms: C_10  and  O_11 
REMARK    5  A    between atoms: O_11  and  C_12 
REMARK    6  A    between atoms: C_12  and  C_13 
REMARK    7  A    between atoms: C_14  and  N_15 
REMARK    8  A    between atoms: N_15  and  C_16 
REMARK    9  A    between atoms: C_16  and  C_17 
ROOT
HETATM    1  O   UNL     1      -4.348   5.668 -34.320  1.00  0.00    -0.308 OA
ENDROOT
BRANCH   1   2
HETATM    2  C   UNL     1      -2.962   5.760 -34.669  1.00  0.00     0.282 C 
BRANCH   2   3
HETATM    3  C   UNL     1      -2.199   6.660 -33.692  1.00  0.00     0.246 C 
HETATM    4  N   UNL     1      -2.295   6.233 -32.379  1.00  0.00    -0.325 N 
HETATM    5  H   UNL     1      -2.944   5.465 -32.203  1.00  0.00     0.169 HD
HETATM    6  O   UNL     1      -1.580   7.642 -34.094  1.00  0.00    -0.271 OA
BRANCH   4   7
HETATM    7  C   UNL     1      -1.563   6.690 -31.267  1.00  0.00     0.034 A 
HETATM    8  C   UNL     1      -2.007   7.691 -30.397  1.00  0.00     0.030 A 
HETATM    9  C   UNL     1      -1.200   8.118 -29.337  1.00  0.00     0.019 A 
HETATM   10  C   UNL     1       0.054   7.533 -29.137  1.00  0.00     0.032 A 
HETATM   11  C   UNL     1       0.517   6.551 -30.013  1.00  0.00     0.019 A 
HETATM   12  C   UNL     1      -0.296   6.125 -31.067  1.00  0.00     0.030 A 
BRANCH  10  13
HETATM   13  C   UNL     1       0.937   7.993 -28.044  1.00  0.00     0.253 C 
HETATM   14  N   UNL     1       0.732   7.498 -26.758  1.00  0.00    -0.357 N 
HETATM   15  C   UNL     1       1.492   8.074 -25.662  1.00  0.00     0.152 C 
HETATM   16  C   UNL     1      -0.078   6.332 -26.434  1.00  0.00     0.152 C 
HETATM   17  O   UNL     1       1.814   8.806 -28.331  1.00  0.00    -0.267 OA
ENDBRANCH  10  13
ENDBRANCH   4   7
ENDBRANCH   2   3
ENDBRANCH   1   2
BRANCH   1  18
HETATM   18  C   UNL     1      -4.705   4.547 -33.650  1.00  0.00     0.295 C 
HETATM   19  O   UNL     1      -3.939   3.698 -33.216  1.00  0.00    -0.259 OA
BRANCH  18  20
HETATM   20  C   UNL     1      -6.176   4.436 -33.587  1.00  0.00     0.060 A 
HETATM   21  C   UNL     1      -6.812   3.199 -33.830  1.00  0.00     0.025 A 
HETATM   22  C   UNL     1      -8.215   3.190 -33.761  1.00  0.00     0.024 A 
HETATM   23  C   UNL     1      -8.950   4.363 -33.541  1.00  0.00     0.002 A 
HETATM   24  C   UNL     1      -8.300   5.576 -33.349  1.00  0.00     0.001 A 
HETATM   25  C   UNL     1      -6.911   5.615 -33.365  1.00  0.00     0.019 A 
BRANCH  21  26
HETATM   26  N   UNL     1      -6.059   2.021 -33.970  1.00  0.00    -0.286 NA
HETATM   27  H   UNL     1      -6.068   1.686 -34.936  1.00  0.00     0.128 HD
BRANCH  26  28
HETATM   28  C   UNL     1      -6.215   0.918 -33.022  1.00  0.00     0.157 C 
BRANCH  28  29
HETATM   29  C   UNL     1      -6.062  -0.434 -33.637  1.00  0.00     0.065 A 
HETATM   30  O   UNL     1      -4.832  -1.017 -33.532  1.00  0.00    -0.326 OA
HETATM   31  C   UNL     1      -4.903  -2.211 -34.175  1.00  0.00     0.142 A 
HETATM   32  C   UNL     1      -6.160  -2.404 -34.695  1.00  0.00     0.027 A 
HETATM   33  C   UNL     1      -6.911  -1.256 -34.349  1.00  0.00     0.036 A 
ENDBRANCH  28  29
ENDBRANCH  26  28
ENDBRANCH  21  26
ENDBRANCH  18  20
ENDBRANCH   1  18
TORSDOF 9
ENDMDL
MODEL 8
REMARK VINA RESULT:      -6.7      1.659      2.451
REMARK  9 active torsions:
REMARK  status: ('A' for Active; 'I' for Inactive)
REMARK       I    between atoms: N_2  and  C_3 
REMARK    1  A    between atoms: C_3  and  C_4 
REMARK    2  A    between atoms: C_7  and  N_8 
REMARK       I    between atoms: N_8  and  C_9 
REMARK    3  A    between atoms: C_9  and  C_10 
REMARK    4  A    between atoms: C_10  and  O_11 
REMARK    5  A    between atoms: O_11  and  C_12 
REMARK    6  A    between atoms: C_12  and  C_13 
REMARK    7  A    between atoms: C_14  and  N_15 
REMARK    8  A    between atoms: N_15  and  C_16 
REMARK    9  A    between atoms: C_16  and  C_17 
ROOT
HETATM    1  O   UNL     1      -4.898  -0.338 -31.364  1.00  0.00    -0.308 OA
ENDROOT
BRANCH   1   2
HETATM    2  C   UNL     1      -6.020  -0.118 -30.502  1.00  0.00     0.282 C 
BRANCH   2   3
HETATM    3  C   UNL     1      -6.414   1.362 -30.465  1.00  0.00     0.246 C 
HETATM    4  N   UNL     1      -7.530   1.641 -31.236  1.00  0.00    -0.325 N 
HETATM    5  H   UNL     1      -7.875   0.879 -31.819  1.00  0.00     0.169 HD
HETATM    6  O   UNL     1      -5.771   2.167 -29.798  1.00  0.00    -0.271 OA
BRANCH   4   7
HETATM    7  C   UNL     1      -8.280   2.832 -31.268  1.00  0.00     0.034 A 
HETATM    8  C   UNL     1      -7.895   3.979 -31.968  1.00  0.00     0.030 A 
HETATM    9  C   UNL     1      -8.678   5.137 -31.916  1.00  0.00     0.019 A 
HETATM   10  C   UNL     1      -9.860   5.146 -31.169  1.00  0.00     0.032 A 
HETATM   11  C   UNL     1     -10.241   4.016 -30.447  1.00  0.00     0.019 A 
HETATM   12  C   UNL     1      -9.457   2.860 -30.507  1.00  0.00     0.030 A 
BRANCH  10  13
HETATM   13  C   UNL     1     -10.684   6.371 -31.072  1.00  0.00     0.253 C 
HETATM   14  N   UNL     1     -10.512   7.213 -29.976  1.00  0.00    -0.357 N 
HETATM   15  C   UNL     1     -11.433   8.323 -29.801  1.00  0.00     0.152 C 
HETATM   16  C   UNL     1      -9.381   7.168 -29.060  1.00  0.00     0.152 C 
HETATM   17  O   UNL     1     -11.494   6.579 -31.973  1.00  0.00    -0.267 OA
ENDBRANCH  10  13
ENDBRANCH   4   7
ENDBRANCH   2   3
ENDBRANCH   1   2
BRANCH   1  18
HETATM   18  C   UNL     1      -5.086   0.002 -32.661  1.00  0.00     0.295 C 
HETATM   19  O   UNL     1      -5.049   1.137 -33.115  1.00  0.00    -0.259 OA
BRANCH  18  20
HETATM   20  C   UNL     1      -5.437  -1.191 -33.456  1.00  0.00     0.060 A 
HETATM   21  C   UNL     1      -6.782  -1.458 -33.791  1.00  0.00     0.025 A 
HETATM   22  C   UNL     1      -7.024  -2.622 -34.539  1.00  0.00     0.024 A 
HETATM   23  C   UNL     1      -5.995  -3.514 -34.869  1.00  0.00     0.002 A 
HETATM   24  C   UNL     1      -4.685  -3.249 -34.489  1.00  0.00     0.001 A 
HETATM   25  C   UNL     1      -4.401  -2.084 -33.788  1.00  0.00     0.019 A 
BRANCH  21  26
HETATM   26  N   UNL     1      -7.789  -0.516 -33.521  1.00  0.00    -0.286 NA
HETATM   27  H   UNL     1      -8.553  -0.930 -32.982  1.00  0.00     0.128 HD
BRANCH  26  28
HETATM   28  C   UNL     1      -8.298   0.357 -34.579  1.00  0.00     0.157 C 
BRANCH  28  29
HETATM   29  C   UNL     1      -9.529   1.111 -34.202  1.00  0.00     0.065 A 
HETATM   30  O   UNL     1      -9.608   2.406 -34.627  1.00  0.00    -0.326 OA
HETATM   31  C   UNL     1     -10.778   2.909 -34.155  1.00  0.00     0.142 A 
HETATM   32  C   UNL     1     -11.453   1.956 -33.429  1.00  0.00     0.027 A 
HETATM   33  C   UNL     1     -10.647   0.794 -33.457  1.00  0.00     0.036 A 
ENDBRANCH  28  29
ENDBRANCH  26  28
ENDBRANCH  21  26
ENDBRANCH  18  20
ENDBRANCH   1  18
TORSDOF 9
ENDMDL
MODEL 9
REMARK VINA RESULT:      -6.6      3.113      6.039
REMARK  9 active torsions:
REMARK  status: ('A' for Active; 'I' for Inactive)
REMARK       I    between atoms: N_2  and  C_3 
REMARK    1  A    between atoms: C_3  and  C_4 
REMARK    2  A    between atoms: C_7  and  N_8 
REMARK       I    between atoms: N_8  and  C_9 
REMARK    3  A    between atoms: C_9  and  C_10 
REMARK    4  A    between atoms: C_10  and  O_11 
REMARK    5  A    between atoms: O_11  and  C_12 
REMARK    6  A    between atoms: C_12  and  C_13 
REMARK    7  A    between atoms: C_14  and  N_15 
REMARK    8  A    between atoms: N_15  and  C_16 
REMARK    9  A    between atoms: C_16  and  C_17 
ROOT
HETATM    1  O   UNL     1      -7.950   2.212 -34.141  1.00  0.00    -0.308 OA
ENDROOT
BRANCH   1   2
HETATM    2  C   UNL     1      -8.205   3.610 -33.966  1.00  0.00     0.282 C 
BRANCH   2   3
HETATM    3  C   UNL     1      -7.155   4.260 -33.060  1.00  0.00     0.246 C 
HETATM    4  N   UNL     1      -5.880   3.764 -33.273  1.00  0.00    -0.325 N 
HETATM    5  H   UNL     1      -5.808   2.962 -33.899  1.00  0.00     0.169 HD
HETATM    6  O   UNL     1      -7.471   5.129 -32.253  1.00  0.00    -0.271 OA
BRANCH   4   7
HETATM    7  C   UNL     1      -4.664   4.270 -32.776  1.00  0.00     0.034 A 
HETATM    8  C   UNL     1      -4.093   5.478 -33.187  1.00  0.00     0.030 A 
HETATM    9  C   UNL     1      -2.859   5.891 -32.674  1.00  0.00     0.019 A 
HETATM   10  C   UNL     1      -2.195   5.097 -31.735  1.00  0.00     0.032 A 
HETATM   11  C   UNL     1      -2.742   3.877 -31.336  1.00  0.00     0.019 A 
HETATM   12  C   UNL     1      -3.978   3.473 -31.849  1.00  0.00     0.030 A 
BRANCH  10  13
HETATM   13  C   UNL     1      -0.872   5.497 -31.206  1.00  0.00     0.253 C 
HETATM   14  N   UNL     1      -0.808   6.504 -30.247  1.00  0.00    -0.357 N 
HETATM   15  C   UNL     1       0.498   7.005 -29.852  1.00  0.00     0.152 C 
HETATM   16  C   UNL     1      -1.943   6.999 -29.481  1.00  0.00     0.152 C 
HETATM   17  O   UNL     1       0.114   4.916 -31.655  1.00  0.00    -0.267 OA
ENDBRANCH  10  13
ENDBRANCH   4   7
ENDBRANCH   2   3
ENDBRANCH   1   2
BRANCH   1  18
HETATM   18  C   UNL     1      -8.388   1.411 -33.141  1.00  0.00     0.295 C 
HETATM   19  O   UNL     1      -9.556   1.134 -32.907  1.00  0.00    -0.259 OA
BRANCH  18  20
HETATM   20  C   UNL     1      -7.255   0.979 -32.299  1.00  0.00     0.060 A 
HETATM   21  C   UNL     1      -6.263   0.120 -32.820  1.00  0.00     0.025 A 
HETATM   22  C   UNL     1      -5.229  -0.249 -31.944  1.00  0.00     0.024 A 
HETATM   23  C   UNL     1      -5.222   0.150 -30.601  1.00  0.00     0.002 A 
HETATM   24  C   UNL     1      -6.235   0.961 -30.102  1.00  0.00     0.001 A 
HETATM   25  C   UNL     1      -7.250   1.383 -30.951  1.00  0.00     0.019 A 
BRANCH  21  26
HETATM   26  N   UNL     1      -6.243  -0.206 -34.186  1.00  0.00    -0.286 NA
HETATM   27  H   UNL     1      -6.356   0.626 -34.770  1.00  0.00     0.128 HD
BRANCH  26  28
HETATM   28  C   UNL     1      -7.032  -1.326 -34.699  1.00  0.00     0.157 C 
BRANCH  28  29
HETATM   29  C   UNL     1      -6.317  -2.636 -34.666  1.00  0.00     0.065 A 
HETATM   30  O   UNL     1      -4.984  -2.598 -34.375  1.00  0.00    -0.326 OA
HETATM   31  C   UNL     1      -4.529  -3.876 -34.426  1.00  0.00     0.142 A 
HETATM   32  C   UNL     1      -5.550  -4.738 -34.750  1.00  0.00     0.027 A 
HETATM   33  C   UNL     1      -6.707  -3.938 -34.906  1.00  0.00     0.036 A 
ENDBRANCH  28  29
ENDBRANCH  26  28
ENDBRANCH  21  26
ENDBRANCH  18  20
ENDBRANCH   1  18
TORSDOF 9
ENDMDL
MODEL 10
REMARK VINA RESULT:      -6.6      4.542      9.428
REMARK  9 active torsions:
REMARK  status: ('A' for Active; 'I' for Inactive)
REMARK       I    between atoms: N_2  and  C_3 
REMARK    1  A    between atoms: C_3  and  C_4 
REMARK    2  A    between atoms: C_7  and  N_8 
REMARK       I    between atoms: N_8  and  C_9 
REMARK    3  A    between atoms: C_9  and  C_10 
REMARK    4  A    between atoms: C_10  and  O_11 
REMARK    5  A    between atoms: O_11  and  C_12 
REMARK    6  A    between atoms: C_12  and  C_13 
REMARK    7  A    between atoms: C_14  and  N_15 
REMARK    8  A    between atoms: N_15  and  C_16 
REMARK    9  A    between atoms: C_16  and  C_17 
ROOT
HETATM    1  O   UNL     1      -5.501   5.773 -32.098  1.00  0.00    -0.308 OA
ENDROOT
BRANCH   1   2
HETATM    2  C   UNL     1      -6.456   4.708 -32.159  1.00  0.00     0.282 C 
BRANCH   2   3
HETATM    3  C   UNL     1      -5.921   3.525 -32.973  1.00  0.00     0.246 C 
HETATM    4  N   UNL     1      -5.529   2.460 -32.180  1.00  0.00    -0.325 N 
HETATM    5  H   UNL     1      -5.524   2.627 -31.174  1.00  0.00     0.169 HD
HETATM    6  O   UNL     1      -5.876   3.574 -34.199  1.00  0.00    -0.271 OA
BRANCH   4   7
HETATM    7  C   UNL     1      -5.192   1.157 -32.591  1.00  0.00     0.034 A 
HETATM    8  C   UNL     1      -3.886   0.734 -32.858  1.00  0.00     0.030 A 
HETATM    9  C   UNL     1      -3.639  -0.568 -33.302  1.00  0.00     0.019 A 
HETATM   10  C   UNL     1      -4.702  -1.461 -33.471  1.00  0.00     0.032 A 
HETATM   11  C   UNL     1      -6.011  -1.043 -33.232  1.00  0.00     0.019 A 
HETATM   12  C   UNL     1      -6.251   0.259 -32.783  1.00  0.00     0.030 A 
BRANCH  10  13
HETATM   13  C   UNL     1      -4.467  -2.832 -33.973  1.00  0.00     0.253 C 
HETATM   14  N   UNL     1      -3.621  -3.676 -33.257  1.00  0.00    -0.357 N 
HETATM   15  C   UNL     1      -3.265  -4.959 -33.838  1.00  0.00     0.152 C 
HETATM   16  C   UNL     1      -3.180  -3.446 -31.888  1.00  0.00     0.152 C 
HETATM   17  O   UNL     1      -5.032  -3.155 -35.016  1.00  0.00    -0.267 OA
ENDBRANCH  10  13
ENDBRANCH   4   7
ENDBRANCH   2   3
ENDBRANCH   1   2
BRANCH   1  18
HETATM   18  C   UNL     1      -4.340   5.477 -31.467  1.00  0.00     0.295 C 
HETATM   19  O   UNL     1      -4.236   4.896 -30.396  1.00  0.00    -0.259 OA
BRANCH  18  20
HETATM   20  C   UNL     1      -3.196   6.036 -32.214  1.00  0.00     0.060 A 
HETATM   21  C   UNL     1      -2.490   7.152 -31.713  1.00  0.00     0.025 A 
HETATM   22  C   UNL     1      -1.425   7.624 -32.497  1.00  0.00     0.024 A 
HETATM   23  C   UNL     1      -1.125   7.067 -33.747  1.00  0.00     0.002 A 
HETATM   24  C   UNL     1      -1.864   5.997 -34.236  1.00  0.00     0.001 A 
HETATM   25  C   UNL     1      -2.897   5.474 -33.468  1.00  0.00     0.019 A 
BRANCH  21  26
HETATM   26  N   UNL     1      -2.753   7.646 -30.425  1.00  0.00    -0.286 NA
HETATM   27  H   UNL     1      -3.699   8.029 -30.358  1.00  0.00     0.128 HD
BRANCH  26  28
HETATM   28  C   UNL     1      -1.783   8.503 -29.742  1.00  0.00     0.157 C 
BRANCH  28  29
HETATM   29  C   UNL     1      -0.819   7.758 -28.879  1.00  0.00     0.065 A 
HETATM   30  O   UNL     1      -1.355   6.903 -27.959  1.00  0.00    -0.326 OA
HETATM   31  C   UNL     1      -0.319   6.360 -27.271  1.00  0.00     0.142 A 
HETATM   32  C   UNL     1       0.878   6.853 -27.733  1.00  0.00     0.027 A 
HETATM   33  C   UNL     1       0.557   7.758 -28.772  1.00  0.00     0.036 A 
ENDBRANCH  28  29
ENDBRANCH  26  28
ENDBRANCH  21  26
ENDBRANCH  18  20
ENDBRANCH   1  18
TORSDOF 9
ENDMDL
