MODEL 1
REMARK VINA RESULT:      -9.3      0.000      0.000
REMARK  9 active torsions:
REMARK  status: ('A' for Active; 'I' for Inactive)
REMARK    1  A    between atoms: O_2  and  C_3 
REMARK    2  A    between atoms: C_6  and  N_7 
REMARK    3  A    between atoms: N_10  and  C_12 
REMARK    4  A    between atoms: C_12  and  C_13 
REMARK    5  A    between atoms: C_13  and  C_14 
REMARK    6  A    between atoms: C_14  and  N_15 
REMARK       I    between atoms: N_15  and  C_16 
REMARK    7  A    between atoms: C_16  and  C_17 
REMARK    8  A    between atoms: C_17  and  C_18 
REMARK    9  A    between atoms: C_18  and  C_19 
ROOT
HETATM    1  N   UNL     1      -7.669   2.094 -30.996  1.00  0.00    -0.361 N 
HETATM    2  C   UNL     1      -8.848   1.943 -31.697  1.00  0.00     0.217 C 
HETATM    3  O   UNL     1      -9.794   2.720 -31.589  1.00  0.00    -0.274 OA
HETATM    4  H   UNL     1      -7.033   1.304 -30.979  1.00  0.00     0.162 HD
ENDROOT
BRANCH   1   5
HETATM    5  C   UNL     1      -7.596   3.021 -29.886  1.00  0.00     0.124 C 
BRANCH   5   6
HETATM    6  C   UNL     1      -6.427   3.996 -30.019  1.00  0.00     0.047 C 
BRANCH   6   7
HETATM    7  C   UNL     1      -6.524   4.766 -31.329  1.00  0.00     0.236 C 
BRANCH   7   8
HETATM    8  N   UNL     1      -5.148   4.957 -31.931  1.00  0.00    -0.068 N 
HETATM    9  C   UNL     1      -4.768   6.435 -32.116  1.00  0.00     0.254 C 
HETATM   10  C   UNL     1      -3.373   6.551 -32.769  1.00  0.00     0.150 C 
HETATM   11  N   UNL     1      -2.355   5.797 -32.014  1.00  0.00    -0.378 N 
HETATM   12  C   UNL     1      -2.693   4.374 -31.798  1.00  0.00     0.150 C 
HETATM   13  C   UNL     1      -4.068   4.239 -31.110  1.00  0.00     0.254 C 
HETATM   14  H   UNL     1      -5.143   4.524 -32.863  1.00  0.00     0.280 HD
BRANCH  11  15
HETATM   15  C   UNL     1      -1.591   6.422 -31.026  1.00  0.00     0.030 A 
HETATM   16  C   UNL     1      -2.143   7.184 -29.989  1.00  0.00     0.032 A 
HETATM   17  C   UNL     1      -1.338   7.790 -29.014  1.00  0.00     0.039 A 
HETATM   18  C   UNL     1       0.048   7.669 -29.052  1.00  0.00     0.068 A 
HETATM   19  C   UNL     1       0.625   6.950 -30.091  1.00  0.00     0.039 A 
HETATM   20  C   UNL     1      -0.187   6.344 -31.062  1.00  0.00     0.032 A 
BRANCH  18  21
HETATM   21  O   UNL     1       0.710   8.302 -28.040  1.00  0.00    -0.356 OA
HETATM   22  C   UNL     1       1.280   7.480 -27.028  1.00  0.00     0.210 C 
ENDBRANCH  18  21
ENDBRANCH  11  15
ENDBRANCH   7   8
ENDBRANCH   6   7
ENDBRANCH   5   6
ENDBRANCH   1   5
BRANCH   2  23
HETATM   23  C   UNL     1      -8.904   0.715 -32.581  1.00  0.00     0.105 C 
BRANCH  23  24
HETATM   24  C   UNL     1      -8.813   1.032 -34.079  1.00  0.00     0.046 C 
BRANCH  24  25
HETATM   25  C   UNL     1      -7.500   0.652 -34.768  1.00  0.00     0.203 A 
HETATM   26  N   UNL     1      -7.422  -0.807 -34.995  1.00  0.00    -0.257 NA
HETATM   27  C   UNL     1      -6.293  -1.153 -34.452  1.00  0.00     0.147 A 
HETATM   28  N   UNL     1      -5.555  -0.183 -33.837  1.00  0.00    -0.239 N 
HETATM   29  C   UNL     1      -5.780  -2.526 -34.460  1.00  0.00     0.037 A 
HETATM   30  C   UNL     1      -4.353  -0.419 -33.160  1.00  0.00     0.187 A 
HETATM   31  C   UNL     1      -6.254   0.998 -33.974  1.00  0.00     0.257 A 
HETATM   32  S   UNL     1      -3.435   0.691 -32.302  1.00  0.00    -0.040 SA
HETATM   33  N   UNL     1      -3.884  -1.714 -33.201  1.00  0.00    -0.332 N 
HETATM   34  C   UNL     1      -4.561  -2.765 -33.829  1.00  0.00     0.048 A 
HETATM   35  H   UNL     1      -3.003  -1.899 -32.735  1.00  0.00     0.168 HD
HETATM   36  C   UNL     1      -4.022  -4.050 -33.818  1.00  0.00     0.030 A 
HETATM   37  C   UNL     1      -4.712  -5.092 -34.443  1.00  0.00     0.002 A 
HETATM   38  C   UNL     1      -5.935  -4.850 -35.073  1.00  0.00     0.001 A 
HETATM   39  C   UNL     1      -6.473  -3.564 -35.085  1.00  0.00     0.017 A 
HETATM   40  O   UNL     1      -6.007   2.118 -33.548  1.00  0.00    -0.270 OA
ENDBRANCH  24  25
ENDBRANCH  23  24
ENDBRANCH   2  23
TORSDOF 9
ENDMDL
MODEL 2
REMARK VINA RESULT:      -9.1      4.221      7.381
REMARK  9 active torsions:
REMARK  status: ('A' for Active; 'I' for Inactive)
REMARK    1  A    between atoms: O_2  and  C_3 
REMARK    2  A    between atoms: C_6  and  N_7 
REMARK    3  A    between atoms: N_10  and  C_12 
REMARK    4  A    between atoms: C_12  and  C_13 
REMARK    5  A    between atoms: C_13  and  C_14 
REMARK    6  A    between atoms: C_14  and  N_15 
REMARK       I    between atoms: N_15  and  C_16 
REMARK    7  A    between atoms: C_16  and  C_17 
REMARK    8  A    between atoms: C_17  and  C_18 
REMARK    9  A    between atoms: C_18  and  C_19 
ROOT
HETATM    1  N   UNL     1      -8.707   2.326 -31.491  1.00  0.00    -0.361 N 
HETATM    2  C   UNL     1      -8.513   0.973 -31.684  1.00  0.00     0.217 C 
HETATM    3  O   UNL     1      -7.781   0.295 -30.967  1.00  0.00    -0.274 OA
HETATM    4  H   UNL     1      -9.147   2.845 -32.243  1.00  0.00     0.162 HD
ENDROOT
BRANCH   1   5
HETATM    5  C   UNL     1      -7.835   3.067 -30.603  1.00  0.00     0.124 C 
BRANCH   5   6
HETATM    6  C   UNL     1      -7.117   4.212 -31.315  1.00  0.00     0.047 C 
BRANCH   6   7
HETATM    7  C   UNL     1      -7.738   5.548 -30.934  1.00  0.00     0.236 C 
BRANCH   7   8
HETATM    8  N   UNL     1      -8.794   5.945 -31.944  1.00  0.00    -0.068 N 
HETATM    9  C   UNL     1      -8.590   5.295 -33.322  1.00  0.00     0.254 C 
HETATM   10  C   UNL     1      -9.678   5.775 -34.307  1.00  0.00     0.150 C 
HETATM   11  N   UNL     1     -11.034   5.550 -33.772  1.00  0.00    -0.378 N 
HETATM   12  C   UNL     1     -11.264   6.145 -32.439  1.00  0.00     0.150 C 
HETATM   13  C   UNL     1     -10.208   5.645 -31.429  1.00  0.00     0.254 C 
HETATM   14  H   UNL     1      -8.742   6.962 -32.079  1.00  0.00     0.280 HD
BRANCH  11  15
HETATM   15  C   UNL     1     -11.734   4.379 -34.071  1.00  0.00     0.030 A 
HETATM   16  C   UNL     1     -12.483   3.664 -33.128  1.00  0.00     0.032 A 
HETATM   17  C   UNL     1     -13.175   2.495 -33.474  1.00  0.00     0.039 A 
HETATM   18  C   UNL     1     -13.129   1.991 -34.771  1.00  0.00     0.068 A 
HETATM   19  C   UNL     1     -12.363   2.660 -35.717  1.00  0.00     0.039 A 
HETATM   20  C   UNL     1     -11.675   3.831 -35.364  1.00  0.00     0.032 A 
BRANCH  18  21
HETATM   21  O   UNL     1     -13.853   0.852 -34.973  1.00  0.00    -0.356 OA
HETATM   22  C   UNL     1     -15.046   0.701 -34.213  1.00  0.00     0.210 C 
ENDBRANCH  18  21
ENDBRANCH  11  15
ENDBRANCH   7   8
ENDBRANCH   6   7
ENDBRANCH   5   6
ENDBRANCH   1   5
BRANCH   2  23
HETATM   23  C   UNL     1      -9.240   0.396 -32.879  1.00  0.00     0.105 C 
BRANCH  23  24
HETATM   24  C   UNL     1      -8.916   1.106 -34.199  1.00  0.00     0.046 C 
BRANCH  24  25
HETATM   25  C   UNL     1      -7.591   0.722 -34.862  1.00  0.00     0.203 A 
HETATM   26  N   UNL     1      -7.493  -0.741 -35.045  1.00  0.00    -0.257 NA
HETATM   27  C   UNL     1      -6.367  -1.058 -34.480  1.00  0.00     0.147 A 
HETATM   28  N   UNL     1      -5.647  -0.062 -33.885  1.00  0.00    -0.239 N 
HETATM   29  C   UNL     1      -5.837  -2.425 -34.442  1.00  0.00     0.037 A 
HETATM   30  C   UNL     1      -4.451  -0.264 -33.188  1.00  0.00     0.187 A 
HETATM   31  C   UNL     1      -6.359   1.106 -34.064  1.00  0.00     0.257 A 
HETATM   32  S   UNL     1      -3.556   0.882 -32.352  1.00  0.00    -0.040 SA
HETATM   33  N   UNL     1      -3.966  -1.553 -33.186  1.00  0.00    -0.332 N 
HETATM   34  C   UNL     1      -4.623  -2.630 -33.790  1.00  0.00     0.048 A 
HETATM   35  H   UNL     1      -3.088  -1.714 -32.705  1.00  0.00     0.168 HD
HETATM   36  C   UNL     1      -4.069  -3.908 -33.736  1.00  0.00     0.030 A 
HETATM   37  C   UNL     1      -4.739  -4.976 -34.338  1.00  0.00     0.002 A 
HETATM   38  C   UNL     1      -5.957  -4.767 -34.989  1.00  0.00     0.001 A 
HETATM   39  C   UNL     1      -6.511  -3.488 -35.044  1.00  0.00     0.017 A 
HETATM   40  O   UNL     1      -6.129   2.241 -33.668  1.00  0.00    -0.270 OA
ENDBRANCH  24  25
ENDBRANCH  23  24
ENDBRANCH   2  23
TORSDOF 9
ENDMDL
MODEL 3
REMARK VINA RESULT:      -9.1      2.783     10.269
REMARK  9 active torsions:
REMARK  status: ('A' for Active; 'I' for Inactive)
REMARK    1  A    between atoms: O_2  and  C_3 
REMARK    2  A    between atoms: C_6  and  N_7 
REMARK    3  A    between atoms: N_10  and  C_12 
REMARK    4  A    between atoms: C_12  and  C_13 
REMARK    5  A    between atoms: C_13  and  C_14 
REMARK    6  A    between atoms: C_14  and  N_15 
REMARK       I    between atoms: N_15  and  C_16 
REMARK    7  A    between atoms: C_16  and  C_17 
REMARK    8  A    between atoms: C_17  and  C_18 
REMARK    9  A    between atoms: C_18  and  C_19 
ROOT
HETATM    1  N   UNL     1      -4.251   4.830 -33.321  1.00  0.00    -0.361 N 
HETATM    2  C   UNL     1      -3.094   5.409 -33.805  1.00  0.00     0.217 C 
HETATM    3  O   UNL     1      -3.099   6.333 -34.614  1.00  0.00    -0.274 OA
HETATM    4  H   UNL     1      -4.159   3.946 -32.832  1.00  0.00     0.162 HD
ENDROOT
BRANCH   1   5
HETATM    5  C   UNL     1      -5.522   5.100 -33.960  1.00  0.00     0.124 C 
BRANCH   5   6
HETATM    6  C   UNL     1      -6.702   4.913 -33.008  1.00  0.00     0.047 C 
BRANCH   6   7
HETATM    7  C   UNL     1      -7.874   4.269 -33.735  1.00  0.00     0.236 C 
BRANCH   7   8
HETATM    8  N   UNL     1      -8.186   2.914 -33.136  1.00  0.00    -0.068 N 
HETATM    9  C   UNL     1      -8.583   1.865 -34.187  1.00  0.00     0.254 C 
HETATM   10  C   UNL     1      -8.923   0.522 -33.502  1.00  0.00     0.150 C 
HETATM   11  N   UNL     1      -7.825   0.063 -32.631  1.00  0.00    -0.378 N 
HETATM   12  C   UNL     1      -7.402   1.052 -31.618  1.00  0.00     0.150 C 
HETATM   13  C   UNL     1      -7.019   2.389 -32.290  1.00  0.00     0.254 C 
HETATM   14  H   UNL     1      -8.985   3.021 -32.500  1.00  0.00     0.280 HD
BRANCH  11  15
HETATM   15  C   UNL     1      -6.843  -0.803 -33.119  1.00  0.00     0.030 A 
HETATM   16  C   UNL     1      -5.525  -0.821 -32.645  1.00  0.00     0.032 A 
HETATM   17  C   UNL     1      -4.573  -1.712 -33.160  1.00  0.00     0.039 A 
HETATM   18  C   UNL     1      -4.901  -2.605 -34.176  1.00  0.00     0.068 A 
HETATM   19  C   UNL     1      -6.191  -2.583 -34.690  1.00  0.00     0.039 A 
HETATM   20  C   UNL     1      -7.140  -1.690 -34.168  1.00  0.00     0.032 A 
BRANCH  18  21
HETATM   21  O   UNL     1      -3.883  -3.420 -34.579  1.00  0.00    -0.356 OA
HETATM   22  C   UNL     1      -3.665  -4.604 -33.820  1.00  0.00     0.210 C 
ENDBRANCH  18  21
ENDBRANCH  11  15
ENDBRANCH   7   8
ENDBRANCH   6   7
ENDBRANCH   5   6
ENDBRANCH   1   5
BRANCH   2  23
HETATM   23  C   UNL     1      -1.814   4.785 -33.292  1.00  0.00     0.105 C 
BRANCH  23  24
HETATM   24  C   UNL     1      -1.594   4.982 -31.788  1.00  0.00     0.046 C 
BRANCH  24  25
HETATM   25  C   UNL     1      -1.847   6.391 -31.249  1.00  0.00     0.203 A 
HETATM   26  N   UNL     1      -0.674   6.895 -30.504  1.00  0.00    -0.257 NA
HETATM   27  C   UNL     1      -1.156   7.245 -29.349  1.00  0.00     0.147 A 
HETATM   28  N   UNL     1      -2.488   7.045 -29.124  1.00  0.00    -0.239 N 
HETATM   29  C   UNL     1      -0.345   7.833 -28.279  1.00  0.00     0.037 A 
HETATM   30  C   UNL     1      -3.131   7.317 -27.912  1.00  0.00     0.187 A 
HETATM   31  C   UNL     1      -3.007   6.489 -30.275  1.00  0.00     0.257 A 
HETATM   32  S   UNL     1      -4.734   7.015 -27.522  1.00  0.00    -0.040 SA
HETATM   33  N   UNL     1      -2.350   7.888 -26.932  1.00  0.00    -0.332 N 
HETATM   34  C   UNL     1      -0.985   8.151 -27.083  1.00  0.00     0.048 A 
HETATM   35  H   UNL     1      -2.805   8.113 -26.054  1.00  0.00     0.168 HD
HETATM   36  C   UNL     1      -0.262   8.725 -26.038  1.00  0.00     0.030 A 
HETATM   37  C   UNL     1       1.102   8.977 -26.200  1.00  0.00     0.002 A 
HETATM   38  C   UNL     1       1.741   8.655 -27.400  1.00  0.00     0.001 A 
HETATM   39  C   UNL     1       1.018   8.082 -28.446  1.00  0.00     0.017 A 
HETATM   40  O   UNL     1      -4.141   6.100 -30.524  1.00  0.00    -0.270 OA
ENDBRANCH  24  25
ENDBRANCH  23  24
ENDBRANCH   2  23
TORSDOF 9
ENDMDL
MODEL 4
REMARK VINA RESULT:      -9.1      2.665     10.020
REMARK  9 active torsions:
REMARK  status: ('A' for Active; 'I' for Inactive)
REMARK    1  A    between atoms: O_2  and  C_3 
REMARK    2  A    between atoms: C_6  and  N_7 
REMARK    3  A    between atoms: N_10  and  C_12 
REMARK    4  A    between atoms: C_12  and  C_13 
REMARK    5  A    between atoms: C_13  and  C_14 
REMARK    6  A    between atoms: C_14  and  N_15 
REMARK       I    between atoms: N_15  and  C_16 
REMARK    7  A    between atoms: C_16  and  C_17 
REMARK    8  A    between atoms: C_17  and  C_18 
REMARK    9  A    between atoms: C_18  and  C_19 
ROOT
HETATM    1  N   UNL     1      -2.932   3.724 -32.496  1.00  0.00    -0.361 N 
HETATM    2  C   UNL     1      -1.901   4.559 -32.115  1.00  0.00     0.217 C 
HETATM    3  O   UNL     1      -1.169   4.322 -31.156  1.00  0.00    -0.274 OA
HETATM    4  H   UNL     1      -3.611   4.094 -33.152  1.00  0.00     0.162 HD
ENDROOT
BRANCH   1   5
HETATM    5  C   UNL     1      -3.378   2.668 -31.612  1.00  0.00     0.124 C 
BRANCH   5   6
HETATM    6  C   UNL     1      -4.659   3.037 -30.866  1.00  0.00     0.047 C 
BRANCH   6   7
HETATM    7  C   UNL     1      -5.641   3.724 -31.805  1.00  0.00     0.236 C 
BRANCH   7   8
HETATM    8  N   UNL     1      -6.581   2.709 -32.420  1.00  0.00    -0.068 N 
HETATM    9  C   UNL     1      -6.231   2.365 -33.877  1.00  0.00     0.254 C 
HETATM   10  C   UNL     1      -7.252   1.356 -34.449  1.00  0.00     0.150 C 
HETATM   11  N   UNL     1      -7.368   0.158 -33.598  1.00  0.00    -0.378 N 
HETATM   12  C   UNL     1      -7.686   0.449 -32.184  1.00  0.00     0.150 C 
HETATM   13  C   UNL     1      -6.651   1.425 -31.583  1.00  0.00     0.254 C 
HETATM   14  H   UNL     1      -7.527   3.109 -32.423  1.00  0.00     0.280 HD
BRANCH  11  15
HETATM   15  C   UNL     1      -6.591  -0.975 -33.851  1.00  0.00     0.030 A 
HETATM   16  C   UNL     1      -5.225  -1.058 -33.553  1.00  0.00     0.032 A 
HETATM   17  C   UNL     1      -4.485  -2.218 -33.820  1.00  0.00     0.039 A 
HETATM   18  C   UNL     1      -5.081  -3.330 -34.409  1.00  0.00     0.068 A 
HETATM   19  C   UNL     1      -6.425  -3.261 -34.749  1.00  0.00     0.039 A 
HETATM   20  C   UNL     1      -7.161  -2.098 -34.477  1.00  0.00     0.032 A 
BRANCH  18  21
HETATM   21  O   UNL     1      -4.249  -4.393 -34.606  1.00  0.00    -0.356 OA
HETATM   22  C   UNL     1      -3.412  -4.770 -33.519  1.00  0.00     0.210 C 
ENDBRANCH  18  21
ENDBRANCH  11  15
ENDBRANCH   7   8
ENDBRANCH   6   7
ENDBRANCH   5   6
ENDBRANCH   1   5
BRANCH   2  23
HETATM   23  C   UNL     1      -1.767   5.817 -32.946  1.00  0.00     0.105 C 
BRANCH  23  24
HETATM   24  C   UNL     1      -2.995   6.733 -32.877  1.00  0.00     0.046 C 
BRANCH  24  25
HETATM   25  C   UNL     1      -3.055   7.690 -31.684  1.00  0.00     0.203 A 
HETATM   26  N   UNL     1      -1.745   7.777 -31.006  1.00  0.00    -0.257 NA
HETATM   27  C   UNL     1      -2.011   7.506 -29.763  1.00  0.00     0.147 A 
HETATM   28  N   UNL     1      -3.302   7.203 -29.437  1.00  0.00    -0.239 N 
HETATM   29  C   UNL     1      -1.000   7.501 -28.702  1.00  0.00     0.037 A 
HETATM   30  C   UNL     1      -3.724   6.833 -28.155  1.00  0.00     0.187 A 
HETATM   31  C   UNL     1      -4.036   7.279 -30.602  1.00  0.00     0.257 A 
HETATM   32  S   UNL     1      -5.262   6.356 -27.690  1.00  0.00    -0.040 SA
HETATM   33  N   UNL     1      -2.757   6.857 -27.174  1.00  0.00    -0.332 N 
HETATM   34  C   UNL     1      -1.417   7.179 -27.412  1.00  0.00     0.048 A 
HETATM   35  H   UNL     1      -3.049   6.614 -26.233  1.00  0.00     0.168 HD
HETATM   36  C   UNL     1      -0.498   7.173 -26.364  1.00  0.00     0.030 A 
HETATM   37  C   UNL     1       0.838   7.490 -26.617  1.00  0.00     0.002 A 
HETATM   38  C   UNL     1       1.254   7.810 -27.912  1.00  0.00     0.001 A 
HETATM   39  C   UNL     1       0.335   7.818 -28.960  1.00  0.00     0.017 A 
HETATM   40  O   UNL     1      -5.220   7.049 -30.807  1.00  0.00    -0.270 OA
ENDBRANCH  24  25
ENDBRANCH  23  24
ENDBRANCH   2  23
TORSDOF 9
ENDMDL
MODEL 5
REMARK VINA RESULT:      -8.7      1.776      2.491
REMARK  9 active torsions:
REMARK  status: ('A' for Active; 'I' for Inactive)
REMARK    1  A    between atoms: O_2  and  C_3 
REMARK    2  A    between atoms: C_6  and  N_7 
REMARK    3  A    between atoms: N_10  and  C_12 
REMARK    4  A    between atoms: C_12  and  C_13 
REMARK    5  A    between atoms: C_13  and  C_14 
REMARK    6  A    between atoms: C_14  and  N_15 
REMARK       I    between atoms: N_15  and  C_16 
REMARK    7  A    between atoms: C_16  and  C_17 
REMARK    8  A    between atoms: C_17  and  C_18 
REMARK    9  A    between atoms: C_18  and  C_19 
ROOT
HETATM    1  N   UNL     1     -10.392   3.388 -31.988  1.00  0.00    -0.361 N 
HETATM    2  C   UNL     1      -9.533   2.358 -32.317  1.00  0.00     0.217 C 
HETATM    3  O   UNL     1      -9.034   1.612 -31.478  1.00  0.00    -0.274 OA
HETATM    4  H   UNL     1     -10.585   4.079 -32.705  1.00  0.00     0.162 HD
ENDROOT
BRANCH   1   5
HETATM    5  C   UNL     1     -10.523   3.815 -30.610  1.00  0.00     0.124 C 
BRANCH   5   6
HETATM    6  C   UNL     1     -10.062   5.256 -30.402  1.00  0.00     0.047 C 
BRANCH   6   7
HETATM    7  C   UNL     1      -8.607   5.289 -29.953  1.00  0.00     0.236 C 
BRANCH   7   8
HETATM    8  N   UNL     1      -7.755   6.005 -30.979  1.00  0.00    -0.068 N 
HETATM    9  C   UNL     1      -6.696   6.925 -30.351  1.00  0.00     0.254 C 
HETATM   10  C   UNL     1      -5.893   7.649 -31.455  1.00  0.00     0.150 C 
HETATM   11  N   UNL     1      -5.313   6.696 -32.420  1.00  0.00    -0.378 N 
HETATM   12  C   UNL     1      -6.299   5.781 -33.032  1.00  0.00     0.150 C 
HETATM   13  C   UNL     1      -7.084   5.018 -31.944  1.00  0.00     0.254 C 
HETATM   14  H   UNL     1      -8.370   6.599 -31.549  1.00  0.00     0.280 HD
BRANCH  11  15
HETATM   15  C   UNL     1      -4.017   6.205 -32.247  1.00  0.00     0.030 A 
HETATM   16  C   UNL     1      -3.053   6.834 -31.447  1.00  0.00     0.032 A 
HETATM   17  C   UNL     1      -1.764   6.303 -31.298  1.00  0.00     0.039 A 
HETATM   18  C   UNL     1      -1.389   5.135 -31.954  1.00  0.00     0.068 A 
HETATM   19  C   UNL     1      -2.313   4.511 -32.783  1.00  0.00     0.039 A 
HETATM   20  C   UNL     1      -3.602   5.047 -32.927  1.00  0.00     0.032 A 
BRANCH  18  21
HETATM   21  O   UNL     1      -0.110   4.724 -31.716  1.00  0.00    -0.356 OA
HETATM   22  C   UNL     1       0.605   5.401 -30.688  1.00  0.00     0.210 C 
ENDBRANCH  18  21
ENDBRANCH  11  15
ENDBRANCH   7   8
ENDBRANCH   6   7
ENDBRANCH   5   6
ENDBRANCH   1   5
BRANCH   2  23
HETATM   23  C   UNL     1      -9.219   2.245 -33.793  1.00  0.00     0.105 C 
BRANCH  23  24
HETATM   24  C   UNL     1      -8.999   0.803 -34.266  1.00  0.00     0.046 C 
BRANCH  24  25
HETATM   25  C   UNL     1      -7.636   0.500 -34.892  1.00  0.00     0.203 A 
HETATM   26  N   UNL     1      -7.438  -0.955 -35.057  1.00  0.00    -0.257 NA
HETATM   27  C   UNL     1      -6.308  -1.193 -34.461  1.00  0.00     0.147 A 
HETATM   28  N   UNL     1      -5.670  -0.146 -33.858  1.00  0.00    -0.239 N 
HETATM   29  C   UNL     1      -5.692  -2.521 -34.394  1.00  0.00     0.037 A 
HETATM   30  C   UNL     1      -4.482  -0.263 -33.130  1.00  0.00     0.187 A 
HETATM   31  C   UNL     1      -6.452   0.972 -34.068  1.00  0.00     0.257 A 
HETATM   32  S   UNL     1      -3.685   0.946 -32.284  1.00  0.00    -0.040 SA
HETATM   33  N   UNL     1      -3.914  -1.518 -33.102  1.00  0.00    -0.332 N 
HETATM   34  C   UNL     1      -4.484  -2.641 -33.711  1.00  0.00     0.048 A 
HETATM   35  H   UNL     1      -3.040  -1.617 -32.597  1.00  0.00     0.168 HD
HETATM   36  C   UNL     1      -3.850  -3.879 -33.629  1.00  0.00     0.030 A 
HETATM   37  C   UNL     1      -4.433  -4.994 -34.236  1.00  0.00     0.002 A 
HETATM   38  C   UNL     1      -5.645  -4.871 -34.919  1.00  0.00     0.001 A 
HETATM   39  C   UNL     1      -6.280  -3.632 -35.002  1.00  0.00     0.017 A 
HETATM   40  O   UNL     1      -6.307   2.122 -33.679  1.00  0.00    -0.270 OA
ENDBRANCH  24  25
ENDBRANCH  23  24
ENDBRANCH   2  23
TORSDOF 9
ENDMDL
MODEL 6
REMARK VINA RESULT:      -8.6      2.748      3.847
REMARK  9 active torsions:
REMARK  status: ('A' for Active; 'I' for Inactive)
REMARK    1  A    between atoms: O_2  and  C_3 
REMARK    2  A    between atoms: C_6  and  N_7 
REMARK    3  A    between atoms: N_10  and  C_12 
REMARK    4  A    between atoms: C_12  and  C_13 
REMARK    5  A    between atoms: C_13  and  C_14 
REMARK    6  A    between atoms: C_14  and  N_15 
REMARK       I    between atoms: N_15  and  C_16 
REMARK    7  A    between atoms: C_16  and  C_17 
REMARK    8  A    between atoms: C_17  and  C_18 
REMARK    9  A    between atoms: C_18  and  C_19 
ROOT
HETATM    1  N   UNL     1     -10.452   2.834 -34.257  1.00  0.00    -0.361 N 
HETATM    2  C   UNL     1     -10.634   1.494 -33.982  1.00  0.00     0.217 C 
HETATM    3  O   UNL     1     -11.731   1.011 -33.708  1.00  0.00    -0.274 OA
HETATM    4  H   UNL     1      -9.500   3.183 -34.260  1.00  0.00     0.162 HD
ENDROOT
BRANCH   1   5
HETATM    5  C   UNL     1     -11.501   3.787 -33.960  1.00  0.00     0.124 C 
BRANCH   5   6
HETATM    6  C   UNL     1     -11.026   4.904 -33.033  1.00  0.00     0.047 C 
BRANCH   6   7
HETATM    7  C   UNL     1     -10.459   4.322 -31.746  1.00  0.00     0.236 C 
BRANCH   7   8
HETATM    8  N   UNL     1      -9.303   5.165 -31.250  1.00  0.00    -0.068 N 
HETATM    9  C   UNL     1      -8.228   4.347 -30.517  1.00  0.00     0.254 C 
HETATM   10  C   UNL     1      -7.103   5.275 -30.007  1.00  0.00     0.150 C 
HETATM   11  N   UNL     1      -6.543   6.098 -31.096  1.00  0.00    -0.378 N 
HETATM   12  C   UNL     1      -7.549   6.886 -31.837  1.00  0.00     0.150 C 
HETATM   13  C   UNL     1      -8.661   5.968 -32.389  1.00  0.00     0.254 C 
HETATM   14  H   UNL     1      -9.671   5.850 -30.579  1.00  0.00     0.280 HD
BRANCH  11  15
HETATM   15  C   UNL     1      -5.423   5.667 -31.812  1.00  0.00     0.030 A 
HETATM   16  C   UNL     1      -5.342   5.698 -33.210  1.00  0.00     0.032 A 
HETATM   17  C   UNL     1      -4.195   5.260 -33.888  1.00  0.00     0.039 A 
HETATM   18  C   UNL     1      -3.097   4.762 -33.192  1.00  0.00     0.068 A 
HETATM   19  C   UNL     1      -3.165   4.686 -31.807  1.00  0.00     0.039 A 
HETATM   20  C   UNL     1      -4.315   5.128 -31.135  1.00  0.00     0.032 A 
BRANCH  18  21
HETATM   21  O   UNL     1      -2.046   4.379 -33.973  1.00  0.00    -0.356 OA
HETATM   22  C   UNL     1      -1.469   5.371 -34.814  1.00  0.00     0.210 C 
ENDBRANCH  18  21
ENDBRANCH  11  15
ENDBRANCH   7   8
ENDBRANCH   6   7
ENDBRANCH   5   6
ENDBRANCH   1   5
BRANCH   2  23
HETATM   23  C   UNL     1      -9.366   0.667 -34.000  1.00  0.00     0.105 C 
BRANCH  23  24
HETATM   24  C   UNL     1      -8.119   1.445 -33.564  1.00  0.00     0.046 C 
BRANCH  24  25
HETATM   25  C   UNL     1      -6.793   0.989 -34.177  1.00  0.00     0.203 A 
HETATM   26  N   UNL     1      -6.875  -0.412 -34.641  1.00  0.00    -0.257 NA
HETATM   27  C   UNL     1      -5.874  -1.000 -34.058  1.00  0.00     0.147 A 
HETATM   28  N   UNL     1      -5.096  -0.256 -33.217  1.00  0.00    -0.239 N 
HETATM   29  C   UNL     1      -5.544  -2.415 -34.249  1.00  0.00     0.037 A 
HETATM   30  C   UNL     1      -4.025  -0.767 -32.477  1.00  0.00     0.187 A 
HETATM   31  C   UNL     1      -5.617   1.022 -33.219  1.00  0.00     0.257 A 
HETATM   32  S   UNL     1      -3.082   0.050 -31.357  1.00  0.00    -0.040 SA
HETATM   33  N   UNL     1      -3.724  -2.094 -32.692  1.00  0.00    -0.332 N 
HETATM   34  C   UNL     1      -4.450  -2.925 -33.553  1.00  0.00     0.048 A 
HETATM   35  H   UNL     1      -2.936  -2.477 -32.181  1.00  0.00     0.168 HD
HETATM   36  C   UNL     1      -4.086  -4.261 -33.709  1.00  0.00     0.030 A 
HETATM   37  C   UNL     1      -4.823  -5.081 -34.566  1.00  0.00     0.002 A 
HETATM   38  C   UNL     1      -5.920  -4.568 -35.262  1.00  0.00     0.001 A 
HETATM   39  C   UNL     1      -6.285  -3.230 -35.107  1.00  0.00     0.017 A 
HETATM   40  O   UNL     1      -5.281   2.013 -32.586  1.00  0.00    -0.270 OA
ENDBRANCH  24  25
ENDBRANCH  23  24
ENDBRANCH   2  23
TORSDOF 9
ENDMDL
MODEL 7
REMARK VINA RESULT:      -8.6      2.225      4.056
REMARK  9 active torsions:
REMARK  status: ('A' for Active; 'I' for Inactive)
REMARK    1  A    between atoms: O_2  and  C_3 
REMARK    2  A    between atoms: C_6  and  N_7 
REMARK    3  A    between atoms: N_10  and  C_12 
REMARK    4  A    between atoms: C_12  and  C_13 
REMARK    5  A    between atoms: C_13  and  C_14 
REMARK    6  A    between atoms: C_14  and  N_15 
REMARK       I    between atoms: N_15  and  C_16 
REMARK    7  A    between atoms: C_16  and  C_17 
REMARK    8  A    between atoms: C_17  and  C_18 
REMARK    9  A    between atoms: C_18  and  C_19 
ROOT
HETATM    1  N   UNL     1      -4.797   4.142 -33.450  1.00  0.00    -0.361 N 
HETATM    2  C   UNL     1      -5.372   4.734 -32.343  1.00  0.00     0.217 C 
HETATM    3  O   UNL     1      -6.002   5.787 -32.401  1.00  0.00    -0.274 OA
HETATM    4  H   UNL     1      -4.124   3.402 -33.284  1.00  0.00     0.162 HD
ENDROOT
BRANCH   1   5
HETATM    5  C   UNL     1      -4.670   4.882 -34.688  1.00  0.00     0.124 C 
BRANCH   5   6
HETATM    6  C   UNL     1      -3.245   5.376 -34.926  1.00  0.00     0.047 C 
BRANCH   6   7
HETATM    7  C   UNL     1      -2.288   4.740 -33.927  1.00  0.00     0.236 C 
BRANCH   7   8
HETATM    8  N   UNL     1      -1.542   5.809 -33.157  1.00  0.00    -0.068 N 
HETATM    9  C   UNL     1      -2.463   6.901 -32.591  1.00  0.00     0.254 C 
HETATM   10  C   UNL     1      -1.632   7.974 -31.853  1.00  0.00     0.150 C 
HETATM   11  N   UNL     1      -0.764   7.376 -30.822  1.00  0.00    -0.378 N 
HETATM   12  C   UNL     1       0.125   6.307 -31.325  1.00  0.00     0.150 C 
HETATM   13  C   UNL     1      -0.694   5.205 -32.030  1.00  0.00     0.254 C 
HETATM   14  H   UNL     1      -0.888   6.270 -33.801  1.00  0.00     0.280 HD
BRANCH  11  15
HETATM   15  C   UNL     1      -1.199   7.266 -29.499  1.00  0.00     0.030 A 
HETATM   16  C   UNL     1      -2.520   7.509 -29.098  1.00  0.00     0.032 A 
HETATM   17  C   UNL     1      -2.915   7.382 -27.759  1.00  0.00     0.039 A 
HETATM   18  C   UNL     1      -2.001   7.023 -26.773  1.00  0.00     0.068 A 
HETATM   19  C   UNL     1      -0.677   6.813 -27.137  1.00  0.00     0.039 A 
HETATM   20  C   UNL     1      -0.289   6.940 -28.479  1.00  0.00     0.032 A 
BRANCH  18  21
HETATM   21  O   UNL     1      -2.519   6.928 -25.514  1.00  0.00    -0.356 OA
HETATM   22  C   UNL     1      -2.625   8.133 -24.765  1.00  0.00     0.210 C 
ENDBRANCH  18  21
ENDBRANCH  11  15
ENDBRANCH   7   8
ENDBRANCH   6   7
ENDBRANCH   5   6
ENDBRANCH   1   5
BRANCH   2  23
HETATM   23  C   UNL     1      -5.129   4.005 -31.039  1.00  0.00     0.105 C 
BRANCH  23  24
HETATM   24  C   UNL     1      -6.407   3.747 -30.232  1.00  0.00     0.046 C 
BRANCH  24  25
HETATM   25  C   UNL     1      -6.920   2.305 -30.226  1.00  0.00     0.203 A 
HETATM   26  N   UNL     1      -5.930   1.386 -30.826  1.00  0.00    -0.257 NA
HETATM   27  C   UNL     1      -6.595   0.760 -31.750  1.00  0.00     0.147 A 
HETATM   28  N   UNL     1      -7.903   1.102 -31.940  1.00  0.00    -0.239 N 
HETATM   29  C   UNL     1      -6.012  -0.283 -32.600  1.00  0.00     0.037 A 
HETATM   30  C   UNL     1      -8.722   0.558 -32.935  1.00  0.00     0.187 A 
HETATM   31  C   UNL     1      -8.193   2.092 -31.023  1.00  0.00     0.257 A 
HETATM   32  S   UNL     1     -10.303   0.986 -33.297  1.00  0.00    -0.040 SA
HETATM   33  N   UNL     1      -8.156  -0.435 -33.704  1.00  0.00    -0.332 N 
HETATM   34  C   UNL     1      -6.832  -0.865 -33.563  1.00  0.00     0.048 A 
HETATM   35  H   UNL     1      -8.742  -0.857 -34.416  1.00  0.00     0.168 HD
HETATM   36  C   UNL     1      -6.332  -1.871 -34.389  1.00  0.00     0.030 A 
HETATM   37  C   UNL     1      -5.007  -2.287 -34.242  1.00  0.00     0.002 A 
HETATM   38  C   UNL     1      -4.186  -1.700 -33.276  1.00  0.00     0.001 A 
HETATM   39  C   UNL     1      -4.687  -0.695 -32.449  1.00  0.00     0.017 A 
HETATM   40  O   UNL     1      -9.222   2.731 -30.850  1.00  0.00    -0.270 OA
ENDBRANCH  24  25
ENDBRANCH  23  24
ENDBRANCH   2  23
TORSDOF 9
ENDMDL
MODEL 8
REMARK VINA RESULT:      -8.4      2.003      3.586
REMARK  9 active torsions:
REMARK  status: ('A' for Active; 'I' for Inactive)
REMARK    1  A    between atoms: O_2  and  C_3 
REMARK    2  A    between atoms: C_6  and  N_7 
REMARK    3  A    between atoms: N_10  and  C_12 
REMARK    4  A    between atoms: C_12  and  C_13 
REMARK    5  A    between atoms: C_13  and  C_14 
REMARK    6  A    between atoms: C_14  and  N_15 
REMARK       I    between atoms: N_15  and  C_16 
REMARK    7  A    between atoms: C_16  and  C_17 
REMARK    8  A    between atoms: C_17  and  C_18 
REMARK    9  A    between atoms: C_18  and  C_19 
ROOT
HETATM    1  N   UNL     1      -5.076   4.753 -32.270  1.00  0.00    -0.361 N 
HETATM    2  C   UNL     1      -5.023   4.913 -30.900  1.00  0.00     0.217 C 
HETATM    3  O   UNL     1      -4.999   6.015 -30.356  1.00  0.00    -0.274 OA
HETATM    4  H   UNL     1      -4.878   3.829 -32.639  1.00  0.00     0.162 HD
ENDROOT
BRANCH   1   5
HETATM    5  C   UNL     1      -4.822   5.879 -33.144  1.00  0.00     0.124 C 
BRANCH   5   6
HETATM    6  C   UNL     1      -3.463   5.783 -33.836  1.00  0.00     0.047 C 
BRANCH   6   7
HETATM    7  C   UNL     1      -2.672   4.602 -33.290  1.00  0.00     0.236 C 
BRANCH   7   8
HETATM    8  N   UNL     1      -1.401   5.083 -32.623  1.00  0.00    -0.068 N 
HETATM    9  C   UNL     1      -1.228   6.610 -32.676  1.00  0.00     0.254 C 
HETATM   10  C   UNL     1       0.104   7.023 -32.013  1.00  0.00     0.150 C 
HETATM   11  N   UNL     1       0.218   6.489 -30.643  1.00  0.00    -0.378 N 
HETATM   12  C   UNL     1       0.040   5.025 -30.547  1.00  0.00     0.150 C 
HETATM   13  C   UNL     1      -1.307   4.598 -31.169  1.00  0.00     0.254 C 
HETATM   14  H   UNL     1      -0.602   4.672 -33.121  1.00  0.00     0.280 HD
BRANCH  11  15
HETATM   15  C   UNL     1      -0.193   7.249 -29.545  1.00  0.00     0.030 A 
HETATM   16  C   UNL     1       0.698   7.888 -28.672  1.00  0.00     0.032 A 
HETATM   17  C   UNL     1       0.241   8.646 -27.585  1.00  0.00     0.039 A 
HETATM   18  C   UNL     1      -1.120   8.780 -27.324  1.00  0.00     0.068 A 
HETATM   19  C   UNL     1      -2.023   8.127 -28.152  1.00  0.00     0.039 A 
HETATM   20  C   UNL     1      -1.559   7.371 -29.240  1.00  0.00     0.032 A 
BRANCH  18  21
HETATM   21  O   UNL     1      -1.426   9.551 -26.240  1.00  0.00    -0.356 OA
HETATM   22  C   UNL     1      -0.512   9.526 -25.150  1.00  0.00     0.210 C 
ENDBRANCH  18  21
ENDBRANCH  11  15
ENDBRANCH   7   8
ENDBRANCH   6   7
ENDBRANCH   5   6
ENDBRANCH   1   5
BRANCH   2  23
HETATM   23  C   UNL     1      -4.953   3.620 -30.116  1.00  0.00     0.105 C 
BRANCH  23  24
HETATM   24  C   UNL     1      -4.368   2.448 -30.914  1.00  0.00     0.046 C 
BRANCH  24  25
HETATM   25  C   UNL     1      -5.277   1.228 -31.082  1.00  0.00     0.203 A 
HETATM   26  N   UNL     1      -4.489  -0.022 -31.110  1.00  0.00    -0.257 NA
HETATM   27  C   UNL     1      -4.861  -0.609 -32.208  1.00  0.00     0.147 A 
HETATM   28  N   UNL     1      -5.770   0.033 -33.000  1.00  0.00    -0.239 N 
HETATM   29  C   UNL     1      -4.351  -1.913 -32.641  1.00  0.00     0.037 A 
HETATM   30  C   UNL     1      -6.216  -0.449 -34.235  1.00  0.00     0.187 A 
HETATM   31  C   UNL     1      -6.081   1.220 -32.369  1.00  0.00     0.257 A 
HETATM   32  S   UNL     1      -7.253   0.315 -35.309  1.00  0.00    -0.040 SA
HETATM   33  N   UNL     1      -5.737  -1.686 -34.607  1.00  0.00    -0.332 N 
HETATM   34  C   UNL     1      -4.823  -2.424 -33.848  1.00  0.00     0.048 A 
HETATM   35  H   UNL     1      -6.066  -2.061 -35.490  1.00  0.00     0.168 HD
HETATM   36  C   UNL     1      -4.380  -3.666 -34.299  1.00  0.00     0.030 A 
HETATM   37  C   UNL     1      -3.463  -4.390 -33.534  1.00  0.00     0.002 A 
HETATM   38  C   UNL     1      -2.990  -3.875 -32.325  1.00  0.00     0.001 A 
HETATM   39  C   UNL     1      -3.434  -2.632 -31.873  1.00  0.00     0.017 A 
HETATM   40  O   UNL     1      -6.811   2.136 -32.723  1.00  0.00    -0.270 OA
ENDBRANCH  24  25
ENDBRANCH  23  24
ENDBRANCH   2  23
TORSDOF 9
ENDMDL
MODEL 9
REMARK VINA RESULT:      -8.1      3.094      5.966
REMARK  9 active torsions:
REMARK  status: ('A' for Active; 'I' for Inactive)
REMARK    1  A    between atoms: O_2  and  C_3 
REMARK    2  A    between atoms: C_6  and  N_7 
REMARK    3  A    between atoms: N_10  and  C_12 
REMARK    4  A    between atoms: C_12  and  C_13 
REMARK    5  A    between atoms: C_13  and  C_14 
REMARK    6  A    between atoms: C_14  and  N_15 
REMARK       I    between atoms: N_15  and  C_16 
REMARK    7  A    between atoms: C_16  and  C_17 
REMARK    8  A    between atoms: C_17  and  C_18 
REMARK    9  A    between atoms: C_18  and  C_19 
ROOT
HETATM    1  N   UNL     1      -0.639   5.447 -31.942  1.00  0.00    -0.361 N 
HETATM    2  C   UNL     1      -1.544   5.414 -32.984  1.00  0.00     0.217 C 
HETATM    3  O   UNL     1      -1.619   6.302 -33.831  1.00  0.00    -0.274 OA
HETATM    4  H   UNL     1      -0.786   4.796 -31.178  1.00  0.00     0.162 HD
ENDROOT
BRANCH   1   5
HETATM    5  C   UNL     1       0.076   6.669 -31.637  1.00  0.00     0.124 C 
BRANCH   5   6
HETATM    6  C   UNL     1      -0.129   7.116 -30.191  1.00  0.00     0.047 C 
BRANCH   6   7
HETATM    7  C   UNL     1      -1.532   7.676 -30.001  1.00  0.00     0.236 C 
BRANCH   7   8
HETATM    8  N   UNL     1      -1.776   8.004 -28.544  1.00  0.00    -0.068 N 
HETATM    9  C   UNL     1      -1.114   7.006 -27.579  1.00  0.00     0.254 C 
HETATM   10  C   UNL     1      -1.438   7.381 -26.116  1.00  0.00     0.150 C 
HETATM   11  N   UNL     1      -1.075   8.779 -25.819  1.00  0.00    -0.378 N 
HETATM   12  C   UNL     1      -1.678   9.768 -26.737  1.00  0.00     0.150 C 
HETATM   13  C   UNL     1      -1.331   9.433 -28.204  1.00  0.00     0.254 C 
HETATM   14  H   UNL     1      -2.788   7.964 -28.372  1.00  0.00     0.280 HD
BRANCH  11  15
HETATM   15  C   UNL     1       0.176   9.093 -25.285  1.00  0.00     0.030 A 
HETATM   16  C   UNL     1       0.359   9.981 -24.216  1.00  0.00     0.032 A 
HETATM   17  C   UNL     1       1.635  10.263 -23.707  1.00  0.00     0.039 A 
HETATM   18  C   UNL     1       2.772   9.680 -24.258  1.00  0.00     0.068 A 
HETATM   19  C   UNL     1       2.623   8.825 -25.342  1.00  0.00     0.039 A 
HETATM   20  C   UNL     1       1.343   8.545 -25.846  1.00  0.00     0.032 A 
BRANCH  18  21
HETATM   21  O   UNL     1       3.948  10.035 -23.663  1.00  0.00    -0.356 OA
HETATM   22  C   UNL     1       4.356   9.272 -22.533  1.00  0.00     0.210 C 
ENDBRANCH  18  21
ENDBRANCH  11  15
ENDBRANCH   7   8
ENDBRANCH   6   7
ENDBRANCH   5   6
ENDBRANCH   1   5
BRANCH   2  23
HETATM   23  C   UNL     1      -2.470   4.217 -32.979  1.00  0.00     0.105 C 
BRANCH  23  24
HETATM   24  C   UNL     1      -2.658   3.591 -31.592  1.00  0.00     0.046 C 
BRANCH  24  25
HETATM   25  C   UNL     1      -4.029   2.969 -31.314  1.00  0.00     0.203 A 
HETATM   26  N   UNL     1      -4.124   1.612 -31.893  1.00  0.00    -0.257 NA
HETATM   27  C   UNL     1      -5.195   1.654 -32.627  1.00  0.00     0.147 A 
HETATM   28  N   UNL     1      -5.875   2.836 -32.701  1.00  0.00    -0.239 N 
HETATM   29  C   UNL     1      -5.703   0.505 -33.383  1.00  0.00     0.037 A 
HETATM   30  C   UNL     1      -7.007   3.045 -33.496  1.00  0.00     0.187 A 
HETATM   31  C   UNL     1      -5.195   3.737 -31.907  1.00  0.00     0.257 A 
HETATM   32  S   UNL     1      -7.843   4.482 -33.717  1.00  0.00    -0.040 SA
HETATM   33  N   UNL     1      -7.474   1.943 -34.179  1.00  0.00    -0.332 N 
HETATM   34  C   UNL     1      -6.856   0.689 -34.143  1.00  0.00     0.048 A 
HETATM   35  H   UNL     1      -8.307   2.070 -34.743  1.00  0.00     0.168 HD
HETATM   36  C   UNL     1      -7.388  -0.374 -34.870  1.00  0.00     0.030 A 
HETATM   37  C   UNL     1      -6.757  -1.620 -34.831  1.00  0.00     0.002 A 
HETATM   38  C   UNL     1      -5.600  -1.801 -34.069  1.00  0.00     0.001 A 
HETATM   39  C   UNL     1      -5.068  -0.737 -33.341  1.00  0.00     0.017 A 
HETATM   40  O   UNL     1      -5.405   4.925 -31.702  1.00  0.00    -0.270 OA
ENDBRANCH  24  25
ENDBRANCH  23  24
ENDBRANCH   2  23
TORSDOF 9
ENDMDL
MODEL 10
REMARK VINA RESULT:      -8.1      3.038      7.806
REMARK  9 active torsions:
REMARK  status: ('A' for Active; 'I' for Inactive)
REMARK    1  A    between atoms: O_2  and  C_3 
REMARK    2  A    between atoms: C_6  and  N_7 
REMARK    3  A    between atoms: N_10  and  C_12 
REMARK    4  A    between atoms: C_12  and  C_13 
REMARK    5  A    between atoms: C_13  and  C_14 
REMARK    6  A    between atoms: C_14  and  N_15 
REMARK       I    between atoms: N_15  and  C_16 
REMARK    7  A    between atoms: C_16  and  C_17 
REMARK    8  A    between atoms: C_17  and  C_18 
REMARK    9  A    between atoms: C_18  and  C_19 
ROOT
HETATM    1  N   UNL     1      -4.651   4.430 -32.409  1.00  0.00    -0.361 N 
HETATM    2  C   UNL     1      -3.396   4.284 -31.853  1.00  0.00     0.217 C 
HETATM    3  O   UNL     1      -2.567   5.191 -31.829  1.00  0.00    -0.274 OA
HETATM    4  H   UNL     1      -5.185   3.585 -32.578  1.00  0.00     0.162 HD
ENDROOT
BRANCH   1   5
HETATM    5  C   UNL     1      -4.949   5.576 -33.243  1.00  0.00     0.124 C 
BRANCH   5   6
HETATM    6  C   UNL     1      -5.923   6.544 -32.574  1.00  0.00     0.047 C 
BRANCH   6   7
HETATM    7  C   UNL     1      -7.013   5.777 -31.838  1.00  0.00     0.236 C 
BRANCH   7   8
HETATM    8  N   UNL     1      -8.365   6.055 -32.460  1.00  0.00    -0.068 N 
HETATM    9  C   UNL     1      -8.488   5.531 -33.900  1.00  0.00     0.254 C 
HETATM   10  C   UNL     1      -9.876   5.884 -34.481  1.00  0.00     0.150 C 
HETATM   11  N   UNL     1     -10.967   5.408 -33.611  1.00  0.00    -0.378 N 
HETATM   12  C   UNL     1     -10.873   5.876 -32.212  1.00  0.00     0.150 C 
HETATM   13  C   UNL     1      -9.507   5.496 -31.601  1.00  0.00     0.254 C 
HETATM   14  H   UNL     1      -8.497   7.074 -32.497  1.00  0.00     0.280 HD
BRANCH  11  15
HETATM   15  C   UNL     1     -11.553   4.158 -33.821  1.00  0.00     0.030 A 
HETATM   16  C   UNL     1     -12.682   3.960 -34.627  1.00  0.00     0.032 A 
HETATM   17  C   UNL     1     -13.235   2.685 -34.815  1.00  0.00     0.039 A 
HETATM   18  C   UNL     1     -12.688   1.567 -34.192  1.00  0.00     0.068 A 
HETATM   19  C   UNL     1     -11.592   1.740 -33.357  1.00  0.00     0.039 A 
HETATM   20  C   UNL     1     -11.042   3.019 -33.175  1.00  0.00     0.032 A 
BRANCH  18  21
HETATM   21  O   UNL     1     -13.319   0.388 -34.466  1.00  0.00    -0.356 OA
HETATM   22  C   UNL     1     -14.709   0.315 -34.173  1.00  0.00     0.210 C 
ENDBRANCH  18  21
ENDBRANCH  11  15
ENDBRANCH   7   8
ENDBRANCH   6   7
ENDBRANCH   5   6
ENDBRANCH   1   5
BRANCH   2  23
HETATM   23  C   UNL     1      -3.102   2.902 -31.310  1.00  0.00     0.105 C 
BRANCH  23  24
HETATM   24  C   UNL     1      -3.301   1.783 -32.340  1.00  0.00     0.046 C 
BRANCH  24  25
HETATM   25  C   UNL     1      -4.402   0.768 -32.026  1.00  0.00     0.203 A 
HETATM   26  N   UNL     1      -3.951  -0.611 -32.309  1.00  0.00    -0.257 NA
HETATM   27  C   UNL     1      -4.862  -1.088 -33.103  1.00  0.00     0.147 A 
HETATM   28  N   UNL     1      -5.887  -0.264 -33.469  1.00  0.00    -0.239 N 
HETATM   29  C   UNL     1      -4.840  -2.456 -33.629  1.00  0.00     0.037 A 
HETATM   30  C   UNL     1      -6.902  -0.620 -34.363  1.00  0.00     0.187 A 
HETATM   31  C   UNL     1      -5.668   0.946 -32.843  1.00  0.00     0.257 A 
HETATM   32  S   UNL     1      -8.139   0.356 -34.938  1.00  0.00    -0.040 SA
HETATM   33  N   UNL     1      -6.869  -1.917 -34.825  1.00  0.00    -0.332 N 
HETATM   34  C   UNL     1      -5.872  -2.837 -34.484  1.00  0.00     0.048 A 
HETATM   35  H   UNL     1      -7.610  -2.201 -35.457  1.00  0.00     0.168 HD
HETATM   36  C   UNL     1      -5.906  -4.131 -35.001  1.00  0.00     0.030 A 
HETATM   37  C   UNL     1      -4.901  -5.038 -34.657  1.00  0.00     0.002 A 
HETATM   38  C   UNL     1      -3.866  -4.653 -33.801  1.00  0.00     0.001 A 
HETATM   39  C   UNL     1      -3.833  -3.358 -33.282  1.00  0.00     0.017 A 
HETATM   40  O   UNL     1      -6.295   1.995 -32.909  1.00  0.00    -0.270 OA
ENDBRANCH  24  25
ENDBRANCH  23  24
ENDBRANCH   2  23
TORSDOF 9
ENDMDL
