MODEL 1
REMARK VINA RESULT:      -9.4      0.000      0.000
REMARK  4 active torsions:
REMARK  status: ('A' for Active; 'I' for Inactive)
REMARK    1  A    between atoms: C_4  and  C_5 
REMARK    2  A    between atoms: C_5  and  C_6 
REMARK    3  A    between atoms: C_7  and  N_8 
REMARK       I    between atoms: N_8  and  C_9 
REMARK    4  A    between atoms: C_9  and  C_10 
ROOT
HETATM    1  N   UNL     1      -6.840  -0.117 -31.122  1.00  0.00    -0.321 N 
HETATM    2  C   UNL     1      -6.190   0.739 -30.256  1.00  0.00     0.277 C 
HETATM    3  O   UNL     1      -5.616   0.322 -29.255  1.00  0.00    -0.266 OA
HETATM    4  H   UNL     1      -7.102  -0.983 -30.667  1.00  0.00     0.169 HD
ENDROOT
BRANCH   1   5
HETATM    5  C   UNL     1      -7.576   0.260 -32.252  1.00  0.00     0.041 A 
HETATM    6  C   UNL     1      -7.019   0.199 -33.543  1.00  0.00    -0.027 A 
HETATM    7  C   UNL     1      -7.829   0.558 -34.636  1.00  0.00     0.010 A 
HETATM    8  C   UNL     1      -9.162   0.930 -34.452  1.00  0.00     0.001 A 
HETATM    9  C   UNL     1      -9.713   0.927 -33.175  1.00  0.00     0.002 A 
HETATM   10  C   UNL     1      -8.927   0.577 -32.078  1.00  0.00     0.030 A 
BRANCH   6  11
HETATM   11  C   UNL     1      -5.632  -0.355 -33.821  1.00  0.00     0.079 C 
BRANCH  11  12
HETATM   12  C   UNL     1      -5.607  -1.838 -34.125  1.00  0.00    -0.054 A 
HETATM   13  C   UNL     1      -6.760  -2.503 -34.565  1.00  0.00     0.007 A 
HETATM   14  C   UNL     1      -6.723  -3.869 -34.853  1.00  0.00     0.001 A 
HETATM   15  C   UNL     1      -5.537  -4.584 -34.703  1.00  0.00     0.000 A 
HETATM   16  C   UNL     1      -4.385  -3.936 -34.262  1.00  0.00     0.001 A 
HETATM   17  C   UNL     1      -4.419  -2.571 -33.975  1.00  0.00     0.007 A 
ENDBRANCH  11  12
ENDBRANCH   6  11
ENDBRANCH   1   5
BRANCH   2  18
HETATM   18  C   UNL     1      -6.305   2.245 -30.450  1.00  0.00     0.156 A 
HETATM   19  N   UNL     1      -7.350   2.850 -29.962  1.00  0.00    -0.166 NA
HETATM   20  N   UNL     1      -7.460   4.195 -30.143  1.00  0.00    -0.242 N 
HETATM   21  C   UNL     1      -6.578   4.994 -30.830  1.00  0.00     0.272 A 
HETATM   22  H   UNL     1      -8.274   4.645 -29.736  1.00  0.00     0.192 HD
HETATM   23  O   UNL     1      -6.744   6.201 -30.955  1.00  0.00    -0.266 OA
HETATM   24  C   UNL     1      -5.413   4.314 -31.419  1.00  0.00     0.046 A 
HETATM   25  C   UNL     1      -5.254   2.943 -31.224  1.00  0.00     0.016 A 
HETATM   26  C   UNL     1      -4.484   5.037 -32.177  1.00  0.00     0.018 A 
HETATM   27  C   UNL     1      -4.149   2.290 -31.785  1.00  0.00     0.015 A 
HETATM   28  C   UNL     1      -3.222   3.012 -32.545  1.00  0.00     0.001 A 
HETATM   29  C   UNL     1      -3.391   4.382 -32.742  1.00  0.00     0.001 A 
ENDBRANCH   2  18
TORSDOF 4
ENDMDL
MODEL 2
REMARK VINA RESULT:      -9.0      1.507      2.487
REMARK  4 active torsions:
REMARK  status: ('A' for Active; 'I' for Inactive)
REMARK    1  A    between atoms: C_4  and  C_5 
REMARK    2  A    between atoms: C_5  and  C_6 
REMARK    3  A    between atoms: C_7  and  N_8 
REMARK       I    between atoms: N_8  and  C_9 
REMARK    4  A    between atoms: C_9  and  C_10 
ROOT
HETATM    1  N   UNL     1      -6.441  -0.298 -31.299  1.00  0.00    -0.321 N 
HETATM    2  C   UNL     1      -5.626   0.548 -30.576  1.00  0.00     0.277 C 
HETATM    3  O   UNL     1      -5.274   0.276 -29.432  1.00  0.00    -0.266 OA
HETATM    4  H   UNL     1      -6.982  -0.905 -30.696  1.00  0.00     0.169 HD
ENDROOT
BRANCH   1   5
HETATM    5  C   UNL     1      -6.950  -0.053 -32.581  1.00  0.00     0.041 A 
HETATM    6  C   UNL     1      -6.186  -0.312 -33.734  1.00  0.00    -0.027 A 
HETATM    7  C   UNL     1      -6.775  -0.076 -34.990  1.00  0.00     0.010 A 
HETATM    8  C   UNL     1      -8.094   0.366 -35.094  1.00  0.00     0.001 A 
HETATM    9  C   UNL     1      -8.855   0.560 -33.945  1.00  0.00     0.002 A 
HETATM   10  C   UNL     1      -8.289   0.335 -32.690  1.00  0.00     0.030 A 
BRANCH   6  11
HETATM   11  C   UNL     1      -4.808  -0.950 -33.689  1.00  0.00     0.079 C 
BRANCH  11  12
HETATM   12  C   UNL     1      -4.809  -2.443 -33.938  1.00  0.00    -0.054 A 
HETATM   13  C   UNL     1      -3.776  -3.256 -33.451  1.00  0.00     0.007 A 
HETATM   14  C   UNL     1      -3.792  -4.633 -33.677  1.00  0.00     0.001 A 
HETATM   15  C   UNL     1      -4.838  -5.214 -34.392  1.00  0.00     0.000 A 
HETATM   16  C   UNL     1      -5.869  -4.417 -34.885  1.00  0.00     0.001 A 
HETATM   17  C   UNL     1      -5.856  -3.040 -34.659  1.00  0.00     0.007 A 
ENDBRANCH  11  12
ENDBRANCH   6  11
ENDBRANCH   1   5
BRANCH   2  18
HETATM   18  C   UNL     1      -5.270   1.919 -31.135  1.00  0.00     0.156 A 
HETATM   19  N   UNL     1      -4.135   2.053 -31.758  1.00  0.00    -0.166 NA
HETATM   20  N   UNL     1      -3.810   3.281 -32.248  1.00  0.00    -0.242 N 
HETATM   21  C   UNL     1      -4.559   4.427 -32.124  1.00  0.00     0.272 A 
HETATM   22  H   UNL     1      -2.928   3.354 -32.747  1.00  0.00     0.192 HD
HETATM   23  O   UNL     1      -4.199   5.501 -32.592  1.00  0.00    -0.266 OA
HETATM   24  C   UNL     1      -5.826   4.295 -31.387  1.00  0.00     0.046 A 
HETATM   25  C   UNL     1      -6.203   3.044 -30.901  1.00  0.00     0.016 A 
HETATM   26  C   UNL     1      -6.634   5.417 -31.170  1.00  0.00     0.018 A 
HETATM   27  C   UNL     1      -7.406   2.914 -30.196  1.00  0.00     0.015 A 
HETATM   28  C   UNL     1      -8.213   4.036 -29.976  1.00  0.00     0.001 A 
HETATM   29  C   UNL     1      -7.826   5.285 -30.460  1.00  0.00     0.001 A 
ENDBRANCH   2  18
TORSDOF 4
ENDMDL
MODEL 3
REMARK VINA RESULT:      -8.8      2.330      3.719
REMARK  4 active torsions:
REMARK  status: ('A' for Active; 'I' for Inactive)
REMARK    1  A    between atoms: C_4  and  C_5 
REMARK    2  A    between atoms: C_5  and  C_6 
REMARK    3  A    between atoms: C_7  and  N_8 
REMARK       I    between atoms: N_8  and  C_9 
REMARK    4  A    between atoms: C_9  and  C_10 
ROOT
HETATM    1  N   UNL     1      -7.956   0.086 -32.762  1.00  0.00    -0.321 N 
HETATM    2  C   UNL     1      -8.497   1.185 -33.399  1.00  0.00     0.277 C 
HETATM    3  O   UNL     1      -9.493   1.087 -34.110  1.00  0.00    -0.266 OA
HETATM    4  H   UNL     1      -8.209  -0.778 -33.225  1.00  0.00     0.169 HD
ENDROOT
BRANCH   1   5
HETATM    5  C   UNL     1      -6.792   0.078 -31.984  1.00  0.00     0.041 A 
HETATM    6  C   UNL     1      -5.555  -0.326 -32.519  1.00  0.00    -0.027 A 
HETATM    7  C   UNL     1      -4.421  -0.274 -31.689  1.00  0.00     0.010 A 
HETATM    8  C   UNL     1      -4.509   0.203 -30.380  1.00  0.00     0.001 A 
HETATM    9  C   UNL     1      -5.728   0.655 -29.886  1.00  0.00     0.002 A 
HETATM   10  C   UNL     1      -6.866   0.609 -30.692  1.00  0.00     0.030 A 
BRANCH   6  11
HETATM   11  C   UNL     1      -5.367  -0.695 -33.980  1.00  0.00     0.079 C 
BRANCH  11  12
HETATM   12  C   UNL     1      -5.435  -2.183 -34.257  1.00  0.00    -0.054 A 
HETATM   13  C   UNL     1      -4.314  -3.003 -34.067  1.00  0.00     0.007 A 
HETATM   14  C   UNL     1      -4.390  -4.375 -34.314  1.00  0.00     0.001 A 
HETATM   15  C   UNL     1      -5.584  -4.942 -34.754  1.00  0.00     0.000 A 
HETATM   16  C   UNL     1      -6.704  -4.137 -34.951  1.00  0.00     0.001 A 
HETATM   17  C   UNL     1      -6.631  -2.766 -34.703  1.00  0.00     0.007 A 
ENDBRANCH  11  12
ENDBRANCH   6  11
ENDBRANCH   1   5
BRANCH   2  18
HETATM   18  C   UNL     1      -7.772   2.523 -33.351  1.00  0.00     0.156 A 
HETATM   19  N   UNL     1      -6.793   2.722 -34.186  1.00  0.00    -0.166 NA
HETATM   20  N   UNL     1      -6.136   3.913 -34.137  1.00  0.00    -0.242 N 
HETATM   21  C   UNL     1      -6.385   4.940 -33.257  1.00  0.00     0.272 A 
HETATM   22  H   UNL     1      -5.389   4.050 -34.812  1.00  0.00     0.192 HD
HETATM   23  O   UNL     1      -5.748   5.987 -33.272  1.00  0.00    -0.266 OA
HETATM   24  C   UNL     1      -7.464   4.709 -32.284  1.00  0.00     0.046 A 
HETATM   25  C   UNL     1      -8.178   3.513 -32.329  1.00  0.00     0.016 A 
HETATM   26  C   UNL     1      -7.759   5.679 -31.318  1.00  0.00     0.018 A 
HETATM   27  C   UNL     1      -9.203   3.288 -31.402  1.00  0.00     0.015 A 
HETATM   28  C   UNL     1      -9.497   4.255 -30.434  1.00  0.00     0.001 A 
HETATM   29  C   UNL     1      -8.775   5.447 -30.391  1.00  0.00     0.001 A 
ENDBRANCH   2  18
TORSDOF 4
ENDMDL
MODEL 4
REMARK VINA RESULT:      -8.7      2.353      4.271
REMARK  4 active torsions:
REMARK  status: ('A' for Active; 'I' for Inactive)
REMARK    1  A    between atoms: C_4  and  C_5 
REMARK    2  A    between atoms: C_5  and  C_6 
REMARK    3  A    between atoms: C_7  and  N_8 
REMARK       I    between atoms: N_8  and  C_9 
REMARK    4  A    between atoms: C_9  and  C_10 
ROOT
HETATM    1  N   UNL     1      -5.772   2.974 -33.161  1.00  0.00    -0.321 N 
HETATM    2  C   UNL     1      -6.689   3.955 -33.482  1.00  0.00     0.277 C 
HETATM    3  O   UNL     1      -6.422   4.843 -34.286  1.00  0.00    -0.266 OA
HETATM    4  H   UNL     1      -4.822   3.276 -33.340  1.00  0.00     0.169 HD
ENDROOT
BRANCH   1   5
HETATM    5  C   UNL     1      -5.953   1.958 -32.215  1.00  0.00     0.041 A 
HETATM    6  C   UNL     1      -6.215   0.632 -32.605  1.00  0.00    -0.027 A 
HETATM    7  C   UNL     1      -6.349  -0.343 -31.600  1.00  0.00     0.010 A 
HETATM    8  C   UNL     1      -6.189  -0.016 -30.253  1.00  0.00     0.001 A 
HETATM    9  C   UNL     1      -5.871   1.289 -29.889  1.00  0.00     0.002 A 
HETATM   10  C   UNL     1      -5.737   2.272 -30.869  1.00  0.00     0.030 A 
BRANCH   6  11
HETATM   11  C   UNL     1      -6.235   0.184 -34.056  1.00  0.00     0.079 C 
BRANCH  11  12
HETATM   12  C   UNL     1      -5.963  -1.292 -34.252  1.00  0.00    -0.054 A 
HETATM   13  C   UNL     1      -6.997  -2.178 -34.583  1.00  0.00     0.007 A 
HETATM   14  C   UNL     1      -6.734  -3.536 -34.773  1.00  0.00     0.001 A 
HETATM   15  C   UNL     1      -5.436  -4.024 -34.631  1.00  0.00     0.000 A 
HETATM   16  C   UNL     1      -4.399  -3.155 -34.298  1.00  0.00     0.001 A 
HETATM   17  C   UNL     1      -4.660  -1.797 -34.110  1.00  0.00     0.007 A 
ENDBRANCH  11  12
ENDBRANCH   6  11
ENDBRANCH   1   5
BRANCH   2  18
HETATM   18  C   UNL     1      -8.007   4.039 -32.723  1.00  0.00     0.156 A 
HETATM   19  N   UNL     1      -8.074   4.833 -31.694  1.00  0.00    -0.166 NA
HETATM   20  N   UNL     1      -9.248   4.902 -31.007  1.00  0.00    -0.242 N 
HETATM   21  C   UNL     1     -10.386   4.179 -31.276  1.00  0.00     0.272 A 
HETATM   22  H   UNL     1      -9.279   5.543 -30.221  1.00  0.00     0.192 HD
HETATM   23  O   UNL     1     -11.408   4.293 -30.610  1.00  0.00    -0.266 OA
HETATM   24  C   UNL     1     -10.308   3.249 -32.414  1.00  0.00     0.046 A 
HETATM   25  C   UNL     1      -9.131   3.180 -33.158  1.00  0.00     0.016 A 
HETATM   26  C   UNL     1     -11.402   2.437 -32.736  1.00  0.00     0.018 A 
HETATM   27  C   UNL     1      -9.051   2.294 -34.239  1.00  0.00     0.015 A 
HETATM   28  C   UNL     1     -10.143   1.480 -34.559  1.00  0.00     0.001 A 
HETATM   29  C   UNL     1     -11.315   1.550 -33.807  1.00  0.00     0.001 A 
ENDBRANCH   2  18
TORSDOF 4
ENDMDL
MODEL 5
REMARK VINA RESULT:      -8.5      2.847      7.415
REMARK  4 active torsions:
REMARK  status: ('A' for Active; 'I' for Inactive)
REMARK    1  A    between atoms: C_4  and  C_5 
REMARK    2  A    between atoms: C_5  and  C_6 
REMARK    3  A    between atoms: C_7  and  N_8 
REMARK       I    between atoms: N_8  and  C_9 
REMARK    4  A    between atoms: C_9  and  C_10 
ROOT
HETATM    1  N   UNL     1      -5.136   4.334 -31.622  1.00  0.00    -0.321 N 
HETATM    2  C   UNL     1      -5.602   3.103 -31.210  1.00  0.00     0.277 C 
HETATM    3  O   UNL     1      -6.232   2.974 -30.164  1.00  0.00    -0.266 OA
HETATM    4  H   UNL     1      -5.035   4.977 -30.846  1.00  0.00     0.169 HD
ENDROOT
BRANCH   1   5
HETATM    5  C   UNL     1      -4.358   4.579 -32.761  1.00  0.00     0.041 A 
HETATM    6  C   UNL     1      -2.952   4.579 -32.701  1.00  0.00    -0.027 A 
HETATM    7  C   UNL     1      -2.235   4.796 -33.891  1.00  0.00     0.010 A 
HETATM    8  C   UNL     1      -2.896   4.969 -35.109  1.00  0.00     0.001 A 
HETATM    9  C   UNL     1      -4.285   4.907 -35.159  1.00  0.00     0.002 A 
HETATM   10  C   UNL     1      -5.015   4.695 -33.989  1.00  0.00     0.030 A 
BRANCH   6  11
HETATM   11  C   UNL     1      -2.177   4.233 -31.442  1.00  0.00     0.079 C 
BRANCH  11  12
HETATM   12  C   UNL     1      -1.304   5.356 -30.924  1.00  0.00    -0.054 A 
HETATM   13  C   UNL     1      -1.861   6.441 -30.231  1.00  0.00     0.007 A 
HETATM   14  C   UNL     1      -1.046   7.466 -29.747  1.00  0.00     0.001 A 
HETATM   15  C   UNL     1       0.332   7.421 -29.952  1.00  0.00     0.000 A 
HETATM   16  C   UNL     1       0.897   6.351 -30.642  1.00  0.00     0.001 A 
HETATM   17  C   UNL     1       0.085   5.324 -31.125  1.00  0.00     0.007 A 
ENDBRANCH  11  12
ENDBRANCH   6  11
ENDBRANCH   1   5
BRANCH   2  18
HETATM   18  C   UNL     1      -5.209   1.847 -31.976  1.00  0.00     0.156 A 
HETATM   19  N   UNL     1      -4.056   1.304 -31.716  1.00  0.00    -0.166 NA
HETATM   20  N   UNL     1      -3.698   0.187 -32.408  1.00  0.00    -0.242 N 
HETATM   21  C   UNL     1      -4.432  -0.422 -33.398  1.00  0.00     0.272 A 
HETATM   22  H   UNL     1      -2.802  -0.228 -32.172  1.00  0.00     0.192 HD
HETATM   23  O   UNL     1      -4.043  -1.427 -33.980  1.00  0.00    -0.266 OA
HETATM   24  C   UNL     1      -5.721   0.207 -33.727  1.00  0.00     0.046 A 
HETATM   25  C   UNL     1      -6.131   1.333 -33.014  1.00  0.00     0.016 A 
HETATM   26  C   UNL     1      -6.518  -0.314 -34.753  1.00  0.00     0.018 A 
HETATM   27  C   UNL     1      -7.355   1.937 -33.326  1.00  0.00     0.015 A 
HETATM   28  C   UNL     1      -8.150   1.418 -34.354  1.00  0.00     0.001 A 
HETATM   29  C   UNL     1      -7.731   0.296 -35.067  1.00  0.00     0.001 A 
ENDBRANCH   2  18
TORSDOF 4
ENDMDL
MODEL 6
REMARK VINA RESULT:      -8.5      2.361      4.596
REMARK  4 active torsions:
REMARK  status: ('A' for Active; 'I' for Inactive)
REMARK    1  A    between atoms: C_4  and  C_5 
REMARK    2  A    between atoms: C_5  and  C_6 
REMARK    3  A    between atoms: C_7  and  N_8 
REMARK       I    between atoms: N_8  and  C_9 
REMARK    4  A    between atoms: C_9  and  C_10 
ROOT
HETATM    1  N   UNL     1      -8.573   1.476 -31.556  1.00  0.00    -0.321 N 
HETATM    2  C   UNL     1      -8.149   2.745 -31.218  1.00  0.00     0.277 C 
HETATM    3  O   UNL     1      -8.605   3.334 -30.243  1.00  0.00    -0.266 OA
HETATM    4  H   UNL     1      -9.493   1.276 -31.182  1.00  0.00     0.169 HD
ENDROOT
BRANCH   1   5
HETATM    5  C   UNL     1      -8.165   0.745 -32.679  1.00  0.00     0.041 A 
HETATM    6  C   UNL     1      -8.782   0.921 -33.931  1.00  0.00    -0.027 A 
HETATM    7  C   UNL     1      -8.296   0.179 -35.023  1.00  0.00     0.010 A 
HETATM    8  C   UNL     1      -7.206  -0.681 -34.880  1.00  0.00     0.001 A 
HETATM    9  C   UNL     1      -6.570  -0.798 -33.648  1.00  0.00     0.002 A 
HETATM   10  C   UNL     1      -7.038  -0.073 -32.552  1.00  0.00     0.030 A 
BRANCH   6  11
HETATM   11  C   UNL     1      -9.859   1.961 -34.184  1.00  0.00     0.079 C 
BRANCH  11  12
HETATM   12  C   UNL     1     -11.269   1.408 -34.171  1.00  0.00    -0.054 A 
HETATM   13  C   UNL     1     -12.305   2.058 -34.856  1.00  0.00     0.007 A 
HETATM   14  C   UNL     1     -13.598   1.534 -34.847  1.00  0.00     0.001 A 
HETATM   15  C   UNL     1     -13.872   0.357 -34.153  1.00  0.00     0.000 A 
HETATM   16  C   UNL     1     -12.853  -0.296 -33.464  1.00  0.00     0.001 A 
HETATM   17  C   UNL     1     -11.558   0.225 -33.474  1.00  0.00     0.007 A 
ENDBRANCH  11  12
ENDBRANCH   6  11
ENDBRANCH   1   5
BRANCH   2  18
HETATM   18  C   UNL     1      -7.210   3.503 -32.147  1.00  0.00     0.156 A 
HETATM   19  N   UNL     1      -7.734   4.275 -33.055  1.00  0.00    -0.166 NA
HETATM   20  N   UNL     1      -6.896   4.945 -33.894  1.00  0.00    -0.242 N 
HETATM   21  C   UNL     1      -5.524   4.866 -33.900  1.00  0.00     0.272 A 
HETATM   22  H   UNL     1      -7.330   5.555 -34.580  1.00  0.00     0.192 HD
HETATM   23  O   UNL     1      -4.833   5.500 -34.689  1.00  0.00    -0.266 OA
HETATM   24  C   UNL     1      -4.923   3.967 -32.902  1.00  0.00     0.046 A 
HETATM   25  C   UNL     1      -5.752   3.291 -32.008  1.00  0.00     0.016 A 
HETATM   26  C   UNL     1      -3.535   3.786 -32.863  1.00  0.00     0.018 A 
HETATM   27  C   UNL     1      -5.185   2.431 -31.059  1.00  0.00     0.015 A 
HETATM   28  C   UNL     1      -3.798   2.248 -31.021  1.00  0.00     0.001 A 
HETATM   29  C   UNL     1      -2.976   2.922 -31.923  1.00  0.00     0.001 A 
ENDBRANCH   2  18
TORSDOF 4
ENDMDL
MODEL 7
REMARK VINA RESULT:      -8.3      2.134      4.673
REMARK  4 active torsions:
REMARK  status: ('A' for Active; 'I' for Inactive)
REMARK    1  A    between atoms: C_4  and  C_5 
REMARK    2  A    between atoms: C_5  and  C_6 
REMARK    3  A    between atoms: C_7  and  N_8 
REMARK       I    between atoms: N_8  and  C_9 
REMARK    4  A    between atoms: C_9  and  C_10 
ROOT
HETATM    1  N   UNL     1      -5.811   3.307 -29.760  1.00  0.00    -0.321 N 
HETATM    2  C   UNL     1      -7.128   3.682 -29.930  1.00  0.00     0.277 C 
HETATM    3  O   UNL     1      -7.948   3.570 -29.023  1.00  0.00    -0.266 OA
HETATM    4  H   UNL     1      -5.707   2.629 -29.015  1.00  0.00     0.169 HD
ENDROOT
BRANCH   1   5
HETATM    5  C   UNL     1      -4.815   3.335 -30.744  1.00  0.00     0.041 A 
HETATM    6  C   UNL     1      -4.506   2.193 -31.506  1.00  0.00    -0.027 A 
HETATM    7  C   UNL     1      -3.519   2.305 -32.502  1.00  0.00     0.010 A 
HETATM    8  C   UNL     1      -2.889   3.524 -32.758  1.00  0.00     0.001 A 
HETATM    9  C   UNL     1      -3.250   4.657 -32.036  1.00  0.00     0.002 A 
HETATM   10  C   UNL     1      -4.224   4.567 -31.041  1.00  0.00     0.030 A 
BRANCH   6  11
HETATM   11  C   UNL     1      -5.271   0.887 -31.387  1.00  0.00     0.079 C 
BRANCH  11  12
HETATM   12  C   UNL     1      -5.952   0.450 -32.667  1.00  0.00    -0.054 A 
HETATM   13  C   UNL     1      -6.462  -0.848 -32.806  1.00  0.00     0.007 A 
HETATM   14  C   UNL     1      -7.097  -1.238 -33.986  1.00  0.00     0.001 A 
HETATM   15  C   UNL     1      -7.229  -0.336 -35.040  1.00  0.00     0.000 A 
HETATM   16  C   UNL     1      -6.723   0.956 -34.917  1.00  0.00     0.001 A 
HETATM   17  C   UNL     1      -6.089   1.348 -33.738  1.00  0.00     0.007 A 
ENDBRANCH  11  12
ENDBRANCH   6  11
ENDBRANCH   1   5
BRANCH   2  18
HETATM   18  C   UNL     1      -7.626   4.104 -31.306  1.00  0.00     0.156 A 
HETATM   19  N   UNL     1      -7.315   5.293 -31.734  1.00  0.00    -0.166 NA
HETATM   20  N   UNL     1      -7.768   5.676 -32.959  1.00  0.00    -0.242 N 
HETATM   21  C   UNL     1      -8.564   4.932 -33.798  1.00  0.00     0.272 A 
HETATM   22  H   UNL     1      -7.496   6.601 -33.278  1.00  0.00     0.192 HD
HETATM   23  O   UNL     1      -8.936   5.345 -34.889  1.00  0.00    -0.266 OA
HETATM   24  C   UNL     1      -8.953   3.600 -33.306  1.00  0.00     0.046 A 
HETATM   25  C   UNL     1      -8.478   3.165 -32.069  1.00  0.00     0.016 A 
HETATM   26  C   UNL     1      -9.799   2.788 -34.069  1.00  0.00     0.018 A 
HETATM   27  C   UNL     1      -8.849   1.901 -31.596  1.00  0.00     0.015 A 
HETATM   28  C   UNL     1      -9.697   1.090 -32.357  1.00  0.00     0.001 A 
HETATM   29  C   UNL     1     -10.173   1.533 -33.590  1.00  0.00     0.001 A 
ENDBRANCH   2  18
TORSDOF 4
ENDMDL
MODEL 8
REMARK VINA RESULT:      -8.2      2.587      5.882
REMARK  4 active torsions:
REMARK  status: ('A' for Active; 'I' for Inactive)
REMARK    1  A    between atoms: C_4  and  C_5 
REMARK    2  A    between atoms: C_5  and  C_6 
REMARK    3  A    between atoms: C_7  and  N_8 
REMARK       I    between atoms: N_8  and  C_9 
REMARK    4  A    between atoms: C_9  and  C_10 
ROOT
HETATM    1  N   UNL     1      -7.150   4.535 -33.557  1.00  0.00    -0.321 N 
HETATM    2  C   UNL     1      -6.011   3.858 -33.945  1.00  0.00     0.277 C 
HETATM    3  O   UNL     1      -5.353   4.216 -34.917  1.00  0.00    -0.266 OA
HETATM    4  H   UNL     1      -7.555   5.057 -34.324  1.00  0.00     0.169 HD
ENDROOT
BRANCH   1   5
HETATM    5  C   UNL     1      -8.003   4.173 -32.507  1.00  0.00     0.041 A 
HETATM    6  C   UNL     1      -9.262   3.595 -32.752  1.00  0.00    -0.027 A 
HETATM    7  C   UNL     1     -10.050   3.224 -31.648  1.00  0.00     0.010 A 
HETATM    8  C   UNL     1      -9.583   3.387 -30.342  1.00  0.00     0.001 A 
HETATM    9  C   UNL     1      -8.311   3.905 -30.120  1.00  0.00     0.002 A 
HETATM   10  C   UNL     1      -7.515   4.283 -31.201  1.00  0.00     0.030 A 
BRANCH   6  11
HETATM   11  C   UNL     1      -9.753   3.240 -34.144  1.00  0.00     0.079 C 
BRANCH  11  12
HETATM   12  C   UNL     1     -10.952   2.316 -34.161  1.00  0.00    -0.054 A 
HETATM   13  C   UNL     1     -12.160   2.712 -34.753  1.00  0.00     0.007 A 
HETATM   14  C   UNL     1     -13.256   1.848 -34.773  1.00  0.00     0.001 A 
HETATM   15  C   UNL     1     -13.159   0.581 -34.199  1.00  0.00     0.000 A 
HETATM   16  C   UNL     1     -11.967   0.177 -33.603  1.00  0.00     0.001 A 
HETATM   17  C   UNL     1     -10.869   1.039 -33.584  1.00  0.00     0.007 A 
ENDBRANCH  11  12
ENDBRANCH   6  11
ENDBRANCH   1   5
BRANCH   2  18
HETATM   18  C   UNL     1      -5.633   2.553 -33.257  1.00  0.00     0.156 A 
HETATM   19  N   UNL     1      -4.768   2.598 -32.286  1.00  0.00    -0.166 NA
HETATM   20  N   UNL     1      -4.420   1.431 -31.677  1.00  0.00    -0.242 N 
HETATM   21  C   UNL     1      -4.875   0.177 -32.010  1.00  0.00     0.272 A 
HETATM   22  H   UNL     1      -3.757   1.496 -30.910  1.00  0.00     0.192 HD
HETATM   23  O   UNL     1      -4.514  -0.832 -31.416  1.00  0.00    -0.266 OA
HETATM   24  C   UNL     1      -5.825   0.111 -33.132  1.00  0.00     0.046 A 
HETATM   25  C   UNL     1      -6.226   1.292 -33.755  1.00  0.00     0.016 A 
HETATM   26  C   UNL     1      -6.308  -1.126 -33.574  1.00  0.00     0.018 A 
HETATM   27  C   UNL     1      -7.127   1.234 -34.826  1.00  0.00     0.015 A 
HETATM   28  C   UNL     1      -7.607  -0.003 -35.269  1.00  0.00     0.001 A 
HETATM   29  C   UNL     1      -7.197  -1.181 -34.646  1.00  0.00     0.001 A 
ENDBRANCH   2  18
TORSDOF 4
ENDMDL
MODEL 9
REMARK VINA RESULT:      -8.2      2.672      5.889
REMARK  4 active torsions:
REMARK  status: ('A' for Active; 'I' for Inactive)
REMARK    1  A    between atoms: C_4  and  C_5 
REMARK    2  A    between atoms: C_5  and  C_6 
REMARK    3  A    between atoms: C_7  and  N_8 
REMARK       I    between atoms: N_8  and  C_9 
REMARK    4  A    between atoms: C_9  and  C_10 
ROOT
HETATM    1  N   UNL     1      -8.533   1.475 -31.307  1.00  0.00    -0.321 N 
HETATM    2  C   UNL     1      -9.257   2.649 -31.267  1.00  0.00     0.277 C 
HETATM    3  O   UNL     1      -9.883   2.982 -30.264  1.00  0.00    -0.266 OA
HETATM    4  H   UNL     1      -8.872   0.801 -30.631  1.00  0.00     0.169 HD
ENDROOT
BRANCH   1   5
HETATM    5  C   UNL     1      -7.840   0.974 -32.416  1.00  0.00     0.041 A 
HETATM    6  C   UNL     1      -6.535   1.404 -32.719  1.00  0.00    -0.027 A 
HETATM    7  C   UNL     1      -5.886   0.831 -33.828  1.00  0.00     0.010 A 
HETATM    8  C   UNL     1      -6.502  -0.166 -34.587  1.00  0.00     0.001 A 
HETATM    9  C   UNL     1      -7.769  -0.621 -34.236  1.00  0.00     0.002 A 
HETATM   10  C   UNL     1      -8.431  -0.064 -33.142  1.00  0.00     0.030 A 
BRANCH   6  11
HETATM   11  C   UNL     1      -5.752   2.360 -31.837  1.00  0.00     0.079 C 
BRANCH  11  12
HETATM   12  C   UNL     1      -4.802   3.264 -32.594  1.00  0.00    -0.054 A 
HETATM   13  C   UNL     1      -3.419   3.208 -32.367  1.00  0.00     0.007 A 
HETATM   14  C   UNL     1      -2.551   4.038 -33.078  1.00  0.00     0.001 A 
HETATM   15  C   UNL     1      -3.053   4.933 -34.021  1.00  0.00     0.000 A 
HETATM   16  C   UNL     1      -4.425   5.001 -34.253  1.00  0.00     0.001 A 
HETATM   17  C   UNL     1      -5.295   4.171 -33.544  1.00  0.00     0.007 A 
ENDBRANCH  11  12
ENDBRANCH   6  11
ENDBRANCH   1   5
BRANCH   2  18
HETATM   18  C   UNL     1      -9.418   3.485 -32.529  1.00  0.00     0.156 A 
HETATM   19  N   UNL     1      -8.652   4.527 -32.678  1.00  0.00    -0.166 NA
HETATM   20  N   UNL     1      -8.802   5.283 -33.801  1.00  0.00    -0.242 N 
HETATM   21  C   UNL     1      -9.719   5.071 -34.803  1.00  0.00     0.272 A 
HETATM   22  H   UNL     1      -8.179   6.079 -33.901  1.00  0.00     0.192 HD
HETATM   23  O   UNL     1      -9.796   5.797 -35.787  1.00  0.00    -0.266 OA
HETATM   24  C   UNL     1     -10.615   3.917 -34.626  1.00  0.00     0.046 A 
HETATM   25  C   UNL     1     -10.466   3.105 -33.503  1.00  0.00     0.016 A 
HETATM   26  C   UNL     1     -11.612   3.649 -35.571  1.00  0.00     0.018 A 
HETATM   27  C   UNL     1     -11.318   2.008 -33.328  1.00  0.00     0.015 A 
HETATM   28  C   UNL     1     -12.317   1.741 -34.271  1.00  0.00     0.001 A 
HETATM   29  C   UNL     1     -12.465   2.562 -35.389  1.00  0.00     0.001 A 
ENDBRANCH   2  18
TORSDOF 4
ENDMDL
MODEL 10
REMARK VINA RESULT:      -8.1      2.962      5.223
REMARK  4 active torsions:
REMARK  status: ('A' for Active; 'I' for Inactive)
REMARK    1  A    between atoms: C_4  and  C_5 
REMARK    2  A    between atoms: C_5  and  C_6 
REMARK    3  A    between atoms: C_7  and  N_8 
REMARK       I    between atoms: N_8  and  C_9 
REMARK    4  A    between atoms: C_9  and  C_10 
ROOT
HETATM    1  N   UNL     1      -6.151   4.163 -32.055  1.00  0.00    -0.321 N 
HETATM    2  C   UNL     1      -5.762   5.390 -32.552  1.00  0.00     0.277 C 
HETATM    3  O   UNL     1      -6.521   6.355 -32.540  1.00  0.00    -0.266 OA
HETATM    4  H   UNL     1      -7.158   4.061 -32.052  1.00  0.00     0.169 HD
ENDROOT
BRANCH   1   5
HETATM    5  C   UNL     1      -5.389   2.988 -32.079  1.00  0.00     0.041 A 
HETATM    6  C   UNL     1      -5.613   1.988 -33.043  1.00  0.00    -0.027 A 
HETATM    7  C   UNL     1      -4.785   0.852 -33.029  1.00  0.00     0.010 A 
HETATM    8  C   UNL     1      -3.742   0.732 -32.109  1.00  0.00     0.001 A 
HETATM    9  C   UNL     1      -3.496   1.757 -31.202  1.00  0.00     0.002 A 
HETATM   10  C   UNL     1      -4.308   2.892 -31.197  1.00  0.00     0.030 A 
BRANCH   6  11
HETATM   11  C   UNL     1      -6.621   2.137 -34.170  1.00  0.00     0.079 C 
BRANCH  11  12
HETATM   12  C   UNL     1      -8.001   1.609 -33.839  1.00  0.00    -0.054 A 
HETATM   13  C   UNL     1      -9.152   2.300 -34.240  1.00  0.00     0.007 A 
HETATM   14  C   UNL     1     -10.420   1.800 -33.940  1.00  0.00     0.001 A 
HETATM   15  C   UNL     1     -10.552   0.605 -33.235  1.00  0.00     0.000 A 
HETATM   16  C   UNL     1      -9.416  -0.090 -32.826  1.00  0.00     0.001 A 
HETATM   17  C   UNL     1      -8.148   0.408 -33.127  1.00  0.00     0.007 A 
ENDBRANCH  11  12
ENDBRANCH   6  11
ENDBRANCH   1   5
BRANCH   2  18
HETATM   18  C   UNL     1      -4.426   5.530 -33.269  1.00  0.00     0.156 A 
HETATM   19  N   UNL     1      -4.378   5.250 -34.540  1.00  0.00    -0.166 NA
HETATM   20  N   UNL     1      -3.182   5.364 -35.181  1.00  0.00    -0.242 N 
HETATM   21  C   UNL     1      -1.986   5.723 -34.606  1.00  0.00     0.272 A 
HETATM   22  H   UNL     1      -3.177   5.159 -36.175  1.00  0.00     0.192 HD
HETATM   23  O   UNL     1      -0.946   5.802 -35.248  1.00  0.00    -0.266 OA
HETATM   24  C   UNL     1      -2.022   6.003 -33.161  1.00  0.00     0.046 A 
HETATM   25  C   UNL     1      -3.238   5.927 -32.483  1.00  0.00     0.016 A 
HETATM   26  C   UNL     1      -0.845   6.331 -32.478  1.00  0.00     0.018 A 
HETATM   27  C   UNL     1      -3.276   6.190 -31.107  1.00  0.00     0.015 A 
HETATM   28  C   UNL     1      -2.099   6.514 -30.424  1.00  0.00     0.001 A 
HETATM   29  C   UNL     1      -0.885   6.582 -31.108  1.00  0.00     0.001 A 
ENDBRANCH   2  18
TORSDOF 4
ENDMDL
