MODEL 1
REMARK VINA RESULT:      -9.5      0.000      0.000
REMARK  5 active torsions:
REMARK  status: ('A' for Active; 'I' for Inactive)
REMARK    1  A    between atoms: C_10  and  C_11 
REMARK    2  A    between atoms: C_13  and  O_14 
REMARK    3  A    between atoms: C_16  and  O_17 
REMARK    4  A    between atoms: O_17  and  C_18 
REMARK    5  A    between atoms: C_18  and  C_19 
ROOT
HETATM    1  C   UNL     1      -4.541   3.467 -31.153  1.00  0.00    -0.013 A 
HETATM    2  C   UNL     1      -4.880   4.627 -30.426  1.00  0.00     0.050 A 
HETATM    3  C   UNL     1      -4.467   5.891 -30.854  1.00  0.00     0.102 A 
HETATM    4  C   UNL     1      -3.713   5.992 -32.032  1.00  0.00     0.112 A 
HETATM    5  C   UNL     1      -3.329   4.854 -32.740  1.00  0.00     0.041 A 
HETATM    6  C   UNL     1      -3.751   3.597 -32.306  1.00  0.00     0.014 A 
ENDROOT
BRANCH   1   7
HETATM    7  C   UNL     1      -5.013   2.098 -30.700  1.00  0.00     0.219 A 
HETATM    8  N   UNL     1      -4.084   1.083 -31.141  1.00  0.00    -0.358 N 
HETATM    9  C   UNL     1      -4.463   0.079 -31.949  1.00  0.00     0.088 A 
HETATM   10  H   UNL     1      -3.107   1.245 -30.912  1.00  0.00     0.162 HD
HETATM   11  C   UNL     1      -5.756  -0.105 -32.374  1.00  0.00     0.073 A 
HETATM   12  S   UNL     1      -3.398  -1.097 -32.563  1.00  0.00    -0.074 SA
HETATM   13  C   UNL     1      -5.879  -1.251 -33.224  1.00  0.00    -0.023 A 
HETATM   14  C   UNL     1      -6.780   0.823 -31.941  1.00  0.00     0.256 A 
HETATM   15  C   UNL     1      -4.659  -1.884 -33.389  1.00  0.00     0.018 A 
HETATM   16  C   UNL     1      -7.131  -1.779 -33.860  1.00  0.00     0.068 C 
HETATM   17  C   UNL     1      -4.432  -3.103 -34.212  1.00  0.00     0.281 C 
HETATM   18  N   UNL     1      -5.758  -3.793 -34.509  1.00  0.00    -0.070 N 
HETATM   19  C   UNL     1      -5.593  -4.939 -35.458  1.00  0.00     0.270 C 
HETATM   20  H   UNL     1      -6.081  -4.178 -33.611  1.00  0.00     0.279 HD
HETATM   21  C   UNL     1      -6.819  -2.798 -34.971  1.00  0.00     0.239 C 
HETATM   22  N   UNL     1      -6.359   1.848 -31.148  1.00  0.00    -0.332 N 
HETATM   23  O   UNL     1      -7.957   0.704 -32.268  1.00  0.00    -0.267 OA
HETATM   24  H   UNL     1      -7.078   2.499 -30.866  1.00  0.00     0.165 HD
ENDBRANCH   1   7
BRANCH   3  25
HETATM   25  O   UNL     1      -4.748   7.069 -30.216  1.00  0.00    -0.353 OA
HETATM   26  C   UNL     1      -4.658   7.088 -28.799  1.00  0.00     0.210 C 
ENDBRANCH   3  25
BRANCH   4  27
HETATM   27  O   UNL     1      -3.331   7.296 -32.423  1.00  0.00    -0.272 OA
BRANCH  27  28
HETATM   28  C   UNL     1      -2.013   7.591 -32.709  1.00  0.00     0.300 C 
HETATM   29  O   UNL     1      -1.491   7.830 -33.783  1.00  0.00    -0.259 OA
BRANCH  28  30
HETATM   30  C   UNL     1      -1.265   7.504 -31.447  1.00  0.00     0.061 A 
HETATM   31  C   UNL     1      -1.488   8.408 -30.402  1.00  0.00     0.051 A 
HETATM   32 CL   UNL     1      -2.632   9.697 -30.518  1.00  0.00    -0.083 Cl
HETATM   33  C   UNL     1      -0.744   8.300 -29.224  1.00  0.00     0.048 A 
HETATM   34  C   UNL     1       0.219   7.299 -29.103  1.00  0.00     0.035 A 
HETATM   35 CL   UNL     1       1.134   7.172 -27.651  1.00  0.00    -0.084 Cl
HETATM   36  C   UNL     1       0.455   6.407 -30.149  1.00  0.00     0.025 A 
HETATM   37  C   UNL     1      -0.283   6.511 -31.330  1.00  0.00     0.021 A 
ENDBRANCH  28  30
ENDBRANCH  27  28
ENDBRANCH   4  27
TORSDOF 5
ENDMDL
MODEL 2
REMARK VINA RESULT:      -9.5      4.653     10.054
REMARK  5 active torsions:
REMARK  status: ('A' for Active; 'I' for Inactive)
REMARK    1  A    between atoms: C_10  and  C_11 
REMARK    2  A    between atoms: C_13  and  O_14 
REMARK    3  A    between atoms: C_16  and  O_17 
REMARK    4  A    between atoms: O_17  and  C_18 
REMARK    5  A    between atoms: C_18  and  C_19 
ROOT
HETATM    1  C   UNL     1      -2.939   5.039 -32.857  1.00  0.00    -0.013 A 
HETATM    2  C   UNL     1      -4.150   5.321 -33.524  1.00  0.00     0.050 A 
HETATM    3  C   UNL     1      -5.143   4.346 -33.654  1.00  0.00     0.102 A 
HETATM    4  C   UNL     1      -4.920   3.078 -33.101  1.00  0.00     0.112 A 
HETATM    5  C   UNL     1      -3.713   2.765 -32.478  1.00  0.00     0.041 A 
HETATM    6  C   UNL     1      -2.730   3.748 -32.349  1.00  0.00     0.014 A 
ENDROOT
BRANCH   1   7
HETATM    7  C   UNL     1      -1.874   6.107 -32.694  1.00  0.00     0.219 A 
HETATM    8  N   UNL     1      -1.025   5.791 -31.568  1.00  0.00    -0.358 N 
HETATM    9  C   UNL     1      -0.903   6.621 -30.520  1.00  0.00     0.088 A 
HETATM   10  H   UNL     1      -0.631   4.854 -31.558  1.00  0.00     0.162 HD
HETATM   11  C   UNL     1      -1.515   7.849 -30.448  1.00  0.00     0.073 A 
HETATM   12  S   UNL     1       0.018   6.267 -29.134  1.00  0.00    -0.074 SA
HETATM   13  C   UNL     1      -1.213   8.523 -29.222  1.00  0.00    -0.023 A 
HETATM   14  C   UNL     1      -2.342   8.289 -31.552  1.00  0.00     0.256 A 
HETATM   15  C   UNL     1      -0.372   7.765 -28.428  1.00  0.00     0.018 A 
HETATM   16  C   UNL     1      -1.680   9.884 -28.797  1.00  0.00     0.068 C 
HETATM   17  C   UNL     1       0.135   8.168 -27.088  1.00  0.00     0.281 C 
HETATM   18  N   UNL     1      -0.051   9.667 -26.884  1.00  0.00    -0.070 N 
HETATM   19  C   UNL     1       0.307  10.092 -25.493  1.00  0.00     0.270 C 
HETATM   20  H   UNL     1       0.611  10.121 -27.527  1.00  0.00     0.279 HD
HETATM   21  C   UNL     1      -1.449  10.122 -27.293  1.00  0.00     0.239 C 
HETATM   22  N   UNL     1      -2.472   7.413 -32.587  1.00  0.00    -0.332 N 
HETATM   23  O   UNL     1      -2.901   9.382 -31.560  1.00  0.00    -0.267 OA
HETATM   24  H   UNL     1      -3.064   7.723 -33.344  1.00  0.00     0.165 HD
ENDBRANCH   1   7
BRANCH   3  25
HETATM   25  O   UNL     1      -6.346   4.528 -34.281  1.00  0.00    -0.353 OA
HETATM   26  C   UNL     1      -7.356   5.235 -33.576  1.00  0.00     0.210 C 
ENDBRANCH   3  25
BRANCH   4  27
HETATM   27  O   UNL     1      -5.963   2.134 -33.253  1.00  0.00    -0.272 OA
BRANCH  27  28
HETATM   28  C   UNL     1      -6.136   1.116 -32.337  1.00  0.00     0.300 C 
HETATM   29  O   UNL     1      -6.253   1.179 -31.126  1.00  0.00    -0.259 OA
BRANCH  28  30
HETATM   30  C   UNL     1      -6.088  -0.150 -33.081  1.00  0.00     0.061 A 
HETATM   31  C   UNL     1      -7.254  -0.776 -33.534  1.00  0.00     0.051 A 
HETATM   32 CL   UNL     1      -8.828  -0.127 -33.240  1.00  0.00    -0.083 Cl
HETATM   33  C   UNL     1      -7.167  -1.987 -34.224  1.00  0.00     0.048 A 
HETATM   34  C   UNL     1      -5.919  -2.567 -34.448  1.00  0.00     0.035 A 
HETATM   35 CL   UNL     1      -5.816  -4.060 -35.296  1.00  0.00    -0.084 Cl
HETATM   36  C   UNL     1      -4.754  -1.955 -33.983  1.00  0.00     0.025 A 
HETATM   37  C   UNL     1      -4.836  -0.744 -33.291  1.00  0.00     0.021 A 
ENDBRANCH  28  30
ENDBRANCH  27  28
ENDBRANCH   4  27
TORSDOF 5
ENDMDL
MODEL 3
REMARK VINA RESULT:      -9.4      4.523     10.021
REMARK  5 active torsions:
REMARK  status: ('A' for Active; 'I' for Inactive)
REMARK    1  A    between atoms: C_10  and  C_11 
REMARK    2  A    between atoms: C_13  and  O_14 
REMARK    3  A    between atoms: C_16  and  O_17 
REMARK    4  A    between atoms: O_17  and  C_18 
REMARK    5  A    between atoms: C_18  and  C_19 
ROOT
HETATM    1  C   UNL     1      -2.966   5.020 -32.946  1.00  0.00    -0.013 A 
HETATM    2  C   UNL     1      -4.203   5.253 -33.581  1.00  0.00     0.050 A 
HETATM    3  C   UNL     1      -5.160   4.240 -33.687  1.00  0.00     0.102 A 
HETATM    4  C   UNL     1      -4.873   2.981 -33.140  1.00  0.00     0.112 A 
HETATM    5  C   UNL     1      -3.638   2.717 -32.549  1.00  0.00     0.041 A 
HETATM    6  C   UNL     1      -2.692   3.738 -32.445  1.00  0.00     0.014 A 
ENDROOT
BRANCH   1   7
HETATM    7  C   UNL     1      -1.940   6.129 -32.810  1.00  0.00     0.219 A 
HETATM    8  N   UNL     1      -1.008   5.814 -31.751  1.00  0.00    -0.358 N 
HETATM    9  C   UNL     1      -0.856   6.613 -30.682  1.00  0.00     0.088 A 
HETATM   10  H   UNL     1      -0.573   4.896 -31.800  1.00  0.00     0.162 HD
HETATM   11  C   UNL     1      -1.515   7.808 -30.527  1.00  0.00     0.073 A 
HETATM   12  S   UNL     1       0.165   6.254 -29.370  1.00  0.00    -0.074 SA
HETATM   13  C   UNL     1      -1.166   8.453 -29.298  1.00  0.00    -0.023 A 
HETATM   14  C   UNL     1      -2.429   8.248 -31.561  1.00  0.00     0.256 A 
HETATM   15  C   UNL     1      -0.244   7.707 -28.586  1.00  0.00     0.018 A 
HETATM   16  C   UNL     1      -1.664   9.776 -28.795  1.00  0.00     0.068 C 
HETATM   17  C   UNL     1       0.328   8.087 -27.265  1.00  0.00     0.281 C 
HETATM   18  N   UNL     1       0.091   9.568 -26.995  1.00  0.00    -0.070 N 
HETATM   19  C   UNL     1       0.517   9.961 -25.615  1.00  0.00     0.270 C 
HETATM   20  H   UNL     1       0.690  10.074 -27.660  1.00  0.00     0.279 HD
HETATM   21  C   UNL     1      -1.349   9.972 -27.301  1.00  0.00     0.239 C 
HETATM   22  N   UNL     1      -2.586   7.402 -32.618  1.00  0.00    -0.332 N 
HETATM   23  O   UNL     1      -3.035   9.313 -31.494  1.00  0.00    -0.267 OA
HETATM   24  H   UNL     1      -3.238   7.710 -33.325  1.00  0.00     0.165 HD
ENDBRANCH   1   7
BRANCH   3  25
HETATM   25  O   UNL     1      -6.385   4.374 -34.282  1.00  0.00    -0.353 OA
HETATM   26  C   UNL     1      -7.345   5.198 -33.636  1.00  0.00     0.210 C 
ENDBRANCH   3  25
BRANCH   4  27
HETATM   27  O   UNL     1      -5.881   1.997 -33.267  1.00  0.00    -0.272 OA
BRANCH  27  28
HETATM   28  C   UNL     1      -5.997   0.980 -32.341  1.00  0.00     0.300 C 
HETATM   29  O   UNL     1      -6.065   1.046 -31.126  1.00  0.00    -0.259 OA
BRANCH  28  30
HETATM   30  C   UNL     1      -5.956  -0.288 -33.082  1.00  0.00     0.061 A 
HETATM   31  C   UNL     1      -4.812  -1.095 -33.087  1.00  0.00     0.051 A 
HETATM   32 CL   UNL     1      -3.366  -0.658 -32.249  1.00  0.00    -0.083 Cl
HETATM   33  C   UNL     1      -4.808  -2.286 -33.816  1.00  0.00     0.048 A 
HETATM   34  C   UNL     1      -5.941  -2.657 -34.540  1.00  0.00     0.035 A 
HETATM   35 CL   UNL     1      -5.931  -4.124 -35.440  1.00  0.00    -0.084 Cl
HETATM   36  C   UNL     1      -7.078  -1.848 -34.551  1.00  0.00     0.025 A 
HETATM   37  C   UNL     1      -7.085  -0.655 -33.825  1.00  0.00     0.021 A 
ENDBRANCH  28  30
ENDBRANCH  27  28
ENDBRANCH   4  27
TORSDOF 5
ENDMDL
MODEL 4
REMARK VINA RESULT:      -9.3      0.648      1.634
REMARK  5 active torsions:
REMARK  status: ('A' for Active; 'I' for Inactive)
REMARK    1  A    between atoms: C_10  and  C_11 
REMARK    2  A    between atoms: C_13  and  O_14 
REMARK    3  A    between atoms: C_16  and  O_17 
REMARK    4  A    between atoms: O_17  and  C_18 
REMARK    5  A    between atoms: C_18  and  C_19 
ROOT
HETATM    1  C   UNL     1      -4.594   3.620 -31.170  1.00  0.00    -0.013 A 
HETATM    2  C   UNL     1      -4.020   3.797 -32.446  1.00  0.00     0.050 A 
HETATM    3  C   UNL     1      -3.595   5.057 -32.876  1.00  0.00     0.102 A 
HETATM    4  C   UNL     1      -3.740   6.150 -32.009  1.00  0.00     0.112 A 
HETATM    5  C   UNL     1      -4.345   6.005 -30.762  1.00  0.00     0.041 A 
HETATM    6  C   UNL     1      -4.762   4.740 -30.342  1.00  0.00     0.014 A 
ENDROOT
BRANCH   1   7
HETATM    7  C   UNL     1      -5.030   2.247 -30.697  1.00  0.00     0.219 A 
HETATM    8  N   UNL     1      -4.097   1.244 -31.158  1.00  0.00    -0.358 N 
HETATM    9  C   UNL     1      -4.482   0.230 -31.949  1.00  0.00     0.088 A 
HETATM   10  H   UNL     1      -3.117   1.424 -30.956  1.00  0.00     0.162 HD
HETATM   11  C   UNL     1      -5.783   0.022 -32.338  1.00  0.00     0.073 A 
HETATM   12  S   UNL     1      -3.415  -0.932 -32.585  1.00  0.00    -0.074 SA
HETATM   13  C   UNL     1      -5.910  -1.131 -33.177  1.00  0.00    -0.023 A 
HETATM   14  C   UNL     1      -6.810   0.936 -31.882  1.00  0.00     0.256 A 
HETATM   15  C   UNL     1      -4.685  -1.745 -33.372  1.00  0.00     0.018 A 
HETATM   16  C   UNL     1      -7.170  -1.682 -33.776  1.00  0.00     0.068 C 
HETATM   17  C   UNL     1      -4.460  -2.965 -34.195  1.00  0.00     0.281 C 
HETATM   18  N   UNL     1      -5.783  -3.678 -34.451  1.00  0.00    -0.070 N 
HETATM   19  C   UNL     1      -5.625  -4.826 -35.398  1.00  0.00     0.270 C 
HETATM   20  H   UNL     1      -6.074  -4.063 -33.543  1.00  0.00     0.279 HD
HETATM   21  C   UNL     1      -6.872  -2.703 -34.890  1.00  0.00     0.239 C 
HETATM   22  N   UNL     1      -6.384   1.972 -31.107  1.00  0.00    -0.332 N 
HETATM   23  O   UNL     1      -7.992   0.796 -32.176  1.00  0.00    -0.267 OA
HETATM   24  H   UNL     1      -7.105   2.613 -30.808  1.00  0.00     0.165 HD
ENDBRANCH   1   7
BRANCH   3  25
HETATM   25  O   UNL     1      -3.028   5.324 -34.093  1.00  0.00    -0.353 OA
HETATM   26  C   UNL     1      -3.851   5.207 -35.244  1.00  0.00     0.210 C 
ENDBRANCH   3  25
BRANCH   4  27
HETATM   27  O   UNL     1      -3.283   7.398 -32.491  1.00  0.00    -0.272 OA
BRANCH  27  28
HETATM   28  C   UNL     1      -1.941   7.617 -32.730  1.00  0.00     0.300 C 
HETATM   29  O   UNL     1      -1.369   7.828 -33.785  1.00  0.00    -0.259 OA
BRANCH  28  30
HETATM   30  C   UNL     1      -1.243   7.481 -31.444  1.00  0.00     0.061 A 
HETATM   31  C   UNL     1      -1.464   8.380 -30.395  1.00  0.00     0.051 A 
HETATM   32 CL   UNL     1      -2.545   9.720 -30.534  1.00  0.00    -0.083 Cl
HETATM   33  C   UNL     1      -0.768   8.226 -29.193  1.00  0.00     0.048 A 
HETATM   34  C   UNL     1       0.145   7.181 -29.052  1.00  0.00     0.035 A 
HETATM   35 CL   UNL     1       1.001   6.996 -27.571  1.00  0.00    -0.084 Cl
HETATM   36  C   UNL     1       0.380   6.292 -30.102  1.00  0.00     0.025 A 
HETATM   37  C   UNL     1      -0.311   6.444 -31.306  1.00  0.00     0.021 A 
ENDBRANCH  28  30
ENDBRANCH  27  28
ENDBRANCH   4  27
TORSDOF 5
ENDMDL
MODEL 5
REMARK VINA RESULT:      -8.6      4.082      9.729
REMARK  5 active torsions:
REMARK  status: ('A' for Active; 'I' for Inactive)
REMARK    1  A    between atoms: C_10  and  C_11 
REMARK    2  A    between atoms: C_13  and  O_14 
REMARK    3  A    between atoms: C_16  and  O_17 
REMARK    4  A    between atoms: O_17  and  C_18 
REMARK    5  A    between atoms: C_18  and  C_19 
ROOT
HETATM    1  C   UNL     1      -3.548   3.913 -32.989  1.00  0.00    -0.013 A 
HETATM    2  C   UNL     1      -3.217   2.688 -32.373  1.00  0.00     0.050 A 
HETATM    3  C   UNL     1      -4.144   1.645 -32.303  1.00  0.00     0.102 A 
HETATM    4  C   UNL     1      -5.414   1.831 -32.867  1.00  0.00     0.112 A 
HETATM    5  C   UNL     1      -5.776   3.049 -33.440  1.00  0.00     0.041 A 
HETATM    6  C   UNL     1      -4.840   4.083 -33.509  1.00  0.00     0.014 A 
ENDROOT
BRANCH   1   7
HETATM    7  C   UNL     1      -2.531   5.034 -33.087  1.00  0.00     0.219 A 
HETATM    8  N   UNL     1      -1.402   4.755 -32.228  1.00  0.00    -0.358 N 
HETATM    9  C   UNL     1      -1.052   5.583 -31.230  1.00  0.00     0.088 A 
HETATM   10  H   UNL     1      -0.973   3.840 -32.341  1.00  0.00     0.162 HD
HETATM   11  C   UNL     1      -1.684   6.775 -30.975  1.00  0.00     0.073 A 
HETATM   12  S   UNL     1       0.215   5.267 -30.139  1.00  0.00    -0.074 SA
HETATM   13  C   UNL     1      -1.106   7.455 -29.855  1.00  0.00    -0.023 A 
HETATM   14  C   UNL     1      -2.792   7.179 -31.815  1.00  0.00     0.256 A 
HETATM   15  C   UNL     1      -0.050   6.736 -29.324  1.00  0.00     0.018 A 
HETATM   16  C   UNL     1      -1.513   8.785 -29.293  1.00  0.00     0.068 C 
HETATM   17  C   UNL     1       0.768   7.155 -28.154  1.00  0.00     0.281 C 
HETATM   18  N   UNL     1       0.569   8.640 -27.876  1.00  0.00    -0.070 N 
HETATM   19  C   UNL     1       1.255   9.072 -26.618  1.00  0.00     0.270 C 
HETATM   20  H   UNL     1       1.016   9.134 -28.659  1.00  0.00     0.279 HD
HETATM   21  C   UNL     1      -0.909   9.023 -27.897  1.00  0.00     0.239 C 
HETATM   22  N   UNL     1      -3.144   6.305 -32.799  1.00  0.00    -0.332 N 
HETATM   23  O   UNL     1      -3.387   8.240 -31.654  1.00  0.00    -0.267 OA
HETATM   24  H   UNL     1      -3.928   6.589 -33.369  1.00  0.00     0.165 HD
ENDBRANCH   1   7
BRANCH   3  25
HETATM   25  O   UNL     1      -3.913   0.424 -31.728  1.00  0.00    -0.353 OA
HETATM   26  C   UNL     1      -3.041  -0.469 -32.406  1.00  0.00     0.210 C 
ENDBRANCH   3  25
BRANCH   4  27
HETATM   27  O   UNL     1      -6.308   0.739 -32.777  1.00  0.00    -0.272 OA
BRANCH  27  28
HETATM   28  C   UNL     1      -7.194   0.635 -31.724  1.00  0.00     0.300 C 
HETATM   29  O   UNL     1      -7.019   0.174 -30.610  1.00  0.00    -0.259 OA
BRANCH  28  30
HETATM   30  C   UNL     1      -8.492   1.136 -32.197  1.00  0.00     0.061 A 
HETATM   31  C   UNL     1      -8.989   2.379 -31.787  1.00  0.00     0.051 A 
HETATM   32 CL   UNL     1      -8.135   3.401 -30.686  1.00  0.00    -0.083 Cl
HETATM   33  C   UNL     1     -10.234   2.812 -32.247  1.00  0.00     0.048 A 
HETATM   34  C   UNL     1     -10.975   2.000 -33.106  1.00  0.00     0.035 A 
HETATM   35 CL   UNL     1     -12.510   2.537 -33.669  1.00  0.00    -0.084 Cl
HETATM   36  C   UNL     1     -10.490   0.754 -33.504  1.00  0.00     0.025 A 
HETATM   37  C   UNL     1      -9.247   0.315 -33.044  1.00  0.00     0.021 A 
ENDBRANCH  28  30
ENDBRANCH  27  28
ENDBRANCH   4  27
TORSDOF 5
ENDMDL
MODEL 6
REMARK VINA RESULT:      -8.5      4.652      9.673
REMARK  5 active torsions:
REMARK  status: ('A' for Active; 'I' for Inactive)
REMARK    1  A    between atoms: C_10  and  C_11 
REMARK    2  A    between atoms: C_13  and  O_14 
REMARK    3  A    between atoms: C_16  and  O_17 
REMARK    4  A    between atoms: O_17  and  C_18 
REMARK    5  A    between atoms: C_18  and  C_19 
ROOT
HETATM    1  C   UNL     1      -4.795   5.063 -32.224  1.00  0.00    -0.013 A 
HETATM    2  C   UNL     1      -6.069   4.844 -32.787  1.00  0.00     0.050 A 
HETATM    3  C   UNL     1      -6.460   3.572 -33.211  1.00  0.00     0.102 A 
HETATM    4  C   UNL     1      -5.562   2.505 -33.059  1.00  0.00     0.112 A 
HETATM    5  C   UNL     1      -4.282   2.708 -32.548  1.00  0.00     0.041 A 
HETATM    6  C   UNL     1      -3.904   3.983 -32.124  1.00  0.00     0.014 A 
ENDROOT
BRANCH   1   7
HETATM    7  C   UNL     1      -4.383   6.441 -31.741  1.00  0.00     0.219 A 
HETATM    8  N   UNL     1      -2.949   6.591 -31.835  1.00  0.00    -0.358 N 
HETATM    9  C   UNL     1      -2.192   6.848 -30.756  1.00  0.00     0.088 A 
HETATM   10  H   UNL     1      -2.536   6.363 -32.737  1.00  0.00     0.162 HD
HETATM   11  C   UNL     1      -2.707   7.047 -29.498  1.00  0.00     0.073 A 
HETATM   12  S   UNL     1      -0.495   6.955 -30.794  1.00  0.00    -0.074 SA
HETATM   13  C   UNL     1      -1.678   7.303 -28.536  1.00  0.00    -0.023 A 
HETATM   14  C   UNL     1      -4.140   6.978 -29.304  1.00  0.00     0.256 A 
HETATM   15  C   UNL     1      -0.427   7.293 -29.128  1.00  0.00     0.018 A 
HETATM   16  C   UNL     1      -1.853   7.585 -27.074  1.00  0.00     0.068 C 
HETATM   17  C   UNL     1       0.859   7.521 -28.414  1.00  0.00     0.281 C 
HETATM   18  N   UNL     1       0.602   8.164 -27.057  1.00  0.00    -0.070 N 
HETATM   19  C   UNL     1       1.853   8.274 -26.243  1.00  0.00     0.270 C 
HETATM   20  H   UNL     1       0.276   9.119 -27.256  1.00  0.00     0.279 HD
HETATM   21  C   UNL     1      -0.525   7.460 -26.305  1.00  0.00     0.239 C 
HETATM   22  N   UNL     1      -4.879   6.684 -30.411  1.00  0.00    -0.332 N 
HETATM   23  O   UNL     1      -4.666   7.164 -28.211  1.00  0.00    -0.267 OA
HETATM   24  H   UNL     1      -5.875   6.622 -30.261  1.00  0.00     0.165 HD
ENDBRANCH   1   7
BRANCH   3  25
HETATM   25  O   UNL     1      -7.673   3.264 -33.765  1.00  0.00    -0.353 OA
HETATM   26  C   UNL     1      -8.600   4.325 -33.952  1.00  0.00     0.210 C 
ENDBRANCH   3  25
BRANCH   4  27
HETATM   27  O   UNL     1      -6.014   1.238 -33.496  1.00  0.00    -0.272 OA
BRANCH  27  28
HETATM   28  C   UNL     1      -6.327   0.247 -32.587  1.00  0.00     0.300 C 
HETATM   29  O   UNL     1      -7.035   0.303 -31.597  1.00  0.00    -0.259 OA
BRANCH  28  30
HETATM   30  C   UNL     1      -5.575  -0.954 -32.977  1.00  0.00     0.061 A 
HETATM   31  C   UNL     1      -5.986  -1.758 -34.047  1.00  0.00     0.051 A 
HETATM   32 CL   UNL     1      -7.407  -1.418 -34.969  1.00  0.00    -0.083 Cl
HETATM   33  C   UNL     1      -5.252  -2.899 -34.376  1.00  0.00     0.048 A 
HETATM   34  C   UNL     1      -4.121  -3.233 -33.632  1.00  0.00     0.035 A 
HETATM   35 CL   UNL     1      -3.221  -4.642 -34.040  1.00  0.00    -0.084 Cl
HETATM   36  C   UNL     1      -3.717  -2.443 -32.555  1.00  0.00     0.025 A 
HETATM   37  C   UNL     1      -4.449  -1.302 -32.220  1.00  0.00     0.021 A 
ENDBRANCH  28  30
ENDBRANCH  27  28
ENDBRANCH   4  27
TORSDOF 5
ENDMDL
MODEL 7
REMARK VINA RESULT:      -8.4      3.431      4.498
REMARK  5 active torsions:
REMARK  status: ('A' for Active; 'I' for Inactive)
REMARK    1  A    between atoms: C_10  and  C_11 
REMARK    2  A    between atoms: C_13  and  O_14 
REMARK    3  A    between atoms: C_16  and  O_17 
REMARK    4  A    between atoms: O_17  and  C_18 
REMARK    5  A    between atoms: C_18  and  C_19 
ROOT
HETATM    1  C   UNL     1      -5.031   3.473 -31.386  1.00  0.00    -0.013 A 
HETATM    2  C   UNL     1      -5.141   4.386 -32.455  1.00  0.00     0.050 A 
HETATM    3  C   UNL     1      -4.006   4.851 -33.125  1.00  0.00     0.102 A 
HETATM    4  C   UNL     1      -2.747   4.385 -32.722  1.00  0.00     0.112 A 
HETATM    5  C   UNL     1      -2.612   3.517 -31.640  1.00  0.00     0.041 A 
HETATM    6  C   UNL     1      -3.753   3.057 -30.980  1.00  0.00     0.014 A 
ENDROOT
BRANCH   1   7
HETATM    7  C   UNL     1      -6.266   2.951 -30.678  1.00  0.00     0.219 A 
HETATM    8  N   UNL     1      -6.833   1.847 -31.419  1.00  0.00    -0.358 N 
HETATM    9  C   UNL     1      -8.086   1.887 -31.900  1.00  0.00     0.088 A 
HETATM   10  H   UNL     1      -6.188   1.099 -31.664  1.00  0.00     0.162 HD
HETATM   11  C   UNL     1      -8.948   2.934 -31.686  1.00  0.00     0.073 A 
HETATM   12  S   UNL     1      -8.777   0.653 -32.845  1.00  0.00    -0.074 SA
HETATM   13  C   UNL     1     -10.218   2.715 -32.310  1.00  0.00    -0.023 A 
HETATM   14  C   UNL     1      -8.500   4.068 -30.903  1.00  0.00     0.256 A 
HETATM   15  C   UNL     1     -10.250   1.495 -32.962  1.00  0.00     0.018 A 
HETATM   16  C   UNL     1     -11.412   3.622 -32.279  1.00  0.00     0.068 C 
HETATM   17  C   UNL     1     -11.417   0.957 -33.714  1.00  0.00     0.281 C 
HETATM   18  N   UNL     1     -12.683   1.717 -33.336  1.00  0.00    -0.070 N 
HETATM   19  C   UNL     1     -13.852   1.310 -34.178  1.00  0.00     0.270 C 
HETATM   20  H   UNL     1     -12.891   1.448 -32.365  1.00  0.00     0.279 HD
HETATM   21  C   UNL     1     -12.456   3.226 -33.339  1.00  0.00     0.239 C 
HETATM   22  N   UNL     1      -7.214   4.012 -30.456  1.00  0.00    -0.332 N 
HETATM   23  O   UNL     1      -9.226   5.026 -30.658  1.00  0.00    -0.267 OA
HETATM   24  H   UNL     1      -6.907   4.815 -29.925  1.00  0.00     0.165 HD
ENDBRANCH   1   7
BRANCH   3  25
HETATM   25  O   UNL     1      -4.016   5.734 -34.171  1.00  0.00    -0.353 OA
HETATM   26  C   UNL     1      -3.992   5.198 -35.486  1.00  0.00     0.210 C 
ENDBRANCH   3  25
BRANCH   4  27
HETATM   27  O   UNL     1      -1.635   4.880 -33.442  1.00  0.00    -0.272 OA
BRANCH  27  28
HETATM   28  C   UNL     1      -1.180   6.168 -33.244  1.00  0.00     0.300 C 
HETATM   29  O   UNL     1      -1.060   7.076 -34.047  1.00  0.00    -0.259 OA
BRANCH  28  30
HETATM   30  C   UNL     1      -0.771   6.273 -31.837  1.00  0.00     0.061 A 
HETATM   31  C   UNL     1      -1.372   7.191 -30.968  1.00  0.00     0.051 A 
HETATM   32 CL   UNL     1      -2.614   8.277 -31.480  1.00  0.00    -0.083 Cl
HETATM   33  C   UNL     1      -0.944   7.270 -29.641  1.00  0.00     0.048 A 
HETATM   34  C   UNL     1       0.085   6.440 -29.195  1.00  0.00     0.035 A 
HETATM   35 CL   UNL     1       0.611   6.543 -27.560  1.00  0.00    -0.084 Cl
HETATM   36  C   UNL     1       0.697   5.535 -30.063  1.00  0.00     0.025 A 
HETATM   37  C   UNL     1       0.274   5.454 -31.391  1.00  0.00     0.021 A 
ENDBRANCH  28  30
ENDBRANCH  27  28
ENDBRANCH   4  27
TORSDOF 5
ENDMDL
MODEL 8
REMARK VINA RESULT:      -8.3      7.059     10.097
REMARK  5 active torsions:
REMARK  status: ('A' for Active; 'I' for Inactive)
REMARK    1  A    between atoms: C_10  and  C_11 
REMARK    2  A    between atoms: C_13  and  O_14 
REMARK    3  A    between atoms: C_16  and  O_17 
REMARK    4  A    between atoms: O_17  and  C_18 
REMARK    5  A    between atoms: C_18  and  C_19 
ROOT
HETATM    1  C   UNL     1     -10.846   1.643 -33.044  1.00  0.00    -0.013 A 
HETATM    2  C   UNL     1     -10.017   2.591 -32.409  1.00  0.00     0.050 A 
HETATM    3  C   UNL     1      -8.714   2.263 -32.024  1.00  0.00     0.102 A 
HETATM    4  C   UNL     1      -8.236   0.972 -32.288  1.00  0.00     0.112 A 
HETATM    5  C   UNL     1      -9.055   0.007 -32.874  1.00  0.00     0.041 A 
HETATM    6  C   UNL     1     -10.353   0.347 -33.258  1.00  0.00     0.014 A 
ENDROOT
BRANCH   1   7
HETATM    7  C   UNL     1     -12.251   2.009 -33.484  1.00  0.00     0.219 A 
HETATM    8  N   UNL     1     -12.198   2.992 -34.542  1.00  0.00    -0.358 N 
HETATM    9  C   UNL     1     -12.768   4.201 -34.413  1.00  0.00     0.088 A 
HETATM   10  H   UNL     1     -11.598   2.764 -35.331  1.00  0.00     0.162 HD
HETATM   11  C   UNL     1     -13.490   4.587 -33.310  1.00  0.00     0.073 A 
HETATM   12  S   UNL     1     -12.670   5.424 -35.592  1.00  0.00    -0.074 SA
HETATM   13  C   UNL     1     -13.985   5.924 -33.439  1.00  0.00    -0.023 A 
HETATM   14  C   UNL     1     -13.655   3.654 -32.215  1.00  0.00     0.256 A 
HETATM   15  C   UNL     1     -13.614   6.480 -34.650  1.00  0.00     0.018 A 
HETATM   16  C   UNL     1     -14.826   6.679 -32.452  1.00  0.00     0.068 C 
HETATM   17  C   UNL     1     -13.960   7.856 -35.102  1.00  0.00     0.281 C 
HETATM   18  N   UNL     1     -15.100   8.416 -34.260  1.00  0.00    -0.070 N 
HETATM   19  C   UNL     1     -15.380   9.851 -34.580  1.00  0.00     0.270 C 
HETATM   20  H   UNL     1     -15.933   7.872 -34.519  1.00  0.00     0.279 HD
HETATM   21  C   UNL     1     -14.865   8.184 -32.770  1.00  0.00     0.239 C 
HETATM   22  N   UNL     1     -13.040   2.447 -32.361  1.00  0.00    -0.332 N 
HETATM   23  O   UNL     1     -14.304   3.928 -31.210  1.00  0.00    -0.267 OA
HETATM   24  H   UNL     1     -13.147   1.811 -31.584  1.00  0.00     0.165 HD
ENDBRANCH   1   7
BRANCH   3  25
HETATM   25  O   UNL     1      -7.838   3.115 -31.405  1.00  0.00    -0.353 OA
HETATM   26  C   UNL     1      -8.034   3.371 -30.022  1.00  0.00     0.210 C 
ENDBRANCH   3  25
BRANCH   4  27
HETATM   27  O   UNL     1      -6.908   0.699 -31.887  1.00  0.00    -0.272 OA
BRANCH  27  28
HETATM   28  C   UNL     1      -5.853   0.891 -32.756  1.00  0.00     0.300 C 
HETATM   29  O   UNL     1      -5.474   1.916 -33.295  1.00  0.00    -0.259 OA
BRANCH  28  30
HETATM   30  C   UNL     1      -5.251  -0.426 -33.006  1.00  0.00     0.061 A 
HETATM   31  C   UNL     1      -5.617  -1.197 -34.115  1.00  0.00     0.051 A 
HETATM   32 CL   UNL     1      -6.809  -0.678 -35.253  1.00  0.00    -0.083 Cl
HETATM   33  C   UNL     1      -5.033  -2.451 -34.309  1.00  0.00     0.048 A 
HETATM   34  C   UNL     1      -4.096  -2.927 -33.392  1.00  0.00     0.035 A 
HETATM   35 CL   UNL     1      -3.381  -4.473 -33.634  1.00  0.00    -0.084 Cl
HETATM   36  C   UNL     1      -3.741  -2.168 -32.277  1.00  0.00     0.025 A 
HETATM   37  C   UNL     1      -4.324  -0.914 -32.077  1.00  0.00     0.021 A 
ENDBRANCH  28  30
ENDBRANCH  27  28
ENDBRANCH   4  27
TORSDOF 5
ENDMDL
MODEL 9
REMARK VINA RESULT:      -8.2      6.420      9.347
REMARK  5 active torsions:
REMARK  status: ('A' for Active; 'I' for Inactive)
REMARK    1  A    between atoms: C_10  and  C_11 
REMARK    2  A    between atoms: C_13  and  O_14 
REMARK    3  A    between atoms: C_16  and  O_17 
REMARK    4  A    between atoms: O_17  and  C_18 
REMARK    5  A    between atoms: C_18  and  C_19 
ROOT
HETATM    1  C   UNL     1      -9.427   2.816 -31.051  1.00  0.00    -0.013 A 
HETATM    2  C   UNL     1      -8.257   3.153 -30.339  1.00  0.00     0.050 A 
HETATM    3  C   UNL     1      -7.116   2.350 -30.410  1.00  0.00     0.102 A 
HETATM    4  C   UNL     1      -7.147   1.201 -31.213  1.00  0.00     0.112 A 
HETATM    5  C   UNL     1      -8.307   0.826 -31.889  1.00  0.00     0.041 A 
HETATM    6  C   UNL     1      -9.441   1.638 -31.814  1.00  0.00     0.014 A 
ENDROOT
BRANCH   1   7
HETATM    7  C   UNL     1     -10.656   3.703 -30.993  1.00  0.00     0.219 A 
HETATM    8  N   UNL     1     -11.539   3.400 -32.097  1.00  0.00    -0.358 N 
HETATM    9  C   UNL     1     -11.877   4.329 -33.007  1.00  0.00     0.088 A 
HETATM   10  H   UNL     1     -11.780   2.420 -32.217  1.00  0.00     0.162 HD
HETATM   11  C   UNL     1     -11.473   5.640 -32.940  1.00  0.00     0.073 A 
HETATM   12  S   UNL     1     -12.846   4.011 -34.369  1.00  0.00    -0.074 SA
HETATM   13  C   UNL     1     -11.980   6.409 -34.035  1.00  0.00    -0.023 A 
HETATM   14  C   UNL     1     -10.635   6.063 -31.837  1.00  0.00     0.256 A 
HETATM   15  C   UNL     1     -12.756   5.632 -34.876  1.00  0.00     0.018 A 
HETATM   16  C   UNL     1     -11.769   7.873 -34.290  1.00  0.00     0.068 C 
HETATM   17  C   UNL     1     -13.432   6.117 -36.110  1.00  0.00     0.281 C 
HETATM   18  N   UNL     1     -13.501   7.640 -36.109  1.00  0.00    -0.070 N 
HETATM   19  C   UNL     1     -14.037   8.177 -37.399  1.00  0.00     0.270 C 
HETATM   20  H   UNL     1     -14.169   7.889 -35.368  1.00  0.00     0.279 HD
HETATM   21  C   UNL     1     -12.162   8.264 -35.726  1.00  0.00     0.239 C 
HETATM   22  N   UNL     1     -10.282   5.093 -30.949  1.00  0.00    -0.332 N 
HETATM   23  O   UNL     1     -10.255   7.223 -31.708  1.00  0.00    -0.267 OA
HETATM   24  H   UNL     1      -9.683   5.395 -30.194  1.00  0.00     0.165 HD
ENDBRANCH   1   7
BRANCH   3  25
HETATM   25  O   UNL     1      -5.938   2.597 -29.758  1.00  0.00    -0.353 OA
HETATM   26  C   UNL     1      -5.256   3.805 -30.064  1.00  0.00     0.210 C 
ENDBRANCH   3  25
BRANCH   4  27
HETATM   27  O   UNL     1      -5.961   0.433 -31.256  1.00  0.00    -0.272 OA
BRANCH  27  28
HETATM   28  C   UNL     1      -5.060   0.579 -32.292  1.00  0.00     0.300 C 
HETATM   29  O   UNL     1      -4.686   1.594 -32.852  1.00  0.00    -0.259 OA
BRANCH  28  30
HETATM   30  C   UNL     1      -4.637  -0.770 -32.694  1.00  0.00     0.061 A 
HETATM   31  C   UNL     1      -5.196  -1.409 -33.807  1.00  0.00     0.051 A 
HETATM   32 CL   UNL     1      -6.429  -0.680 -34.772  1.00  0.00    -0.083 Cl
HETATM   33  C   UNL     1      -4.778  -2.697 -34.146  1.00  0.00     0.048 A 
HETATM   34  C   UNL     1      -3.814  -3.339 -33.369  1.00  0.00     0.035 A 
HETATM   35 CL   UNL     1      -3.304  -4.928 -33.790  1.00  0.00    -0.084 Cl
HETATM   36  C   UNL     1      -3.266  -2.712 -32.250  1.00  0.00     0.025 A 
HETATM   37  C   UNL     1      -3.683  -1.424 -31.905  1.00  0.00     0.021 A 
ENDBRANCH  28  30
ENDBRANCH  27  28
ENDBRANCH   4  27
TORSDOF 5
ENDMDL
MODEL 10
REMARK VINA RESULT:      -8.2      4.419      9.693
REMARK  5 active torsions:
REMARK  status: ('A' for Active; 'I' for Inactive)
REMARK    1  A    between atoms: C_10  and  C_11 
REMARK    2  A    between atoms: C_13  and  O_14 
REMARK    3  A    between atoms: C_16  and  O_17 
REMARK    4  A    between atoms: O_17  and  C_18 
REMARK    5  A    between atoms: C_18  and  C_19 
ROOT
HETATM    1  C   UNL     1      -2.755   5.348 -32.667  1.00  0.00    -0.013 A 
HETATM    2  C   UNL     1      -3.984   5.431 -33.353  1.00  0.00     0.050 A 
HETATM    3  C   UNL     1      -4.827   4.322 -33.459  1.00  0.00     0.102 A 
HETATM    4  C   UNL     1      -4.434   3.117 -32.860  1.00  0.00     0.112 A 
HETATM    5  C   UNL     1      -3.203   3.000 -32.217  1.00  0.00     0.041 A 
HETATM    6  C   UNL     1      -2.371   4.117 -32.114  1.00  0.00     0.014 A 
ENDROOT
BRANCH   1   7
HETATM    7  C   UNL     1      -1.855   6.561 -32.532  1.00  0.00     0.219 A 
HETATM    8  N   UNL     1      -0.918   6.364 -31.449  1.00  0.00    -0.358 N 
HETATM    9  C   UNL     1      -0.874   7.192 -30.393  1.00  0.00     0.088 A 
HETATM   10  H   UNL     1      -0.388   5.496 -31.472  1.00  0.00     0.162 HD
HETATM   11  C   UNL     1      -1.658   8.313 -30.274  1.00  0.00     0.073 A 
HETATM   12  S   UNL     1       0.151   6.965 -29.054  1.00  0.00    -0.074 SA
HETATM   13  C   UNL     1      -1.406   9.013 -29.051  1.00  0.00    -0.023 A 
HETATM   14  C   UNL     1      -2.591   8.637 -31.334  1.00  0.00     0.256 A 
HETATM   15  C   UNL     1      -0.426   8.380 -28.306  1.00  0.00     0.018 A 
HETATM   16  C   UNL     1      -2.051  10.283 -28.582  1.00  0.00     0.068 C 
HETATM   17  C   UNL     1       0.075   8.841 -26.983  1.00  0.00     0.281 C 
HETATM   18  N   UNL     1      -0.322  10.293 -26.745  1.00  0.00    -0.070 N 
HETATM   19  C   UNL     1       0.030  10.751 -25.364  1.00  0.00     0.270 C 
HETATM   20  H   UNL     1       0.234  10.848 -27.408  1.00  0.00     0.279 HD
HETATM   21  C   UNL     1      -1.790  10.537 -27.086  1.00  0.00     0.239 C 
HETATM   22  N   UNL     1      -2.636   7.761 -32.377  1.00  0.00    -0.332 N 
HETATM   23  O   UNL     1      -3.307   9.633 -31.299  1.00  0.00    -0.267 OA
HETATM   24  H   UNL     1      -3.301   7.987 -33.102  1.00  0.00     0.165 HD
ENDBRANCH   1   7
BRANCH   3  25
HETATM   25  O   UNL     1      -6.036   4.309 -34.102  1.00  0.00    -0.353 OA
HETATM   26  C   UNL     1      -7.059   5.155 -33.597  1.00  0.00     0.210 C 
ENDBRANCH   3  25
BRANCH   4  27
HETATM   27  O   UNL     1      -5.329   2.030 -32.989  1.00  0.00    -0.272 OA
BRANCH  27  28
HETATM   28  C   UNL     1      -5.824   1.385 -31.873  1.00  0.00     0.300 C 
HETATM   29  O   UNL     1      -5.384   0.413 -31.285  1.00  0.00    -0.259 OA
BRANCH  28  30
HETATM   30  C   UNL     1      -7.086   2.046 -31.513  1.00  0.00     0.061 A 
HETATM   31  C   UNL     1      -7.138   3.027 -30.517  1.00  0.00     0.051 A 
HETATM   32 CL   UNL     1      -5.742   3.518 -29.626  1.00  0.00    -0.083 Cl
HETATM   33  C   UNL     1      -8.360   3.621 -30.193  1.00  0.00     0.048 A 
HETATM   34  C   UNL     1      -9.519   3.225 -30.860  1.00  0.00     0.035 A 
HETATM   35 CL   UNL     1     -11.023   3.957 -30.456  1.00  0.00    -0.084 Cl
HETATM   36  C   UNL     1      -9.474   2.235 -31.842  1.00  0.00     0.025 A 
HETATM   37  C   UNL     1      -8.255   1.637 -32.168  1.00  0.00     0.021 A 
ENDBRANCH  28  30
ENDBRANCH  27  28
ENDBRANCH   4  27
TORSDOF 5
ENDMDL
