MODEL 1
REMARK VINA RESULT:      -8.1      0.000      0.000
REMARK  5 active torsions:
REMARK  status: ('A' for Active; 'I' for Inactive)
REMARK    1  A    between atoms: C_2  and  N_3 
REMARK       I    between atoms: N_3  and  C_4 
REMARK       I    between atoms: C_4  and  N_5 
REMARK    2  A    between atoms: C_7  and  C_8 
REMARK    3  A    between atoms: C_13  and  N_14 
REMARK       I    between atoms: N_14  and  C_15 
REMARK    4  A    between atoms: C_15  and  C_16 
REMARK    5  A    between atoms: C_19  and  O_20 
ROOT
HETATM    1  C   UNL     1      -7.024   2.962 -32.161  1.00  0.00     0.088 A 
HETATM    2  N   UNL     1      -7.550   3.700 -33.148  1.00  0.00    -0.177 NA
HETATM    3  N   UNL     1      -6.524   3.911 -33.980  1.00  0.00    -0.287 N 
HETATM    4  H   UNL     1      -6.679   4.492 -34.798  1.00  0.00     0.188 HD
HETATM    5  C   UNL     1      -5.369   3.295 -33.592  1.00  0.00     0.141 A 
HETATM    6  C   UNL     1      -5.656   2.625 -32.430  1.00  0.00     0.079 A 
ENDROOT
BRANCH   1   7
HETATM    7  C   UNL     1      -7.828   2.609 -30.928  1.00  0.00     0.060 C 
HETATM    8  C   UNL     1      -9.284   2.200 -31.209  1.00  0.00     0.138 C 
HETATM    9  N   UNL     1     -10.197   3.328 -31.456  1.00  0.00    -0.334 N 
HETATM   10  C   UNL     1     -11.385   3.194 -32.169  1.00  0.00     0.318 C 
HETATM   11  C   UNL     1     -10.127   4.426 -30.501  1.00  0.00     0.127 C 
HETATM   12  N   UNL     1     -11.391   2.144 -33.053  1.00  0.00    -0.339 N 
HETATM   13  O   UNL     1     -12.344   3.944 -32.017  1.00  0.00    -0.247 OA
HETATM   14  H   UNL     1     -10.488   2.024 -33.492  1.00  0.00     0.164 HD
HETATM   15  C   UNL     1      -8.697   4.898 -30.265  1.00  0.00     0.021 C 
HETATM   16  C   UNL     1      -7.786   3.736 -29.882  1.00  0.00     0.014 C 
BRANCH  12  17
HETATM   17  C   UNL     1     -12.531   1.797 -33.892  1.00  0.00     0.078 C 
HETATM   18  C   UNL     1     -12.966   0.347 -33.693  1.00  0.00     0.032 C 
HETATM   19  C   UNL     1     -12.313   2.123 -35.369  1.00  0.00     0.032 C 
ENDBRANCH  12  17
ENDBRANCH   1   7
BRANCH   6  20
HETATM   20  N   UNL     1      -4.858   1.828 -31.632  1.00  0.00    -0.320 N 
HETATM   21  C   UNL     1      -4.567   0.488 -31.649  1.00  0.00     0.256 C 
HETATM   22  O   UNL     1      -3.747   0.038 -30.848  1.00  0.00    -0.267 OA
HETATM   23  H   UNL     1      -4.334   2.303 -30.908  1.00  0.00     0.169 HD
BRANCH  21  24
HETATM   24  C   UNL     1      -5.162  -0.443 -32.615  1.00  0.00     0.032 A 
HETATM   25  C   UNL     1      -6.546  -0.549 -32.757  1.00  0.00     0.020 A 
HETATM   26  C   UNL     1      -7.071  -1.499 -33.638  1.00  0.00     0.038 A 
HETATM   27  C   UNL     1      -6.225  -2.365 -34.345  1.00  0.00     0.068 A 
HETATM   28  C   UNL     1      -4.842  -2.269 -34.172  1.00  0.00     0.038 A 
HETATM   29  C   UNL     1      -4.310  -1.313 -33.303  1.00  0.00     0.020 A 
BRANCH  27  30
HETATM   30  O   UNL     1      -6.868  -3.252 -35.164  1.00  0.00    -0.356 OA
HETATM   31  C   UNL     1      -6.335  -4.570 -35.222  1.00  0.00     0.210 C 
ENDBRANCH  27  30
ENDBRANCH  21  24
ENDBRANCH   6  20
TORSDOF 5
ENDMDL
MODEL 2
REMARK VINA RESULT:      -8.0      3.920      6.623
REMARK  5 active torsions:
REMARK  status: ('A' for Active; 'I' for Inactive)
REMARK    1  A    between atoms: C_2  and  N_3 
REMARK       I    between atoms: N_3  and  C_4 
REMARK       I    between atoms: C_4  and  N_5 
REMARK    2  A    between atoms: C_7  and  C_8 
REMARK    3  A    between atoms: C_13  and  N_14 
REMARK       I    between atoms: N_14  and  C_15 
REMARK    4  A    between atoms: C_15  and  C_16 
REMARK    5  A    between atoms: C_19  and  O_20 
ROOT
HETATM    1  C   UNL     1      -4.969   4.252 -32.397  1.00  0.00     0.088 A 
HETATM    2  N   UNL     1      -5.244   4.985 -33.484  1.00  0.00    -0.177 NA
HETATM    3  N   UNL     1      -6.512   4.676 -33.775  1.00  0.00    -0.287 N 
HETATM    4  H   UNL     1      -6.932   5.090 -34.601  1.00  0.00     0.188 HD
HETATM    5  C   UNL     1      -7.080   3.808 -32.888  1.00  0.00     0.141 A 
HETATM    6  C   UNL     1      -6.125   3.534 -31.942  1.00  0.00     0.079 A 
ENDROOT
BRANCH   1   7
HETATM    7  C   UNL     1      -3.574   4.206 -31.810  1.00  0.00     0.060 C 
HETATM    8  C   UNL     1      -3.061   5.553 -31.272  1.00  0.00     0.138 C 
HETATM    9  N   UNL     1      -2.572   6.476 -32.309  1.00  0.00    -0.334 N 
HETATM   10  C   UNL     1      -2.516   7.855 -32.125  1.00  0.00     0.318 C 
HETATM   11  C   UNL     1      -1.654   5.908 -33.288  1.00  0.00     0.127 C 
HETATM   12  N   UNL     1      -3.404   8.331 -31.193  1.00  0.00    -0.339 N 
HETATM   13  O   UNL     1      -1.737   8.579 -32.736  1.00  0.00    -0.247 OA
HETATM   14  H   UNL     1      -4.283   7.833 -31.230  1.00  0.00     0.164 HD
HETATM   15  C   UNL     1      -2.178   4.611 -33.890  1.00  0.00     0.021 C 
HETATM   16  C   UNL     1      -2.561   3.610 -32.803  1.00  0.00     0.014 C 
BRANCH  12  17
HETATM   17  C   UNL     1      -3.512   9.735 -30.819  1.00  0.00     0.078 C 
HETATM   18  C   UNL     1      -2.670  10.064 -29.589  1.00  0.00     0.032 C 
HETATM   19  C   UNL     1      -4.957  10.206 -30.656  1.00  0.00     0.032 C 
ENDBRANCH  12  17
ENDBRANCH   1   7
BRANCH   6  20
HETATM   20  N   UNL     1      -6.179   2.738 -30.815  1.00  0.00    -0.320 N 
HETATM   21  C   UNL     1      -5.916   1.409 -30.598  1.00  0.00     0.256 C 
HETATM   22  O   UNL     1      -5.975   0.961 -29.454  1.00  0.00    -0.267 OA
HETATM   23  H   UNL     1      -6.414   3.206 -29.949  1.00  0.00     0.169 HD
BRANCH  21  24
HETATM   24  C   UNL     1      -5.521   0.492 -31.674  1.00  0.00     0.032 A 
HETATM   25  C   UNL     1      -6.468  -0.279 -32.349  1.00  0.00     0.020 A 
HETATM   26  C   UNL     1      -6.040  -1.192 -33.318  1.00  0.00     0.038 A 
HETATM   27  C   UNL     1      -4.676  -1.365 -33.585  1.00  0.00     0.068 A 
HETATM   28  C   UNL     1      -3.735  -0.609 -32.882  1.00  0.00     0.038 A 
HETATM   29  C   UNL     1      -4.157   0.314 -31.922  1.00  0.00     0.020 A 
BRANCH  27  30
HETATM   30  O   UNL     1      -4.394  -2.297 -34.548  1.00  0.00    -0.356 OA
HETATM   31  C   UNL     1      -5.488  -3.070 -35.027  1.00  0.00     0.210 C 
ENDBRANCH  27  30
ENDBRANCH  21  24
ENDBRANCH   6  20
TORSDOF 5
ENDMDL
MODEL 3
REMARK VINA RESULT:      -8.0      4.706      7.377
REMARK  5 active torsions:
REMARK  status: ('A' for Active; 'I' for Inactive)
REMARK    1  A    between atoms: C_2  and  N_3 
REMARK       I    between atoms: N_3  and  C_4 
REMARK       I    between atoms: C_4  and  N_5 
REMARK    2  A    between atoms: C_7  and  C_8 
REMARK    3  A    between atoms: C_13  and  N_14 
REMARK       I    between atoms: N_14  and  C_15 
REMARK    4  A    between atoms: C_15  and  C_16 
REMARK    5  A    between atoms: C_19  and  O_20 
ROOT
HETATM    1  C   UNL     1      -4.670   5.144 -32.428  1.00  0.00     0.088 A 
HETATM    2  N   UNL     1      -5.675   5.203 -31.544  1.00  0.00    -0.177 NA
HETATM    3  N   UNL     1      -5.586   6.434 -31.029  1.00  0.00    -0.287 N 
HETATM    4  H   UNL     1      -6.235   6.697 -30.294  1.00  0.00     0.188 HD
HETATM    5  C   UNL     1      -4.591   7.187 -31.583  1.00  0.00     0.141 A 
HETATM    6  C   UNL     1      -3.991   6.402 -32.535  1.00  0.00     0.079 A 
ENDROOT
BRANCH   1   7
HETATM    7  C   UNL     1      -4.331   3.856 -33.150  1.00  0.00     0.060 C 
HETATM    8  C   UNL     1      -5.495   2.856 -33.255  1.00  0.00     0.138 C 
HETATM    9  N   UNL     1      -5.742   2.079 -32.030  1.00  0.00    -0.334 N 
HETATM   10  C   UNL     1      -6.974   1.497 -31.742  1.00  0.00     0.318 C 
HETATM   11  C   UNL     1      -4.571   1.472 -31.411  1.00  0.00     0.127 C 
HETATM   12  N   UNL     1      -8.039   2.113 -32.351  1.00  0.00    -0.339 N 
HETATM   13  O   UNL     1      -7.097   0.518 -31.014  1.00  0.00    -0.247 OA
HETATM   14  H   UNL     1      -7.917   3.116 -32.386  1.00  0.00     0.164 HD
HETATM   15  C   UNL     1      -3.431   2.466 -31.228  1.00  0.00     0.021 C 
HETATM   16  C   UNL     1      -3.096   3.173 -32.538  1.00  0.00     0.014 C 
BRANCH  12  17
HETATM   17  C   UNL     1      -9.419   1.668 -32.214  1.00  0.00     0.078 C 
HETATM   18  C   UNL     1      -9.734   0.491 -33.133  1.00  0.00     0.032 C 
HETATM   19  C   UNL     1     -10.436   2.798 -32.379  1.00  0.00     0.032 C 
ENDBRANCH  12  17
ENDBRANCH   1   7
BRANCH   6  20
HETATM   20  N   UNL     1      -2.950   6.678 -33.400  1.00  0.00    -0.320 N 
HETATM   21  C   UNL     1      -1.590   6.744 -33.233  1.00  0.00     0.256 C 
HETATM   22  O   UNL     1      -0.870   6.943 -34.211  1.00  0.00    -0.267 OA
HETATM   23  H   UNL     1      -3.203   6.822 -34.370  1.00  0.00     0.169 HD
BRANCH  21  24
HETATM   24  C   UNL     1      -0.940   6.545 -31.932  1.00  0.00     0.032 A 
HETATM   25  C   UNL     1      -0.390   5.311 -31.581  1.00  0.00     0.020 A 
HETATM   26  C   UNL     1       0.156   5.145 -30.304  1.00  0.00     0.038 A 
HETATM   27  C   UNL     1       0.121   6.189 -29.370  1.00  0.00     0.068 A 
HETATM   28  C   UNL     1      -0.459   7.409 -29.722  1.00  0.00     0.038 A 
HETATM   29  C   UNL     1      -0.995   7.586 -31.001  1.00  0.00     0.020 A 
BRANCH  27  30
HETATM   30  O   UNL     1       0.680   5.890 -28.157  1.00  0.00    -0.356 OA
HETATM   31  C   UNL     1      -0.041   6.305 -27.002  1.00  0.00     0.210 C 
ENDBRANCH  27  30
ENDBRANCH  21  24
ENDBRANCH   6  20
TORSDOF 5
ENDMDL
MODEL 4
REMARK VINA RESULT:      -7.9      3.530      6.960
REMARK  5 active torsions:
REMARK  status: ('A' for Active; 'I' for Inactive)
REMARK    1  A    between atoms: C_2  and  N_3 
REMARK       I    between atoms: N_3  and  C_4 
REMARK       I    between atoms: C_4  and  N_5 
REMARK    2  A    between atoms: C_7  and  C_8 
REMARK    3  A    between atoms: C_13  and  N_14 
REMARK       I    between atoms: N_14  and  C_15 
REMARK    4  A    between atoms: C_15  and  C_16 
REMARK    5  A    between atoms: C_19  and  O_20 
ROOT
HETATM    1  C   UNL     1      -4.815   2.159 -31.286  1.00  0.00     0.088 A 
HETATM    2  N   UNL     1      -5.127   2.977 -30.273  1.00  0.00    -0.177 NA
HETATM    3  N   UNL     1      -5.618   2.161 -29.333  1.00  0.00    -0.287 N 
HETATM    4  H   UNL     1      -5.964   2.572 -28.471  1.00  0.00     0.188 HD
HETATM    5  C   UNL     1      -5.589   0.842 -29.685  1.00  0.00     0.141 A 
HETATM    6  C   UNL     1      -5.031   0.785 -30.937  1.00  0.00     0.079 A 
ENDROOT
BRANCH   1   7
HETATM    7  C   UNL     1      -4.341   2.701 -32.618  1.00  0.00     0.060 C 
HETATM    8  C   UNL     1      -3.114   3.624 -32.534  1.00  0.00     0.138 C 
HETATM    9  N   UNL     1      -3.415   5.000 -32.105  1.00  0.00    -0.334 N 
HETATM   10  C   UNL     1      -2.464   5.832 -31.521  1.00  0.00     0.318 C 
HETATM   11  C   UNL     1      -4.527   5.652 -32.785  1.00  0.00     0.127 C 
HETATM   12  N   UNL     1      -1.444   5.162 -30.895  1.00  0.00    -0.339 N 
HETATM   13  O   UNL     1      -2.530   7.056 -31.567  1.00  0.00    -0.247 OA
HETATM   14  H   UNL     1      -1.777   4.326 -30.433  1.00  0.00     0.164 HD
HETATM   15  C   UNL     1      -5.779   4.783 -32.813  1.00  0.00     0.021 C 
HETATM   16  C   UNL     1      -5.480   3.398 -33.383  1.00  0.00     0.014 C 
BRANCH  12  17
HETATM   17  C   UNL     1      -0.326   5.823 -30.233  1.00  0.00     0.078 C 
HETATM   18  C   UNL     1       0.475   6.693 -31.197  1.00  0.00     0.032 C 
HETATM   19  C   UNL     1       0.575   4.857 -29.464  1.00  0.00     0.032 C 
ENDBRANCH  12  17
ENDBRANCH   1   7
BRANCH   6  20
HETATM   20  N   UNL     1      -4.749  -0.300 -31.746  1.00  0.00    -0.320 N 
HETATM   21  C   UNL     1      -5.407  -0.866 -32.807  1.00  0.00     0.256 C 
HETATM   22  O   UNL     1      -4.886  -1.806 -33.408  1.00  0.00    -0.267 OA
HETATM   23  H   UNL     1      -3.867  -0.765 -31.576  1.00  0.00     0.169 HD
BRANCH  21  24
HETATM   24  C   UNL     1      -6.701  -0.374 -33.295  1.00  0.00     0.032 A 
HETATM   25  C   UNL     1      -6.836   0.149 -34.581  1.00  0.00     0.020 A 
HETATM   26  C   UNL     1      -8.071   0.672 -34.979  1.00  0.00     0.038 A 
HETATM   27  C   UNL     1      -9.152   0.709 -34.089  1.00  0.00     0.068 A 
HETATM   28  C   UNL     1      -8.996   0.211 -32.794  1.00  0.00     0.038 A 
HETATM   29  C   UNL     1      -7.769  -0.325 -32.394  1.00  0.00     0.020 A 
BRANCH  27  30
HETATM   30  O   UNL     1     -10.297   1.256 -34.603  1.00  0.00    -0.356 OA
HETATM   31  C   UNL     1     -11.440   1.257 -33.755  1.00  0.00     0.210 C 
ENDBRANCH  27  30
ENDBRANCH  21  24
ENDBRANCH   6  20
TORSDOF 5
ENDMDL
MODEL 5
REMARK VINA RESULT:      -7.7      3.321      5.366
REMARK  5 active torsions:
REMARK  status: ('A' for Active; 'I' for Inactive)
REMARK    1  A    between atoms: C_2  and  N_3 
REMARK       I    between atoms: N_3  and  C_4 
REMARK       I    between atoms: C_4  and  N_5 
REMARK    2  A    between atoms: C_7  and  C_8 
REMARK    3  A    between atoms: C_13  and  N_14 
REMARK       I    between atoms: N_14  and  C_15 
REMARK    4  A    between atoms: C_15  and  C_16 
REMARK    5  A    between atoms: C_19  and  O_20 
ROOT
HETATM    1  C   UNL     1      -7.057   2.147 -31.151  1.00  0.00     0.088 A 
HETATM    2  N   UNL     1      -6.757   1.716 -29.919  1.00  0.00    -0.177 NA
HETATM    3  N   UNL     1      -6.426   0.432 -30.093  1.00  0.00    -0.287 N 
HETATM    4  H   UNL     1      -6.195  -0.122 -29.274  1.00  0.00     0.188 HD
HETATM    5  C   UNL     1      -6.455   0.032 -31.399  1.00  0.00     0.141 A 
HETATM    6  C   UNL     1      -6.820   1.131 -32.135  1.00  0.00     0.079 A 
ENDROOT
BRANCH   1   7
HETATM    7  C   UNL     1      -7.615   3.535 -31.385  1.00  0.00     0.060 C 
HETATM    8  C   UNL     1      -6.624   4.524 -32.024  1.00  0.00     0.138 C 
HETATM    9  N   UNL     1      -5.646   5.098 -31.086  1.00  0.00    -0.334 N 
HETATM   10  C   UNL     1      -4.418   5.611 -31.497  1.00  0.00     0.318 C 
HETATM   11  C   UNL     1      -6.188   5.618 -29.837  1.00  0.00     0.127 C 
HETATM   12  N   UNL     1      -3.959   5.082 -32.677  1.00  0.00    -0.339 N 
HETATM   13  O   UNL     1      -3.806   6.464 -30.864  1.00  0.00    -0.247 OA
HETATM   14  H   UNL     1      -4.179   4.098 -32.753  1.00  0.00     0.164 HD
HETATM   15  C   UNL     1      -7.114   4.624 -29.148  1.00  0.00     0.021 C 
HETATM   16  C   UNL     1      -8.205   4.133 -30.097  1.00  0.00     0.014 C 
BRANCH  12  17
HETATM   17  C   UNL     1      -2.709   5.481 -33.312  1.00  0.00     0.078 C 
HETATM   18  C   UNL     1      -2.739   5.259 -34.822  1.00  0.00     0.032 C 
HETATM   19  C   UNL     1      -1.478   4.840 -32.672  1.00  0.00     0.032 C 
ENDBRANCH  12  17
ENDBRANCH   1   7
BRANCH   6  20
HETATM   20  N   UNL     1      -6.978   1.286 -33.499  1.00  0.00    -0.320 N 
HETATM   21  C   UNL     1      -6.773   0.445 -34.562  1.00  0.00     0.256 C 
HETATM   22  O   UNL     1      -7.070   0.822 -35.696  1.00  0.00    -0.267 OA
HETATM   23  H   UNL     1      -7.362   2.171 -33.805  1.00  0.00     0.169 HD
BRANCH  21  24
HETATM   24  C   UNL     1      -6.249  -0.918 -34.408  1.00  0.00     0.032 A 
HETATM   25  C   UNL     1      -4.908  -1.144 -34.096  1.00  0.00     0.020 A 
HETATM   26  C   UNL     1      -4.435  -2.458 -34.030  1.00  0.00     0.038 A 
HETATM   27  C   UNL     1      -5.282  -3.539 -34.311  1.00  0.00     0.068 A 
HETATM   28  C   UNL     1      -6.615  -3.298 -34.652  1.00  0.00     0.038 A 
HETATM   29  C   UNL     1      -7.097  -1.988 -34.708  1.00  0.00     0.020 A 
BRANCH  27  30
HETATM   30  O   UNL     1      -4.689  -4.769 -34.220  1.00  0.00    -0.356 OA
HETATM   31  C   UNL     1      -3.368  -4.804 -33.693  1.00  0.00     0.210 C 
ENDBRANCH  27  30
ENDBRANCH  21  24
ENDBRANCH   6  20
TORSDOF 5
ENDMDL
MODEL 6
REMARK VINA RESULT:      -7.7      4.013      6.484
REMARK  5 active torsions:
REMARK  status: ('A' for Active; 'I' for Inactive)
REMARK    1  A    between atoms: C_2  and  N_3 
REMARK       I    between atoms: N_3  and  C_4 
REMARK       I    between atoms: C_4  and  N_5 
REMARK    2  A    between atoms: C_7  and  C_8 
REMARK    3  A    between atoms: C_13  and  N_14 
REMARK       I    between atoms: N_14  and  C_15 
REMARK    4  A    between atoms: C_15  and  C_16 
REMARK    5  A    between atoms: C_19  and  O_20 
ROOT
HETATM    1  C   UNL     1      -3.239   4.811 -33.376  1.00  0.00     0.088 A 
HETATM    2  N   UNL     1      -3.139   5.281 -34.627  1.00  0.00    -0.177 NA
HETATM    3  N   UNL     1      -4.349   5.065 -35.154  1.00  0.00    -0.287 N 
HETATM    4  H   UNL     1      -4.502   5.310 -36.128  1.00  0.00     0.188 HD
HETATM    5  C   UNL     1      -5.239   4.519 -34.275  1.00  0.00     0.141 A 
HETATM    6  C   UNL     1      -4.573   4.374 -33.085  1.00  0.00     0.079 A 
ENDROOT
BRANCH   1   7
HETATM    7  C   UNL     1      -2.033   4.744 -32.463  1.00  0.00     0.060 C 
HETATM    8  C   UNL     1      -2.304   5.178 -31.012  1.00  0.00     0.138 C 
HETATM    9  N   UNL     1      -2.349   6.635 -30.811  1.00  0.00    -0.334 N 
HETATM   10  C   UNL     1      -3.020   7.229 -29.745  1.00  0.00     0.318 C 
HETATM   11  C   UNL     1      -1.252   7.395 -31.399  1.00  0.00     0.127 C 
HETATM   12  N   UNL     1      -4.042   6.468 -29.235  1.00  0.00    -0.339 N 
HETATM   13  O   UNL     1      -2.721   8.331 -29.299  1.00  0.00    -0.247 OA
HETATM   14  H   UNL     1      -4.533   5.969 -29.965  1.00  0.00     0.164 HD
HETATM   15  C   UNL     1      -1.016   7.034 -32.860  1.00  0.00     0.021 C 
HETATM   16  C   UNL     1      -0.841   5.528 -33.039  1.00  0.00     0.014 C 
BRANCH  12  17
HETATM   17  C   UNL     1      -4.869   6.874 -28.107  1.00  0.00     0.078 C 
HETATM   18  C   UNL     1      -5.110   5.724 -27.132  1.00  0.00     0.032 C 
HETATM   19  C   UNL     1      -6.180   7.538 -28.529  1.00  0.00     0.032 C 
ENDBRANCH  12  17
ENDBRANCH   1   7
BRANCH   6  20
HETATM   20  N   UNL     1      -5.008   3.893 -31.864  1.00  0.00    -0.320 N 
HETATM   21  C   UNL     1      -5.146   2.627 -31.357  1.00  0.00     0.256 C 
HETATM   22  O   UNL     1      -5.495   2.481 -30.186  1.00  0.00    -0.267 OA
HETATM   23  H   UNL     1      -5.237   4.590 -31.167  1.00  0.00     0.169 HD
BRANCH  21  24
HETATM   24  C   UNL     1      -4.853   1.421 -32.140  1.00  0.00     0.032 A 
HETATM   25  C   UNL     1      -5.813   0.855 -32.981  1.00  0.00     0.020 A 
HETATM   26  C   UNL     1      -5.516  -0.334 -33.653  1.00  0.00     0.038 A 
HETATM   27  C   UNL     1      -4.286  -0.977 -33.461  1.00  0.00     0.068 A 
HETATM   28  C   UNL     1      -3.344  -0.418 -32.594  1.00  0.00     0.038 A 
HETATM   29  C   UNL     1      -3.630   0.778 -31.928  1.00  0.00     0.020 A 
BRANCH  27  30
HETATM   30  O   UNL     1      -4.128  -2.137 -34.171  1.00  0.00    -0.356 OA
HETATM   31  C   UNL     1      -5.318  -2.780 -34.614  1.00  0.00     0.210 C 
ENDBRANCH  27  30
ENDBRANCH  21  24
ENDBRANCH   6  20
TORSDOF 5
ENDMDL
MODEL 7
REMARK VINA RESULT:      -7.6      4.017      6.483
REMARK  5 active torsions:
REMARK  status: ('A' for Active; 'I' for Inactive)
REMARK    1  A    between atoms: C_2  and  N_3 
REMARK       I    between atoms: N_3  and  C_4 
REMARK       I    between atoms: C_4  and  N_5 
REMARK    2  A    between atoms: C_7  and  C_8 
REMARK    3  A    between atoms: C_13  and  N_14 
REMARK       I    between atoms: N_14  and  C_15 
REMARK    4  A    between atoms: C_15  and  C_16 
REMARK    5  A    between atoms: C_19  and  O_20 
ROOT
HETATM    1  C   UNL     1      -5.668   4.207 -33.139  1.00  0.00     0.088 A 
HETATM    2  N   UNL     1      -6.611   4.617 -32.281  1.00  0.00    -0.177 NA
HETATM    3  N   UNL     1      -6.330   5.909 -32.081  1.00  0.00    -0.287 N 
HETATM    4  H   UNL     1      -6.901   6.430 -31.422  1.00  0.00     0.188 HD
HETATM    5  C   UNL     1      -5.271   6.359 -32.815  1.00  0.00     0.141 A 
HETATM    6  C   UNL     1      -4.830   5.293 -33.557  1.00  0.00     0.079 A 
ENDROOT
BRANCH   1   7
HETATM    7  C   UNL     1      -5.541   2.749 -33.532  1.00  0.00     0.060 C 
HETATM    8  C   UNL     1      -6.882   2.014 -33.702  1.00  0.00     0.138 C 
HETATM    9  N   UNL     1      -7.512   1.597 -32.439  1.00  0.00    -0.334 N 
HETATM   10  C   UNL     1      -8.880   1.362 -32.321  1.00  0.00     0.318 C 
HETATM   11  C   UNL     1      -6.645   0.912 -31.489  1.00  0.00     0.127 C 
HETATM   12  N   UNL     1      -9.644   2.035 -33.241  1.00  0.00    -0.339 N 
HETATM   13  O   UNL     1      -9.358   0.615 -31.473  1.00  0.00    -0.247 OA
HETATM   14  H   UNL     1      -9.275   2.958 -33.426  1.00  0.00     0.164 HD
HETATM   15  C   UNL     1      -5.342   1.664 -31.248  1.00  0.00     0.021 C 
HETATM   16  C   UNL     1      -4.631   1.978 -32.562  1.00  0.00     0.014 C 
BRANCH  12  17
HETATM   17  C   UNL     1     -11.095   1.928 -33.323  1.00  0.00     0.078 C 
HETATM   18  C   UNL     1     -11.562   1.568 -34.731  1.00  0.00     0.032 C 
HETATM   19  C   UNL     1     -11.821   3.161 -32.786  1.00  0.00     0.032 C 
ENDBRANCH  12  17
ENDBRANCH   1   7
BRANCH   6  20
HETATM   20  N   UNL     1      -3.805   5.203 -34.479  1.00  0.00    -0.320 N 
HETATM   21  C   UNL     1      -2.446   5.359 -34.381  1.00  0.00     0.256 C 
HETATM   22  O   UNL     1      -1.741   5.146 -35.367  1.00  0.00    -0.267 OA
HETATM   23  H   UNL     1      -4.071   4.925 -35.416  1.00  0.00     0.169 HD
BRANCH  21  24
HETATM   24  C   UNL     1      -1.778   5.733 -33.128  1.00  0.00     0.032 A 
HETATM   25  C   UNL     1      -1.266   7.017 -32.938  1.00  0.00     0.020 A 
HETATM   26  C   UNL     1      -0.574   7.308 -31.759  1.00  0.00     0.038 A 
HETATM   27  C   UNL     1      -0.359   6.318 -30.791  1.00  0.00     0.068 A 
HETATM   28  C   UNL     1      -0.850   5.028 -31.006  1.00  0.00     0.038 A 
HETATM   29  C   UNL     1      -1.554   4.733 -32.177  1.00  0.00     0.020 A 
BRANCH  27  30
HETATM   30  O   UNL     1       0.340   6.734 -29.691  1.00  0.00    -0.356 OA
HETATM   31  C   UNL     1       0.319   5.874 -28.558  1.00  0.00     0.210 C 
ENDBRANCH  27  30
ENDBRANCH  21  24
ENDBRANCH   6  20
TORSDOF 5
ENDMDL
MODEL 8
REMARK VINA RESULT:      -7.6      1.495      2.345
REMARK  5 active torsions:
REMARK  status: ('A' for Active; 'I' for Inactive)
REMARK    1  A    between atoms: C_2  and  N_3 
REMARK       I    between atoms: N_3  and  C_4 
REMARK       I    between atoms: C_4  and  N_5 
REMARK    2  A    between atoms: C_7  and  C_8 
REMARK    3  A    between atoms: C_13  and  N_14 
REMARK       I    between atoms: N_14  and  C_15 
REMARK    4  A    between atoms: C_15  and  C_16 
REMARK    5  A    between atoms: C_19  and  O_20 
ROOT
HETATM    1  C   UNL     1      -6.959   3.402 -32.041  1.00  0.00     0.088 A 
HETATM    2  N   UNL     1      -5.900   4.217 -31.956  1.00  0.00    -0.177 NA
HETATM    3  N   UNL     1      -5.392   4.222 -33.193  1.00  0.00    -0.287 N 
HETATM    4  H   UNL     1      -4.543   4.752 -33.363  1.00  0.00     0.188 HD
HETATM    5  C   UNL     1      -6.112   3.478 -34.083  1.00  0.00     0.141 A 
HETATM    6  C   UNL     1      -7.173   2.957 -33.387  1.00  0.00     0.079 A 
ENDROOT
BRANCH   1   7
HETATM    7  C   UNL     1      -7.753   3.012 -30.811  1.00  0.00     0.060 C 
HETATM    8  C   UNL     1      -9.200   2.575 -31.096  1.00  0.00     0.138 C 
HETATM    9  N   UNL     1     -10.139   3.686 -31.324  1.00  0.00    -0.334 N 
HETATM   10  C   UNL     1     -11.325   3.536 -32.037  1.00  0.00     0.318 C 
HETATM   11  C   UNL     1     -10.091   4.771 -30.352  1.00  0.00     0.127 C 
HETATM   12  N   UNL     1     -11.309   2.500 -32.936  1.00  0.00    -0.339 N 
HETATM   13  O   UNL     1     -12.300   4.262 -31.871  1.00  0.00    -0.247 OA
HETATM   14  H   UNL     1     -10.405   2.406 -33.379  1.00  0.00     0.164 HD
HETATM   15  C   UNL     1      -8.672   5.272 -30.112  1.00  0.00     0.021 C 
HETATM   16  C   UNL     1      -7.733   4.124 -29.748  1.00  0.00     0.014 C 
BRANCH  12  17
HETATM   17  C   UNL     1     -12.443   2.140 -33.778  1.00  0.00     0.078 C 
HETATM   18  C   UNL     1     -12.806   0.663 -33.646  1.00  0.00     0.032 C 
HETATM   19  C   UNL     1     -12.261   2.547 -35.240  1.00  0.00     0.032 C 
ENDBRANCH  12  17
ENDBRANCH   1   7
BRANCH   6  20
HETATM   20  N   UNL     1      -8.216   2.154 -33.808  1.00  0.00    -0.320 N 
HETATM   21  C   UNL     1      -8.338   0.800 -33.982  1.00  0.00     0.256 C 
HETATM   22  O   UNL     1      -9.428   0.329 -34.306  1.00  0.00    -0.267 OA
HETATM   23  H   UNL     1      -9.094   2.624 -33.992  1.00  0.00     0.169 HD
BRANCH  21  24
HETATM   24  C   UNL     1      -7.228  -0.134 -33.757  1.00  0.00     0.032 A 
HETATM   25  C   UNL     1      -6.508  -0.125 -32.561  1.00  0.00     0.020 A 
HETATM   26  C   UNL     1      -5.413  -0.982 -32.418  1.00  0.00     0.038 A 
HETATM   27  C   UNL     1      -5.013  -1.815 -33.471  1.00  0.00     0.068 A 
HETATM   28  C   UNL     1      -5.723  -1.793 -34.674  1.00  0.00     0.038 A 
HETATM   29  C   UNL     1      -6.826  -0.948 -34.820  1.00  0.00     0.020 A 
BRANCH  27  30
HETATM   30  O   UNL     1      -3.921  -2.595 -33.201  1.00  0.00    -0.356 OA
HETATM   31  C   UNL     1      -3.214  -2.310 -32.000  1.00  0.00     0.210 C 
ENDBRANCH  27  30
ENDBRANCH  21  24
ENDBRANCH   6  20
TORSDOF 5
ENDMDL
MODEL 9
REMARK VINA RESULT:      -7.6      4.859      7.714
REMARK  5 active torsions:
REMARK  status: ('A' for Active; 'I' for Inactive)
REMARK    1  A    between atoms: C_2  and  N_3 
REMARK       I    between atoms: N_3  and  C_4 
REMARK       I    between atoms: C_4  and  N_5 
REMARK    2  A    between atoms: C_7  and  C_8 
REMARK    3  A    between atoms: C_13  and  N_14 
REMARK       I    between atoms: N_14  and  C_15 
REMARK    4  A    between atoms: C_15  and  C_16 
REMARK    5  A    between atoms: C_19  and  O_20 
ROOT
HETATM    1  C   UNL     1      -3.534   4.428 -33.088  1.00  0.00     0.088 A 
HETATM    2  N   UNL     1      -4.475   4.561 -34.033  1.00  0.00    -0.177 NA
HETATM    3  N   UNL     1      -3.855   5.214 -35.022  1.00  0.00    -0.287 N 
HETATM    4  H   UNL     1      -4.393   5.466 -35.845  1.00  0.00     0.188 HD
HETATM    5  C   UNL     1      -2.537   5.465 -34.769  1.00  0.00     0.141 A 
HETATM    6  C   UNL     1      -2.268   4.931 -33.534  1.00  0.00     0.079 A 
ENDROOT
BRANCH   1   7
HETATM    7  C   UNL     1      -3.862   3.850 -31.727  1.00  0.00     0.060 C 
HETATM    8  C   UNL     1      -4.702   2.562 -31.765  1.00  0.00     0.138 C 
HETATM    9  N   UNL     1      -6.139   2.779 -31.995  1.00  0.00    -0.334 N 
HETATM   10  C   UNL     1      -6.974   1.797 -32.522  1.00  0.00     0.318 C 
HETATM   11  C   UNL     1      -6.770   3.803 -31.172  1.00  0.00     0.127 C 
HETATM   12  N   UNL     1      -6.324   0.863 -33.288  1.00  0.00    -0.339 N 
HETATM   13  O   UNL     1      -8.183   1.768 -32.315  1.00  0.00    -0.247 OA
HETATM   14  H   UNL     1      -5.582   1.281 -33.833  1.00  0.00     0.164 HD
HETATM   15  C   UNL     1      -5.993   5.114 -31.182  1.00  0.00     0.021 C 
HETATM   16  C   UNL     1      -4.528   4.893 -30.814  1.00  0.00     0.014 C 
BRANCH  12  17
HETATM   17  C   UNL     1      -6.988  -0.268 -33.924  1.00  0.00     0.078 C 
HETATM   18  C   UNL     1      -6.083  -1.494 -33.998  1.00  0.00     0.032 C 
HETATM   19  C   UNL     1      -7.585   0.075 -35.289  1.00  0.00     0.032 C 
ENDBRANCH  12  17
ENDBRANCH   1   7
BRANCH   6  20
HETATM   20  N   UNL     1      -1.090   4.885 -32.813  1.00  0.00    -0.320 N 
HETATM   21  C   UNL     1      -0.601   5.640 -31.778  1.00  0.00     0.256 C 
HETATM   22  O   UNL     1       0.471   5.331 -31.259  1.00  0.00    -0.267 OA
HETATM   23  H   UNL     1      -0.458   4.127 -33.039  1.00  0.00     0.169 HD
BRANCH  21  24
HETATM   24  C   UNL     1      -1.324   6.791 -31.223  1.00  0.00     0.032 A 
HETATM   25  C   UNL     1      -1.637   7.897 -32.015  1.00  0.00     0.020 A 
HETATM   26  C   UNL     1      -2.263   9.001 -31.428  1.00  0.00     0.038 A 
HETATM   27  C   UNL     1      -2.540   9.020 -30.054  1.00  0.00     0.068 A 
HETATM   28  C   UNL     1      -2.194   7.920 -29.266  1.00  0.00     0.038 A 
HETATM   29  C   UNL     1      -1.580   6.808 -29.849  1.00  0.00     0.020 A 
BRANCH  27  30
HETATM   30  O   UNL     1      -3.144  10.165 -29.608  1.00  0.00    -0.356 OA
HETATM   31  C   UNL     1      -2.296  11.280 -29.361  1.00  0.00     0.210 C 
ENDBRANCH  27  30
ENDBRANCH  21  24
ENDBRANCH   6  20
TORSDOF 5
ENDMDL
MODEL 10
REMARK VINA RESULT:      -7.5      5.237      8.253
REMARK  5 active torsions:
REMARK  status: ('A' for Active; 'I' for Inactive)
REMARK    1  A    between atoms: C_2  and  N_3 
REMARK       I    between atoms: N_3  and  C_4 
REMARK       I    between atoms: C_4  and  N_5 
REMARK    2  A    between atoms: C_7  and  C_8 
REMARK    3  A    between atoms: C_13  and  N_14 
REMARK       I    between atoms: N_14  and  C_15 
REMARK    4  A    between atoms: C_15  and  C_16 
REMARK    5  A    between atoms: C_19  and  O_20 
ROOT
HETATM    1  C   UNL     1      -2.882   5.402 -32.909  1.00  0.00     0.088 A 
HETATM    2  N   UNL     1      -2.521   4.259 -33.505  1.00  0.00    -0.177 NA
HETATM    3  N   UNL     1      -1.686   4.646 -34.476  1.00  0.00    -0.287 N 
HETATM    4  H   UNL     1      -1.308   3.937 -35.097  1.00  0.00     0.188 HD
HETATM    5  C   UNL     1      -1.459   5.992 -34.497  1.00  0.00     0.141 A 
HETATM    6  C   UNL     1      -2.185   6.526 -33.463  1.00  0.00     0.079 A 
ENDROOT
BRANCH   1   7
HETATM    7  C   UNL     1      -3.938   5.425 -31.823  1.00  0.00     0.060 C 
HETATM    8  C   UNL     1      -4.498   4.043 -31.447  1.00  0.00     0.138 C 
HETATM    9  N   UNL     1      -5.504   3.518 -32.384  1.00  0.00    -0.334 N 
HETATM   10  C   UNL     1      -5.780   2.159 -32.510  1.00  0.00     0.318 C 
HETATM   11  C   UNL     1      -6.568   4.440 -32.762  1.00  0.00     0.127 C 
HETATM   12  N   UNL     1      -4.741   1.341 -32.142  1.00  0.00    -0.339 N 
HETATM   13  O   UNL     1      -6.858   1.731 -32.910  1.00  0.00    -0.247 OA
HETATM   14  H   UNL     1      -3.849   1.732 -32.410  1.00  0.00     0.164 HD
HETATM   15  C   UNL     1      -6.029   5.793 -33.212  1.00  0.00     0.021 C 
HETATM   16  C   UNL     1      -5.086   6.388 -32.170  1.00  0.00     0.014 C 
BRANCH  12  17
HETATM   17  C   UNL     1      -4.807  -0.114 -32.170  1.00  0.00     0.078 C 
HETATM   18  C   UNL     1      -3.722  -0.751 -31.305  1.00  0.00     0.032 C 
HETATM   19  C   UNL     1      -4.808  -0.690 -33.586  1.00  0.00     0.032 C 
ENDBRANCH  12  17
ENDBRANCH   1   7
BRANCH   6  20
HETATM   20  N   UNL     1      -2.296   7.832 -33.024  1.00  0.00    -0.320 N 
HETATM   21  C   UNL     1      -1.985   8.446 -31.838  1.00  0.00     0.256 C 
HETATM   22  O   UNL     1      -2.121   9.665 -31.737  1.00  0.00    -0.267 OA
HETATM   23  H   UNL     1      -2.628   8.504 -33.704  1.00  0.00     0.169 HD
BRANCH  21  24
HETATM   24  C   UNL     1      -1.453   7.717 -30.681  1.00  0.00     0.032 A 
HETATM   25  C   UNL     1      -2.173   7.630 -29.488  1.00  0.00     0.020 A 
HETATM   26  C   UNL     1      -1.597   6.988 -28.389  1.00  0.00     0.038 A 
HETATM   27  C   UNL     1      -0.298   6.468 -28.463  1.00  0.00     0.068 A 
HETATM   28  C   UNL     1       0.425   6.588 -29.652  1.00  0.00     0.038 A 
HETATM   29  C   UNL     1      -0.150   7.218 -30.759  1.00  0.00     0.020 A 
BRANCH  27  30
HETATM   30  O   UNL     1       0.148   5.874 -27.312  1.00  0.00    -0.356 OA
HETATM   31  C   UNL     1      -0.631   6.087 -26.141  1.00  0.00     0.210 C 
ENDBRANCH  27  30
ENDBRANCH  21  24
ENDBRANCH   6  20
TORSDOF 5
ENDMDL
