MODEL 1
REMARK VINA RESULT:      -9.6      0.000      0.000
REMARK  7 active torsions:
REMARK  status: ('A' for Active; 'I' for Inactive)
REMARK    1  A    between atoms: C_5  and  C_6 
REMARK    2  A    between atoms: C_6  and  N_7 
REMARK       I    between atoms: N_7  and  C_8 
REMARK    3  A    between atoms: C_8  and  C_9 
REMARK    4  A    between atoms: C_14  and  C_15 
REMARK    5  A    between atoms: C_15  and  S_16 
REMARK    6  A    between atoms: S_16  and  C_17 
REMARK    7  A    between atoms: C_17  and  C_18 
ROOT
HETATM    1  C   UNL     1      -5.567   2.856 -33.383  1.00  0.00     0.034 A 
HETATM    2  C   UNL     1      -4.328   2.836 -32.734  1.00  0.00     0.048 A 
HETATM    3  C   UNL     1      -3.526   3.975 -32.751  1.00  0.00     0.057 A 
HETATM    4  C   UNL     1      -3.935   5.144 -33.421  1.00  0.00     0.036 A 
HETATM    5  N   UNL     1      -3.082   6.259 -33.515  1.00  0.00    -0.277 NA
HETATM    6  C   UNL     1      -2.131   6.401 -32.374  1.00  0.00     0.162 C 
HETATM    7  C   UNL     1      -1.474   5.053 -32.014  1.00  0.00     0.240 C 
HETATM    8  O   UNL     1      -0.330   4.953 -31.578  1.00  0.00    -0.271 OA
HETATM    9  N   UNL     1      -2.281   3.944 -32.110  1.00  0.00    -0.324 N 
HETATM   10  C   UNL     1      -5.140   5.123 -34.128  1.00  0.00     0.027 A 
HETATM   11  C   UNL     1      -5.965   3.992 -34.096  1.00  0.00     0.019 A 
HETATM   12  H   UNL     1      -3.560   7.122 -33.757  1.00  0.00     0.128 HD
HETATM   13  H   UNL     1      -1.892   3.073 -31.774  1.00  0.00     0.169 HD
ENDROOT
BRANCH   1  14
HETATM   14  C   UNL     1      -6.411   1.635 -33.306  1.00  0.00     0.252 C 
HETATM   15  N   UNL     1      -6.398   0.815 -34.410  1.00  0.00    -0.353 N 
HETATM   16  H   UNL     1      -5.864   1.059 -35.232  1.00  0.00     0.163 HD
HETATM   17  O   UNL     1      -7.102   1.436 -32.314  1.00  0.00    -0.268 OA
BRANCH  15  18
HETATM   18  C   UNL     1      -7.229  -0.368 -34.484  1.00  0.00     0.161 C 
BRANCH  18  19
HETATM   19  C   UNL     1      -6.419  -1.633 -34.351  1.00  0.00    -0.041 A 
HETATM   20  C   UNL     1      -6.939  -2.857 -34.790  1.00  0.00     0.009 A 
HETATM   21  C   UNL     1      -6.174  -4.025 -34.721  1.00  0.00     0.007 A 
HETATM   22  C   UNL     1      -4.871  -3.990 -34.212  1.00  0.00    -0.062 A 
HETATM   23  C   UNL     1      -4.030  -5.231 -34.155  1.00  0.00     0.048 C 
HETATM   24  C   UNL     1      -4.343  -2.768 -33.781  1.00  0.00     0.007 A 
HETATM   25  C   UNL     1      -5.107  -1.601 -33.857  1.00  0.00     0.009 A 
ENDBRANCH  18  19
ENDBRANCH  15  18
ENDBRANCH   1  14
BRANCH   6  26
HETATM   26  C   UNL     1      -2.884   6.979 -31.157  1.00  0.00     0.103 C 
BRANCH  26  27
HETATM   27  S   UNL     1      -1.884   8.093 -30.115  1.00  0.00    -0.162 SA
BRANCH  27  28
HETATM   28  C   UNL     1      -1.486   6.918 -28.782  1.00  0.00     0.114 C 
BRANCH  28  29
HETATM   29  C   UNL     1      -0.310   7.380 -27.960  1.00  0.00    -0.027 A 
HETATM   30  C   UNL     1      -0.067   6.919 -26.656  1.00  0.00     0.041 A 
HETATM   31 CL   UNL     1      -1.112   5.782 -25.876  1.00  0.00    -0.084 Cl
HETATM   32  C   UNL     1       1.039   7.376 -25.933  1.00  0.00     0.024 A 
HETATM   33  C   UNL     1       1.921   8.292 -26.504  1.00  0.00     0.002 A 
HETATM   34  C   UNL     1       1.702   8.749 -27.800  1.00  0.00     0.001 A 
HETATM   35  C   UNL     1       0.598   8.296 -28.524  1.00  0.00     0.009 A 
ENDBRANCH  28  29
ENDBRANCH  27  28
ENDBRANCH  26  27
ENDBRANCH   6  26
TORSDOF 7
ENDMDL
MODEL 2
REMARK VINA RESULT:      -9.6      2.821     10.496
REMARK  7 active torsions:
REMARK  status: ('A' for Active; 'I' for Inactive)
REMARK    1  A    between atoms: C_5  and  C_6 
REMARK    2  A    between atoms: C_6  and  N_7 
REMARK       I    between atoms: N_7  and  C_8 
REMARK    3  A    between atoms: C_8  and  C_9 
REMARK    4  A    between atoms: C_14  and  C_15 
REMARK    5  A    between atoms: C_15  and  S_16 
REMARK    6  A    between atoms: S_16  and  C_17 
REMARK    7  A    between atoms: C_17  and  C_18 
ROOT
HETATM    1  C   UNL     1      -1.466   5.172 -31.812  1.00  0.00     0.034 A 
HETATM    2  C   UNL     1      -2.767   5.194 -31.300  1.00  0.00     0.048 A 
HETATM    3  C   UNL     1      -3.850   5.175 -32.176  1.00  0.00     0.057 A 
HETATM    4  C   UNL     1      -3.659   5.149 -33.571  1.00  0.00     0.036 A 
HETATM    5  N   UNL     1      -4.752   5.226 -34.452  1.00  0.00    -0.277 NA
HETATM    6  C   UNL     1      -6.019   4.656 -33.908  1.00  0.00     0.162 C 
HETATM    7  C   UNL     1      -6.265   5.110 -32.455  1.00  0.00     0.240 C 
HETATM    8  O   UNL     1      -7.385   5.293 -31.983  1.00  0.00    -0.271 OA
HETATM    9  N   UNL     1      -5.150   5.209 -31.657  1.00  0.00    -0.324 N 
HETATM   10  C   UNL     1      -2.353   5.206 -34.068  1.00  0.00     0.027 A 
HETATM   11  C   UNL     1      -1.258   5.198 -33.196  1.00  0.00     0.019 A 
HETATM   12  H   UNL     1      -4.540   4.919 -35.397  1.00  0.00     0.128 HD
HETATM   13  H   UNL     1      -5.312   5.401 -30.677  1.00  0.00     0.169 HD
ENDROOT
BRANCH   1  14
HETATM   14  C   UNL     1      -0.338   5.149 -30.844  1.00  0.00     0.252 C 
HETATM   15  N   UNL     1      -0.608   5.629 -29.584  1.00  0.00    -0.353 N 
HETATM   16  H   UNL     1      -1.518   6.003 -29.354  1.00  0.00     0.163 HD
HETATM   17  O   UNL     1       0.766   4.762 -31.206  1.00  0.00    -0.268 OA
BRANCH  15  18
HETATM   18  C   UNL     1       0.423   5.722 -28.572  1.00  0.00     0.161 C 
BRANCH  18  19
HETATM   19  C   UNL     1       0.504   7.106 -27.977  1.00  0.00    -0.041 A 
HETATM   20  C   UNL     1       1.528   7.434 -27.081  1.00  0.00     0.009 A 
HETATM   21  C   UNL     1       1.641   8.729 -26.568  1.00  0.00     0.007 A 
HETATM   22  C   UNL     1       0.732   9.723 -26.944  1.00  0.00    -0.062 A 
HETATM   23  C   UNL     1       0.857  11.124 -26.421  1.00  0.00     0.048 C 
HETATM   24  C   UNL     1      -0.288   9.404 -27.847  1.00  0.00     0.007 A 
HETATM   25  C   UNL     1      -0.396   8.111 -28.364  1.00  0.00     0.009 A 
ENDBRANCH  18  19
ENDBRANCH  15  18
ENDBRANCH   1  14
BRANCH   6  26
HETATM   26  C   UNL     1      -5.957   3.116 -33.991  1.00  0.00     0.103 C 
BRANCH  26  27
HETATM   27  S   UNL     1      -7.571   2.289 -33.795  1.00  0.00    -0.162 SA
BRANCH  27  28
HETATM   28  C   UNL     1      -7.075   1.032 -32.575  1.00  0.00     0.114 C 
BRANCH  28  29
HETATM   29  C   UNL     1      -6.489  -0.191 -33.236  1.00  0.00    -0.027 A 
HETATM   30  C   UNL     1      -5.124  -0.511 -33.165  1.00  0.00     0.041 A 
HETATM   31 CL   UNL     1      -3.991   0.484 -32.317  1.00  0.00    -0.084 Cl
HETATM   32  C   UNL     1      -4.628  -1.658 -33.794  1.00  0.00     0.024 A 
HETATM   33  C   UNL     1      -5.487  -2.503 -34.494  1.00  0.00     0.002 A 
HETATM   34  C   UNL     1      -6.846  -2.206 -34.562  1.00  0.00     0.001 A 
HETATM   35  C   UNL     1      -7.344  -1.062 -33.937  1.00  0.00     0.009 A 
ENDBRANCH  28  29
ENDBRANCH  27  28
ENDBRANCH  26  27
ENDBRANCH   6  26
TORSDOF 7
ENDMDL
MODEL 3
REMARK VINA RESULT:      -9.5      3.206     10.583
REMARK  7 active torsions:
REMARK  status: ('A' for Active; 'I' for Inactive)
REMARK    1  A    between atoms: C_5  and  C_6 
REMARK    2  A    between atoms: C_6  and  N_7 
REMARK       I    between atoms: N_7  and  C_8 
REMARK    3  A    between atoms: C_8  and  C_9 
REMARK    4  A    between atoms: C_14  and  C_15 
REMARK    5  A    between atoms: C_15  and  S_16 
REMARK    6  A    between atoms: S_16  and  C_17 
REMARK    7  A    between atoms: C_17  and  C_18 
ROOT
HETATM    1  C   UNL     1      -3.399   4.515 -31.695  1.00  0.00     0.034 A 
HETATM    2  C   UNL     1      -3.585   3.170 -31.357  1.00  0.00     0.048 A 
HETATM    3  C   UNL     1      -4.877   2.658 -31.266  1.00  0.00     0.057 A 
HETATM    4  C   UNL     1      -6.002   3.473 -31.497  1.00  0.00     0.036 A 
HETATM    5  N   UNL     1      -7.305   2.976 -31.312  1.00  0.00    -0.277 NA
HETATM    6  C   UNL     1      -7.442   1.510 -31.552  1.00  0.00     0.162 C 
HETATM    7  C   UNL     1      -6.296   0.720 -30.888  1.00  0.00     0.240 C 
HETATM    8  O   UNL     1      -6.431  -0.414 -30.434  1.00  0.00    -0.271 OA
HETATM    9  N   UNL     1      -5.057   1.315 -30.915  1.00  0.00    -0.324 N 
HETATM   10  C   UNL     1      -5.801   4.832 -31.758  1.00  0.00     0.027 A 
HETATM   11  C   UNL     1      -4.506   5.350 -31.876  1.00  0.00     0.019 A 
HETATM   12  H   UNL     1      -8.024   3.532 -31.766  1.00  0.00     0.128 HD
HETATM   13  H   UNL     1      -4.282   0.758 -30.579  1.00  0.00     0.169 HD
ENDROOT
BRANCH   1  14
HETATM   14  C   UNL     1      -2.004   5.012 -31.823  1.00  0.00     0.252 C 
HETATM   15  N   UNL     1      -1.207   4.885 -30.709  1.00  0.00    -0.353 N 
HETATM   16  H   UNL     1      -1.574   4.502 -29.849  1.00  0.00     0.163 HD
HETATM   17  O   UNL     1      -1.641   5.543 -32.865  1.00  0.00    -0.268 OA
BRANCH  15  18
HETATM   18  C   UNL     1       0.148   5.392 -30.685  1.00  0.00     0.161 C 
BRANCH  18  19
HETATM   19  C   UNL     1       0.419   6.215 -29.450  1.00  0.00    -0.041 A 
HETATM   20  C   UNL     1       0.721   7.578 -29.559  1.00  0.00     0.009 A 
HETATM   21  C   UNL     1       0.919   8.359 -28.417  1.00  0.00     0.007 A 
HETATM   22  C   UNL     1       0.817   7.792 -27.142  1.00  0.00    -0.062 A 
HETATM   23  C   UNL     1       1.001   8.624 -25.907  1.00  0.00     0.048 C 
HETATM   24  C   UNL     1       0.505   6.433 -27.028  1.00  0.00     0.007 A 
HETATM   25  C   UNL     1       0.301   5.655 -28.170  1.00  0.00     0.009 A 
ENDBRANCH  18  19
ENDBRANCH  15  18
ENDBRANCH   1  14
BRANCH   6  26
HETATM   26  C   UNL     1      -7.470   1.248 -33.073  1.00  0.00     0.103 C 
BRANCH  26  27
HETATM   27  S   UNL     1      -7.958  -0.449 -33.532  1.00  0.00    -0.162 SA
BRANCH  27  28
HETATM   28  C   UNL     1      -6.692  -0.751 -34.805  1.00  0.00     0.114 C 
BRANCH  28  29
HETATM   29  C   UNL     1      -6.033  -2.095 -34.632  1.00  0.00    -0.027 A 
HETATM   30  C   UNL     1      -4.759  -2.249 -34.062  1.00  0.00     0.041 A 
HETATM   31 CL   UNL     1      -3.829  -0.896 -33.516  1.00  0.00    -0.084 Cl
HETATM   32  C   UNL     1      -4.190  -3.519 -33.922  1.00  0.00     0.024 A 
HETATM   33  C   UNL     1      -4.886  -4.651 -34.341  1.00  0.00     0.002 A 
HETATM   34  C   UNL     1      -6.155  -4.517 -34.897  1.00  0.00     0.001 A 
HETATM   35  C   UNL     1      -6.726  -3.251 -35.040  1.00  0.00     0.009 A 
ENDBRANCH  28  29
ENDBRANCH  27  28
ENDBRANCH  26  27
ENDBRANCH   6  26
TORSDOF 7
ENDMDL
MODEL 4
REMARK VINA RESULT:      -9.3      5.429      7.921
REMARK  7 active torsions:
REMARK  status: ('A' for Active; 'I' for Inactive)
REMARK    1  A    between atoms: C_5  and  C_6 
REMARK    2  A    between atoms: C_6  and  N_7 
REMARK       I    between atoms: N_7  and  C_8 
REMARK    3  A    between atoms: C_8  and  C_9 
REMARK    4  A    between atoms: C_14  and  C_15 
REMARK    5  A    between atoms: C_15  and  S_16 
REMARK    6  A    between atoms: S_16  and  C_17 
REMARK    7  A    between atoms: C_17  and  C_18 
ROOT
HETATM    1  C   UNL     1      -4.777   3.179 -32.386  1.00  0.00     0.034 A 
HETATM    2  C   UNL     1      -5.993   3.289 -31.705  1.00  0.00     0.048 A 
HETATM    3  C   UNL     1      -6.803   4.401 -31.921  1.00  0.00     0.057 A 
HETATM    4  C   UNL     1      -6.413   5.426 -32.804  1.00  0.00     0.036 A 
HETATM    5  N   UNL     1      -7.189   6.590 -32.948  1.00  0.00    -0.277 NA
HETATM    6  C   UNL     1      -8.648   6.389 -32.710  1.00  0.00     0.162 C 
HETATM    7  C   UNL     1      -8.902   5.536 -31.451  1.00  0.00     0.240 C 
HETATM    8  O   UNL     1      -9.880   5.681 -30.721  1.00  0.00    -0.271 OA
HETATM    9  N   UNL     1      -8.014   4.510 -31.227  1.00  0.00    -0.324 N 
HETATM   10  C   UNL     1      -5.160   5.339 -33.418  1.00  0.00     0.027 A 
HETATM   11  C   UNL     1      -4.351   4.213 -33.228  1.00  0.00     0.019 A 
HETATM   12  H   UNL     1      -6.983   7.119 -33.791  1.00  0.00     0.128 HD
HETATM   13  H   UNL     1      -8.234   3.881 -30.465  1.00  0.00     0.169 HD
ENDROOT
BRANCH   1  14
HETATM   14  C   UNL     1      -3.961   1.957 -32.160  1.00  0.00     0.252 C 
HETATM   15  N   UNL     1      -4.374   0.821 -32.816  1.00  0.00    -0.353 N 
HETATM   16  H   UNL     1      -5.205   0.824 -33.389  1.00  0.00     0.163 HD
HETATM   17  O   UNL     1      -3.012   1.994 -31.387  1.00  0.00    -0.268 OA
BRANCH  15  18
HETATM   18  C   UNL     1      -3.704  -0.449 -32.625  1.00  0.00     0.161 C 
BRANCH  18  19
HETATM   19  C   UNL     1      -4.414  -1.571 -33.340  1.00  0.00    -0.041 A 
HETATM   20  C   UNL     1      -5.619  -1.334 -34.012  1.00  0.00     0.009 A 
HETATM   21  C   UNL     1      -6.254  -2.357 -34.723  1.00  0.00     0.007 A 
HETATM   22  C   UNL     1      -5.695  -3.638 -34.775  1.00  0.00    -0.062 A 
HETATM   23  C   UNL     1      -6.353  -4.738 -35.555  1.00  0.00     0.048 C 
HETATM   24  C   UNL     1      -4.486  -3.878 -34.114  1.00  0.00     0.007 A 
HETATM   25  C   UNL     1      -3.848  -2.853 -33.410  1.00  0.00     0.009 A 
ENDBRANCH  18  19
ENDBRANCH  15  18
ENDBRANCH   1  14
BRANCH   6  26
HETATM   26  C   UNL     1      -9.275   5.721 -33.952  1.00  0.00     0.103 C 
BRANCH  26  27
HETATM   27  S   UNL     1     -10.862   4.881 -33.631  1.00  0.00    -0.162 SA
BRANCH  27  28
HETATM   28  C   UNL     1     -10.676   3.509 -34.813  1.00  0.00     0.114 C 
BRANCH  28  29
HETATM   29  C   UNL     1     -10.110   2.275 -34.156  1.00  0.00    -0.027 A 
HETATM   30  C   UNL     1     -10.920   1.270 -33.603  1.00  0.00     0.041 A 
HETATM   31 CL   UNL     1     -12.647   1.371 -33.620  1.00  0.00    -0.084 Cl
HETATM   32  C   UNL     1     -10.348   0.143 -33.004  1.00  0.00     0.024 A 
HETATM   33  C   UNL     1      -8.962  -0.000 -32.957  1.00  0.00     0.002 A 
HETATM   34  C   UNL     1      -8.145   0.981 -33.512  1.00  0.00     0.001 A 
HETATM   35  C   UNL     1      -8.713   2.108 -34.109  1.00  0.00     0.009 A 
ENDBRANCH  28  29
ENDBRANCH  27  28
ENDBRANCH  26  27
ENDBRANCH   6  26
TORSDOF 7
ENDMDL
MODEL 5
REMARK VINA RESULT:      -9.2      4.656      6.863
REMARK  7 active torsions:
REMARK  status: ('A' for Active; 'I' for Inactive)
REMARK    1  A    between atoms: C_5  and  C_6 
REMARK    2  A    between atoms: C_6  and  N_7 
REMARK       I    between atoms: N_7  and  C_8 
REMARK    3  A    between atoms: C_8  and  C_9 
REMARK    4  A    between atoms: C_14  and  C_15 
REMARK    5  A    between atoms: C_15  and  S_16 
REMARK    6  A    between atoms: S_16  and  C_17 
REMARK    7  A    between atoms: C_17  and  C_18 
ROOT
HETATM    1  C   UNL     1      -5.034   3.409 -32.577  1.00  0.00     0.034 A 
HETATM    2  C   UNL     1      -4.960   4.390 -31.582  1.00  0.00     0.048 A 
HETATM    3  C   UNL     1      -5.798   5.501 -31.650  1.00  0.00     0.057 A 
HETATM    4  C   UNL     1      -6.710   5.662 -32.711  1.00  0.00     0.036 A 
HETATM    5  N   UNL     1      -7.486   6.829 -32.826  1.00  0.00    -0.277 NA
HETATM    6  C   UNL     1      -7.803   7.486 -31.524  1.00  0.00     0.162 C 
HETATM    7  C   UNL     1      -6.561   7.565 -30.614  1.00  0.00     0.240 C 
HETATM    8  O   UNL     1      -6.360   8.481 -29.820  1.00  0.00    -0.271 OA
HETATM    9  N   UNL     1      -5.710   6.485 -30.658  1.00  0.00    -0.324 N 
HETATM   10  C   UNL     1      -6.718   4.712 -33.737  1.00  0.00     0.027 A 
HETATM   11  C   UNL     1      -5.898   3.579 -33.664  1.00  0.00     0.019 A 
HETATM   12  H   UNL     1      -8.291   6.728 -33.437  1.00  0.00     0.128 HD
HETATM   13  H   UNL     1      -4.953   6.479 -29.988  1.00  0.00     0.169 HD
ENDROOT
BRANCH   1  14
HETATM   14  C   UNL     1      -4.154   2.219 -32.445  1.00  0.00     0.252 C 
HETATM   15  N   UNL     1      -4.727   1.003 -32.738  1.00  0.00    -0.353 N 
HETATM   16  H   UNL     1      -5.701   0.936 -32.995  1.00  0.00     0.163 HD
HETATM   17  O   UNL     1      -3.003   2.354 -32.049  1.00  0.00    -0.268 OA
BRANCH  15  18
HETATM   18  C   UNL     1      -3.994  -0.236 -32.584  1.00  0.00     0.161 C 
BRANCH  18  19
HETATM   19  C   UNL     1      -4.664  -1.379 -33.306  1.00  0.00    -0.041 A 
HETATM   20  C   UNL     1      -5.944  -1.220 -33.852  1.00  0.00     0.009 A 
HETATM   21  C   UNL     1      -6.548  -2.256 -34.570  1.00  0.00     0.007 A 
HETATM   22  C   UNL     1      -5.882  -3.472 -34.757  1.00  0.00    -0.062 A 
HETATM   23  C   UNL     1      -6.508  -4.583 -35.547  1.00  0.00     0.048 C 
HETATM   24  C   UNL     1      -4.599  -3.632 -34.222  1.00  0.00     0.007 A 
HETATM   25  C   UNL     1      -3.993  -2.594 -33.511  1.00  0.00     0.009 A 
ENDBRANCH  18  19
ENDBRANCH  15  18
ENDBRANCH   1  14
BRANCH   6  26
HETATM   26  C   UNL     1      -8.936   6.704 -30.826  1.00  0.00     0.103 C 
BRANCH  26  27
HETATM   27  S   UNL     1     -10.147   5.958 -31.969  1.00  0.00    -0.162 SA
BRANCH  27  28
HETATM   28  C   UNL     1     -10.524   4.458 -31.009  1.00  0.00     0.114 C 
BRANCH  28  29
HETATM   29  C   UNL     1      -9.865   3.236 -31.597  1.00  0.00    -0.027 A 
HETATM   30  C   UNL     1      -8.693   2.675 -31.063  1.00  0.00     0.041 A 
HETATM   31 CL   UNL     1      -7.897   3.353 -29.685  1.00  0.00    -0.084 Cl
HETATM   32  C   UNL     1      -8.120   1.539 -31.643  1.00  0.00     0.024 A 
HETATM   33  C   UNL     1      -8.711   0.943 -32.756  1.00  0.00     0.002 A 
HETATM   34  C   UNL     1      -9.881   1.479 -33.288  1.00  0.00     0.001 A 
HETATM   35  C   UNL     1     -10.455   2.614 -32.713  1.00  0.00     0.009 A 
ENDBRANCH  28  29
ENDBRANCH  27  28
ENDBRANCH  26  27
ENDBRANCH   6  26
TORSDOF 7
ENDMDL
MODEL 6
REMARK VINA RESULT:      -9.1      3.642      4.843
REMARK  7 active torsions:
REMARK  status: ('A' for Active; 'I' for Inactive)
REMARK    1  A    between atoms: C_5  and  C_6 
REMARK    2  A    between atoms: C_6  and  N_7 
REMARK       I    between atoms: N_7  and  C_8 
REMARK    3  A    between atoms: C_8  and  C_9 
REMARK    4  A    between atoms: C_14  and  C_15 
REMARK    5  A    between atoms: C_15  and  S_16 
REMARK    6  A    between atoms: S_16  and  C_17 
REMARK    7  A    between atoms: C_17  and  C_18 
ROOT
HETATM    1  C   UNL     1      -6.364   2.501 -31.954  1.00  0.00     0.034 A 
HETATM    2  C   UNL     1      -7.356   3.341 -31.438  1.00  0.00     0.048 A 
HETATM    3  C   UNL     1      -7.076   4.132 -30.326  1.00  0.00     0.057 A 
HETATM    4  C   UNL     1      -5.814   4.093 -29.703  1.00  0.00     0.036 A 
HETATM    5  N   UNL     1      -5.566   4.821 -28.526  1.00  0.00    -0.277 NA
HETATM    6  C   UNL     1      -6.372   6.070 -28.396  1.00  0.00     0.162 C 
HETATM    7  C   UNL     1      -7.850   5.829 -28.766  1.00  0.00     0.240 C 
HETATM    8  O   UNL     1      -8.785   6.430 -28.241  1.00  0.00    -0.271 OA
HETATM    9  N   UNL     1      -8.078   4.961 -29.807  1.00  0.00    -0.324 N 
HETATM   10  C   UNL     1      -4.858   3.192 -30.184  1.00  0.00     0.027 A 
HETATM   11  C   UNL     1      -5.121   2.412 -31.316  1.00  0.00     0.019 A 
HETATM   12  H   UNL     1      -4.579   4.951 -28.324  1.00  0.00     0.128 HD
HETATM   13  H   UNL     1      -9.035   4.880 -30.126  1.00  0.00     0.169 HD
ENDROOT
BRANCH   1  14
HETATM   14  C   UNL     1      -6.688   1.705 -33.167  1.00  0.00     0.252 C 
HETATM   15  N   UNL     1      -7.118   0.417 -32.952  1.00  0.00    -0.353 N 
HETATM   16  H   UNL     1      -7.174   0.036 -32.018  1.00  0.00     0.163 HD
HETATM   17  O   UNL     1      -6.521   2.194 -34.277  1.00  0.00    -0.268 OA
BRANCH  15  18
HETATM   18  C   UNL     1      -7.401  -0.481 -34.052  1.00  0.00     0.161 C 
BRANCH  18  19
HETATM   19  C   UNL     1      -6.451  -1.652 -34.080  1.00  0.00    -0.041 A 
HETATM   20  C   UNL     1      -6.836  -2.863 -34.668  1.00  0.00     0.009 A 
HETATM   21  C   UNL     1      -5.942  -3.935 -34.747  1.00  0.00     0.007 A 
HETATM   22  C   UNL     1      -4.645  -3.816 -34.239  1.00  0.00    -0.062 A 
HETATM   23  C   UNL     1      -3.667  -4.950 -34.339  1.00  0.00     0.048 C 
HETATM   24  C   UNL     1      -4.251  -2.605 -33.659  1.00  0.00     0.007 A 
HETATM   25  C   UNL     1      -5.143  -1.532 -33.587  1.00  0.00     0.009 A 
ENDBRANCH  18  19
ENDBRANCH  15  18
ENDBRANCH   1  14
BRANCH   6  26
HETATM   26  C   UNL     1      -5.760   7.163 -29.298  1.00  0.00     0.103 C 
BRANCH  26  27
HETATM   27  S   UNL     1      -3.936   7.213 -29.283  1.00  0.00    -0.162 SA
BRANCH  27  28
HETATM   28  C   UNL     1      -3.672   7.652 -31.030  1.00  0.00     0.114 C 
BRANCH  28  29
HETATM   29  C   UNL     1      -3.260   6.457 -31.852  1.00  0.00    -0.027 A 
HETATM   30  C   UNL     1      -4.139   5.800 -32.729  1.00  0.00     0.041 A 
HETATM   31 CL   UNL     1      -5.781   6.304 -32.930  1.00  0.00    -0.084 Cl
HETATM   32  C   UNL     1      -3.709   4.695 -33.472  1.00  0.00     0.024 A 
HETATM   33  C   UNL     1      -2.398   4.238 -33.357  1.00  0.00     0.002 A 
HETATM   34  C   UNL     1      -1.511   4.887 -32.503  1.00  0.00     0.001 A 
HETATM   35  C   UNL     1      -1.936   5.988 -31.758  1.00  0.00     0.009 A 
ENDBRANCH  28  29
ENDBRANCH  27  28
ENDBRANCH  26  27
ENDBRANCH   6  26
TORSDOF 7
ENDMDL
MODEL 7
REMARK VINA RESULT:      -9.0      2.703      4.594
REMARK  7 active torsions:
REMARK  status: ('A' for Active; 'I' for Inactive)
REMARK    1  A    between atoms: C_5  and  C_6 
REMARK    2  A    between atoms: C_6  and  N_7 
REMARK       I    between atoms: N_7  and  C_8 
REMARK    3  A    between atoms: C_8  and  C_9 
REMARK    4  A    between atoms: C_14  and  C_15 
REMARK    5  A    between atoms: C_15  and  S_16 
REMARK    6  A    between atoms: S_16  and  C_17 
REMARK    7  A    between atoms: C_17  and  C_18 
ROOT
HETATM    1  C   UNL     1      -6.558   5.123 -31.239  1.00  0.00     0.034 A 
HETATM    2  C   UNL     1      -5.566   5.839 -31.917  1.00  0.00     0.048 A 
HETATM    3  C   UNL     1      -4.777   6.750 -31.218  1.00  0.00     0.057 A 
HETATM    4  C   UNL     1      -4.969   6.973 -29.841  1.00  0.00     0.036 A 
HETATM    5  N   UNL     1      -4.235   7.960 -29.159  1.00  0.00    -0.277 NA
HETATM    6  C   UNL     1      -2.880   8.219 -29.728  1.00  0.00     0.162 C 
HETATM    7  C   UNL     1      -2.924   8.324 -31.266  1.00  0.00     0.240 C 
HETATM    8  O   UNL     1      -2.176   9.050 -31.917  1.00  0.00    -0.271 OA
HETATM    9  N   UNL     1      -3.794   7.471 -31.905  1.00  0.00    -0.324 N 
HETATM   10  C   UNL     1      -6.015   6.307 -29.194  1.00  0.00     0.027 A 
HETATM   11  C   UNL     1      -6.796   5.371 -29.882  1.00  0.00     0.019 A 
HETATM   12  H   UNL     1      -4.238   7.850 -28.150  1.00  0.00     0.128 HD
HETATM   13  H   UNL     1      -3.752   7.458 -32.916  1.00  0.00     0.169 HD
ENDROOT
BRANCH   1  14
HETATM   14  C   UNL     1      -7.349   4.130 -32.012  1.00  0.00     0.252 C 
HETATM   15  N   UNL     1      -6.693   3.498 -33.042  1.00  0.00    -0.353 N 
HETATM   16  H   UNL     1      -5.737   3.730 -33.269  1.00  0.00     0.163 HD
HETATM   17  O   UNL     1      -8.531   3.952 -31.742  1.00  0.00    -0.268 OA
BRANCH  15  18
HETATM   18  C   UNL     1      -7.374   2.560 -33.910  1.00  0.00     0.161 C 
BRANCH  18  19
HETATM   19  C   UNL     1      -6.701   1.210 -33.916  1.00  0.00    -0.041 A 
HETATM   20  C   UNL     1      -7.163   0.192 -34.760  1.00  0.00     0.009 A 
HETATM   21  C   UNL     1      -6.511  -1.043 -34.812  1.00  0.00     0.007 A 
HETATM   22  C   UNL     1      -5.383  -1.284 -34.021  1.00  0.00    -0.062 A 
HETATM   23  C   UNL     1      -4.659  -2.596 -34.085  1.00  0.00     0.048 C 
HETATM   24  C   UNL     1      -4.911  -0.267 -33.183  1.00  0.00     0.007 A 
HETATM   25  C   UNL     1      -5.559   0.970 -33.138  1.00  0.00     0.009 A 
ENDBRANCH  18  19
ENDBRANCH  15  18
ENDBRANCH   1  14
BRANCH   6  26
HETATM   26  C   UNL     1      -1.923   7.090 -29.290  1.00  0.00     0.103 C 
BRANCH  26  27
HETATM   27  S   UNL     1      -0.416   6.947 -30.307  1.00  0.00    -0.162 SA
BRANCH  27  28
HETATM   28  C   UNL     1      -0.636   5.228 -30.862  1.00  0.00     0.114 C 
BRANCH  28  29
HETATM   29  C   UNL     1      -1.253   5.157 -32.236  1.00  0.00    -0.027 A 
HETATM   30  C   UNL     1      -2.291   4.267 -32.557  1.00  0.00     0.041 A 
HETATM   31 CL   UNL     1      -2.945   3.163 -31.396  1.00  0.00    -0.084 Cl
HETATM   32  C   UNL     1      -2.832   4.239 -33.846  1.00  0.00     0.024 A 
HETATM   33  C   UNL     1      -2.350   5.102 -34.829  1.00  0.00     0.002 A 
HETATM   34  C   UNL     1      -1.330   5.999 -34.523  1.00  0.00     0.001 A 
HETATM   35  C   UNL     1      -0.787   6.029 -33.238  1.00  0.00     0.009 A 
ENDBRANCH  28  29
ENDBRANCH  27  28
ENDBRANCH  26  27
ENDBRANCH   6  26
TORSDOF 7
ENDMDL
MODEL 8
REMARK VINA RESULT:      -8.9      4.109     10.517
REMARK  7 active torsions:
REMARK  status: ('A' for Active; 'I' for Inactive)
REMARK    1  A    between atoms: C_5  and  C_6 
REMARK    2  A    between atoms: C_6  and  N_7 
REMARK       I    between atoms: N_7  and  C_8 
REMARK    3  A    between atoms: C_8  and  C_9 
REMARK    4  A    between atoms: C_14  and  C_15 
REMARK    5  A    between atoms: C_15  and  S_16 
REMARK    6  A    between atoms: S_16  and  C_17 
REMARK    7  A    between atoms: C_17  and  C_18 
ROOT
HETATM    1  C   UNL     1      -3.919   3.733 -31.509  1.00  0.00     0.034 A 
HETATM    2  C   UNL     1      -3.686   2.567 -32.246  1.00  0.00     0.048 A 
HETATM    3  C   UNL     1      -4.556   1.487 -32.114  1.00  0.00     0.057 A 
HETATM    4  C   UNL     1      -5.660   1.543 -31.241  1.00  0.00     0.036 A 
HETATM    5  N   UNL     1      -6.480   0.418 -31.040  1.00  0.00    -0.277 NA
HETATM    6  C   UNL     1      -6.561  -0.500 -32.214  1.00  0.00     0.162 C 
HETATM    7  C   UNL     1      -5.169  -0.755 -32.828  1.00  0.00     0.240 C 
HETATM    8  O   UNL     1      -4.848  -1.815 -33.361  1.00  0.00    -0.271 OA
HETATM    9  N   UNL     1      -4.310   0.318 -32.844  1.00  0.00    -0.324 N 
HETATM   10  C   UNL     1      -5.835   2.686 -30.455  1.00  0.00     0.027 A 
HETATM   11  C   UNL     1      -4.981   3.786 -30.600  1.00  0.00     0.019 A 
HETATM   12  H   UNL     1      -7.383   0.637 -30.632  1.00  0.00     0.128 HD
HETATM   13  H   UNL     1      -3.438   0.191 -33.341  1.00  0.00     0.169 HD
ENDROOT
BRANCH   1  14
HETATM   14  C   UNL     1      -2.993   4.879 -31.710  1.00  0.00     0.252 C 
HETATM   15  N   UNL     1      -1.669   4.564 -31.906  1.00  0.00    -0.353 N 
HETATM   16  H   UNL     1      -1.353   3.605 -31.879  1.00  0.00     0.163 HD
HETATM   17  O   UNL     1      -3.422   6.025 -31.650  1.00  0.00    -0.268 OA
BRANCH  15  18
HETATM   18  C   UNL     1      -0.659   5.591 -32.046  1.00  0.00     0.161 C 
BRANCH  18  19
HETATM   19  C   UNL     1      -0.119   6.034 -30.709  1.00  0.00    -0.041 A 
HETATM   20  C   UNL     1      -0.133   7.388 -30.352  1.00  0.00     0.009 A 
HETATM   21  C   UNL     1       0.315   7.800 -29.093  1.00  0.00     0.007 A 
HETATM   22  C   UNL     1       0.785   6.864 -28.166  1.00  0.00    -0.062 A 
HETATM   23  C   UNL     1       1.244   7.290 -26.802  1.00  0.00     0.048 C 
HETATM   24  C   UNL     1       0.791   5.509 -28.513  1.00  0.00     0.007 A 
HETATM   25  C   UNL     1       0.338   5.098 -29.769  1.00  0.00     0.009 A 
ENDBRANCH  18  19
ENDBRANCH  15  18
ENDBRANCH   1  14
BRANCH   6  26
HETATM   26  C   UNL     1      -7.513   0.108 -33.265  1.00  0.00     0.103 C 
BRANCH  26  27
HETATM   27  S   UNL     1      -9.270   0.108 -32.774  1.00  0.00    -0.162 SA
BRANCH  27  28
HETATM   28  C   UNL     1      -9.545   1.908 -32.785  1.00  0.00     0.114 C 
BRANCH  28  29
HETATM   29  C   UNL     1     -10.510   2.321 -33.867  1.00  0.00    -0.027 A 
HETATM   30  C   UNL     1     -10.401   3.540 -34.556  1.00  0.00     0.041 A 
HETATM   31 CL   UNL     1      -9.148   4.681 -34.210  1.00  0.00    -0.084 Cl
HETATM   32  C   UNL     1     -11.321   3.879 -35.554  1.00  0.00     0.024 A 
HETATM   33  C   UNL     1     -12.355   3.004 -35.882  1.00  0.00     0.002 A 
HETATM   34  C   UNL     1     -12.469   1.786 -35.217  1.00  0.00     0.001 A 
HETATM   35  C   UNL     1     -11.554   1.446 -34.220  1.00  0.00     0.009 A 
ENDBRANCH  28  29
ENDBRANCH  27  28
ENDBRANCH  26  27
ENDBRANCH   6  26
TORSDOF 7
ENDMDL
MODEL 9
REMARK VINA RESULT:      -8.8      1.826      2.271
REMARK  7 active torsions:
REMARK  status: ('A' for Active; 'I' for Inactive)
REMARK    1  A    between atoms: C_5  and  C_6 
REMARK    2  A    between atoms: C_6  and  N_7 
REMARK       I    between atoms: N_7  and  C_8 
REMARK    3  A    between atoms: C_8  and  C_9 
REMARK    4  A    between atoms: C_14  and  C_15 
REMARK    5  A    between atoms: C_15  and  S_16 
REMARK    6  A    between atoms: S_16  and  C_17 
REMARK    7  A    between atoms: C_17  and  C_18 
ROOT
HETATM    1  C   UNL     1      -5.579   3.621 -32.390  1.00  0.00     0.034 A 
HETATM    2  C   UNL     1      -4.898   4.743 -32.873  1.00  0.00     0.048 A 
HETATM    3  C   UNL     1      -4.270   5.604 -31.976  1.00  0.00     0.057 A 
HETATM    4  C   UNL     1      -4.320   5.372 -30.587  1.00  0.00     0.036 A 
HETATM    5  N   UNL     1      -3.766   6.293 -29.680  1.00  0.00    -0.277 NA
HETATM    6  C   UNL     1      -2.609   7.065 -30.220  1.00  0.00     0.162 C 
HETATM    7  C   UNL     1      -2.889   7.578 -31.647  1.00  0.00     0.240 C 
HETATM    8  O   UNL     1      -2.441   8.635 -32.087  1.00  0.00    -0.271 OA
HETATM    9  N   UNL     1      -3.600   6.731 -32.465  1.00  0.00    -0.324 N 
HETATM   10  C   UNL     1      -5.069   4.290 -30.116  1.00  0.00     0.027 A 
HETATM   11  C   UNL     1      -5.682   3.404 -31.011  1.00  0.00     0.019 A 
HETATM   12  H   UNL     1      -3.603   5.910 -28.754  1.00  0.00     0.128 HD
HETATM   13  H   UNL     1      -3.695   7.012 -33.432  1.00  0.00     0.169 HD
ENDROOT
BRANCH   1  14
HETATM   14  C   UNL     1      -6.199   2.704 -33.382  1.00  0.00     0.252 C 
HETATM   15  N   UNL     1      -6.417   1.412 -32.963  1.00  0.00    -0.353 N 
HETATM   16  H   UNL     1      -6.137   1.110 -32.041  1.00  0.00     0.163 HD
HETATM   17  O   UNL     1      -6.440   3.106 -34.514  1.00  0.00    -0.268 OA
BRANCH  15  18
HETATM   18  C   UNL     1      -6.952   0.407 -33.857  1.00  0.00     0.161 C 
BRANCH  18  19
HETATM   19  C   UNL     1      -6.121  -0.852 -33.849  1.00  0.00    -0.041 A 
HETATM   20  C   UNL     1      -6.497  -1.955 -34.626  1.00  0.00     0.009 A 
HETATM   21  C   UNL     1      -5.703  -3.104 -34.667  1.00  0.00     0.007 A 
HETATM   22  C   UNL     1      -4.515  -3.172 -33.932  1.00  0.00    -0.062 A 
HETATM   23  C   UNL     1      -3.640  -4.390 -33.986  1.00  0.00     0.048 C 
HETATM   24  C   UNL     1      -4.129  -2.069 -33.162  1.00  0.00     0.007 A 
HETATM   25  C   UNL     1      -4.920  -0.919 -33.127  1.00  0.00     0.009 A 
ENDBRANCH  18  19
ENDBRANCH  15  18
ENDBRANCH   1  14
BRANCH   6  26
HETATM   26  C   UNL     1      -1.352   6.170 -30.203  1.00  0.00     0.103 C 
BRANCH  26  27
HETATM   27  S   UNL     1       0.157   7.007 -29.613  1.00  0.00    -0.162 SA
BRANCH  27  28
HETATM   28  C   UNL     1       0.189   6.330 -27.923  1.00  0.00     0.114 C 
BRANCH  28  29
HETATM   29  C   UNL     1       0.470   7.397 -26.896  1.00  0.00    -0.027 A 
HETATM   30  C   UNL     1      -0.544   8.167 -26.304  1.00  0.00     0.041 A 
HETATM   31 CL   UNL     1      -2.212   7.959 -26.715  1.00  0.00    -0.084 Cl
HETATM   32  C   UNL     1      -0.233   9.145 -25.354  1.00  0.00     0.024 A 
HETATM   33  C   UNL     1       1.091   9.363 -24.977  1.00  0.00     0.002 A 
HETATM   34  C   UNL     1       2.107   8.599 -25.545  1.00  0.00     0.001 A 
HETATM   35  C   UNL     1       1.800   7.623 -26.495  1.00  0.00     0.009 A 
ENDBRANCH  28  29
ENDBRANCH  27  28
ENDBRANCH  26  27
ENDBRANCH   6  26
TORSDOF 7
ENDMDL
MODEL 10
REMARK VINA RESULT:      -8.8      1.812      2.302
REMARK  7 active torsions:
REMARK  status: ('A' for Active; 'I' for Inactive)
REMARK    1  A    between atoms: C_5  and  C_6 
REMARK    2  A    between atoms: C_6  and  N_7 
REMARK       I    between atoms: N_7  and  C_8 
REMARK    3  A    between atoms: C_8  and  C_9 
REMARK    4  A    between atoms: C_14  and  C_15 
REMARK    5  A    between atoms: C_15  and  S_16 
REMARK    6  A    between atoms: S_16  and  C_17 
REMARK    7  A    between atoms: C_17  and  C_18 
ROOT
HETATM    1  C   UNL     1      -7.079   2.488 -32.939  1.00  0.00     0.034 A 
HETATM    2  C   UNL     1      -5.975   2.967 -33.652  1.00  0.00     0.048 A 
HETATM    3  C   UNL     1      -5.462   4.228 -33.357  1.00  0.00     0.057 A 
HETATM    4  C   UNL     1      -6.043   5.037 -32.362  1.00  0.00     0.036 A 
HETATM    5  N   UNL     1      -5.582   6.345 -32.133  1.00  0.00    -0.277 NA
HETATM    6  C   UNL     1      -4.137   6.550 -32.445  1.00  0.00     0.162 C 
HETATM    7  C   UNL     1      -3.753   5.903 -33.791  1.00  0.00     0.240 C 
HETATM    8  O   UNL     1      -2.891   6.359 -34.540  1.00  0.00    -0.271 OA
HETATM    9  N   UNL     1      -4.364   4.706 -34.082  1.00  0.00    -0.324 N 
HETATM   10  C   UNL     1      -7.193   4.576 -31.713  1.00  0.00     0.027 A 
HETATM   11  C   UNL     1      -7.700   3.300 -31.983  1.00  0.00     0.019 A 
HETATM   12  H   UNL     1      -5.862   6.728 -31.235  1.00  0.00     0.128 HD
HETATM   13  H   UNL     1      -4.039   4.223 -34.910  1.00  0.00     0.169 HD
ENDROOT
BRANCH   1  14
HETATM   14  C   UNL     1      -7.570   1.121 -33.254  1.00  0.00     0.252 C 
HETATM   15  N   UNL     1      -7.006   0.509 -34.349  1.00  0.00    -0.353 N 
HETATM   16  H   UNL     1      -6.321   0.988 -34.917  1.00  0.00     0.163 HD
HETATM   17  O   UNL     1      -8.462   0.625 -32.578  1.00  0.00    -0.268 OA
BRANCH  15  18
HETATM   18  C   UNL     1      -7.447  -0.795 -34.799  1.00  0.00     0.161 C 
BRANCH  18  19
HETATM   19  C   UNL     1      -6.385  -1.847 -34.597  1.00  0.00    -0.041 A 
HETATM   20  C   UNL     1      -5.176  -1.523 -33.970  1.00  0.00     0.009 A 
HETATM   21  C   UNL     1      -4.210  -2.505 -33.730  1.00  0.00     0.007 A 
HETATM   22  C   UNL     1      -4.436  -3.831 -34.112  1.00  0.00    -0.062 A 
HETATM   23  C   UNL     1      -3.419  -4.900 -33.838  1.00  0.00     0.048 C 
HETATM   24  C   UNL     1      -5.647  -4.162 -34.730  1.00  0.00     0.007 A 
HETATM   25  C   UNL     1      -6.614  -3.182 -34.963  1.00  0.00     0.009 A 
ENDBRANCH  18  19
ENDBRANCH  15  18
ENDBRANCH   1  14
BRANCH   6  26
HETATM   26  C   UNL     1      -3.285   5.962 -31.300  1.00  0.00     0.103 C 
BRANCH  26  27
HETATM   27  S   UNL     1      -3.465   6.833 -29.708  1.00  0.00    -0.162 SA
BRANCH  27  28
HETATM   28  C   UNL     1      -2.164   8.085 -29.945  1.00  0.00     0.114 C 
BRANCH  28  29
HETATM   29  C   UNL     1      -1.004   7.874 -29.006  1.00  0.00    -0.027 A 
HETATM   30  C   UNL     1      -0.566   8.861 -28.108  1.00  0.00     0.041 A 
HETATM   31 CL   UNL     1      -1.320  10.415 -28.012  1.00  0.00    -0.084 Cl
HETATM   32  C   UNL     1       0.515   8.617 -27.254  1.00  0.00     0.024 A 
HETATM   33  C   UNL     1       1.167   7.385 -27.280  1.00  0.00     0.002 A 
HETATM   34  C   UNL     1       0.736   6.392 -28.156  1.00  0.00     0.001 A 
HETATM   35  C   UNL     1      -0.341   6.632 -29.010  1.00  0.00     0.009 A 
ENDBRANCH  28  29
ENDBRANCH  27  28
ENDBRANCH  26  27
ENDBRANCH   6  26
TORSDOF 7
ENDMDL
