MODEL 1
REMARK VINA RESULT:      -8.1      0.000      0.000
REMARK  7 active torsions:
REMARK  status: ('A' for Active; 'I' for Inactive)
REMARK    1  A    between atoms: C_2  and  C_3 
REMARK    2  A    between atoms: C_3  and  N_4 
REMARK    3  A    between atoms: C_7  and  C_8 
REMARK    4  A    between atoms: C_8  and  N_9 
REMARK       I    between atoms: N_9  and  C_10 
REMARK       I    between atoms: C_10  and  N_11 
REMARK    5  A    between atoms: N_11  and  C_12 
REMARK    6  A    between atoms: C_16  and  N_17 
REMARK       I    between atoms: N_17  and  C_18 
REMARK    7  A    between atoms: C_18  and  C_19 
ROOT
HETATM    1  C   UNL     1      -6.012   2.843 -30.774  1.00  0.00     0.036 A 
HETATM    2  C   UNL     1      -6.339   2.832 -32.131  1.00  0.00     0.038 A 
HETATM    3  C   UNL     1      -6.313   1.635 -32.878  1.00  0.00    -0.033 A 
HETATM    4  C   UNL     1      -6.669   1.694 -34.341  1.00  0.00     0.050 C 
HETATM    5  C   UNL     1      -5.979   0.424 -32.237  1.00  0.00     0.041 A 
HETATM    6  C   UNL     1      -5.583   0.463 -30.897  1.00  0.00     0.032 A 
HETATM    7  C   UNL     1      -5.578   1.661 -30.178  1.00  0.00     0.032 A 
ENDROOT
BRANCH   1   8
HETATM    8  N   UNL     1      -6.063   3.992 -29.965  1.00  0.00    -0.309 N 
HETATM    9  C   UNL     1      -5.189   5.022 -29.802  1.00  0.00     0.320 C 
HETATM   10  N   UNL     1      -4.169   5.124 -30.706  1.00  0.00    -0.342 N 
HETATM   11  O   UNL     1      -5.361   5.838 -28.900  1.00  0.00    -0.247 OA
HETATM   12  H   UNL     1      -4.385   4.626 -31.562  1.00  0.00     0.164 HD
HETATM   13  H   UNL     1      -6.931   4.152 -29.465  1.00  0.00     0.170 HD
BRANCH  10  14
HETATM   14  C   UNL     1      -3.376   6.323 -30.920  1.00  0.00     0.130 C 
BRANCH  14  15
HETATM   15  C   UNL     1      -1.845   6.186 -30.977  1.00  0.00     0.031 C 
HETATM   16  C   UNL     1      -1.355   4.966 -31.744  1.00  0.00     0.241 C 
HETATM   17  N   UNL     1      -1.143   5.442 -33.179  1.00  0.00    -0.071 N 
HETATM   18  H   UNL     1      -0.161   5.233 -33.405  1.00  0.00     0.279 HD
HETATM   19  C   UNL     1      -1.306   6.946 -33.186  1.00  0.00     0.235 C 
HETATM   20  C   UNL     1      -1.194   7.342 -31.729  1.00  0.00     0.035 C 
BRANCH  17  21
HETATM   21  C   UNL     1      -1.998   4.700 -34.173  1.00  0.00     0.234 C 
BRANCH  21  22
HETATM   22  C   UNL     1      -3.076   5.617 -34.737  1.00  0.00     0.023 C 
HETATM   23  C   UNL     1      -4.462   5.050 -34.472  1.00  0.00     0.007 C 
ENDBRANCH  21  22
ENDBRANCH  17  21
ENDBRANCH  14  15
ENDBRANCH  10  14
ENDBRANCH   1   8
BRANCH   5  24
HETATM   24  N   UNL     1      -6.064  -0.782 -32.963  1.00  0.00    -0.321 N 
HETATM   25  C   UNL     1      -5.053  -1.451 -33.636  1.00  0.00     0.279 C 
HETATM   26  O   UNL     1      -3.895  -1.064 -33.748  1.00  0.00    -0.265 OA
HETATM   27  H   UNL     1      -6.936  -1.298 -32.929  1.00  0.00     0.169 HD
BRANCH  25  28
HETATM   28  C   UNL     1      -5.495  -2.722 -34.184  1.00  0.00     0.142 A 
HETATM   29  O   UNL     1      -4.631  -3.790 -34.196  1.00  0.00    -0.317 OA
HETATM   30  C   UNL     1      -5.294  -4.832 -34.762  1.00  0.00     0.143 A 
HETATM   31  C   UNL     1      -6.564  -4.456 -35.129  1.00  0.00     0.027 A 
HETATM   32  C   UNL     1      -6.696  -3.097 -34.755  1.00  0.00     0.045 A 
ENDBRANCH  25  28
ENDBRANCH   5  24
TORSDOF 7
ENDMDL
MODEL 2
REMARK VINA RESULT:      -7.7      0.948      2.072
REMARK  7 active torsions:
REMARK  status: ('A' for Active; 'I' for Inactive)
REMARK    1  A    between atoms: C_2  and  C_3 
REMARK    2  A    between atoms: C_3  and  N_4 
REMARK    3  A    between atoms: C_7  and  C_8 
REMARK    4  A    between atoms: C_8  and  N_9 
REMARK       I    between atoms: N_9  and  C_10 
REMARK       I    between atoms: C_10  and  N_11 
REMARK    5  A    between atoms: N_11  and  C_12 
REMARK    6  A    between atoms: C_16  and  N_17 
REMARK       I    between atoms: N_17  and  C_18 
REMARK    7  A    between atoms: C_18  and  C_19 
ROOT
HETATM    1  C   UNL     1      -6.140   2.754 -30.727  1.00  0.00     0.036 A 
HETATM    2  C   UNL     1      -6.438   2.752 -32.091  1.00  0.00     0.038 A 
HETATM    3  C   UNL     1      -6.383   1.563 -32.848  1.00  0.00    -0.033 A 
HETATM    4  C   UNL     1      -6.710   1.632 -34.317  1.00  0.00     0.050 C 
HETATM    5  C   UNL     1      -6.049   0.350 -32.211  1.00  0.00     0.041 A 
HETATM    6  C   UNL     1      -5.681   0.381 -30.862  1.00  0.00     0.032 A 
HETATM    7  C   UNL     1      -5.705   1.572 -30.133  1.00  0.00     0.032 A 
ENDROOT
BRANCH   1   8
HETATM    8  N   UNL     1      -6.220   3.895 -29.909  1.00  0.00    -0.309 N 
HETATM    9  C   UNL     1      -5.335   4.901 -29.669  1.00  0.00     0.320 C 
HETATM   10  N   UNL     1      -4.250   4.986 -30.496  1.00  0.00    -0.342 N 
HETATM   11  O   UNL     1      -5.551   5.711 -28.772  1.00  0.00    -0.247 OA
HETATM   12  H   UNL     1      -4.416   4.503 -31.371  1.00  0.00     0.164 HD
HETATM   13  H   UNL     1      -7.119   4.073 -29.471  1.00  0.00     0.170 HD
BRANCH  10  14
HETATM   14  C   UNL     1      -3.413   6.166 -30.636  1.00  0.00     0.130 C 
BRANCH  14  15
HETATM   15  C   UNL     1      -3.126   6.694 -32.051  1.00  0.00     0.031 C 
HETATM   16  C   UNL     1      -1.941   7.645 -32.135  1.00  0.00     0.241 C 
HETATM   17  N   UNL     1      -0.734   6.768 -32.459  1.00  0.00    -0.071 N 
HETATM   18  H   UNL     1      -0.333   7.148 -33.327  1.00  0.00     0.279 HD
HETATM   19  C   UNL     1      -1.251   5.379 -32.762  1.00  0.00     0.235 C 
HETATM   20  C   UNL     1      -2.732   5.577 -33.012  1.00  0.00     0.035 C 
BRANCH  17  21
HETATM   21  C   UNL     1       0.339   6.836 -31.404  1.00  0.00     0.234 C 
BRANCH  21  22
HETATM   22  C   UNL     1       0.626   5.448 -30.846  1.00  0.00     0.023 C 
HETATM   23  C   UNL     1       0.416   5.414 -29.340  1.00  0.00     0.007 C 
ENDBRANCH  21  22
ENDBRANCH  17  21
ENDBRANCH  14  15
ENDBRANCH  10  14
ENDBRANCH   1   8
BRANCH   5  24
HETATM   24  N   UNL     1      -6.105  -0.851 -32.949  1.00  0.00    -0.321 N 
HETATM   25  C   UNL     1      -5.080  -1.487 -33.632  1.00  0.00     0.279 C 
HETATM   26  O   UNL     1      -3.932  -1.069 -33.743  1.00  0.00    -0.265 OA
HETATM   27  H   UNL     1      -6.964  -1.389 -32.918  1.00  0.00     0.169 HD
BRANCH  25  28
HETATM   28  C   UNL     1      -5.491  -2.763 -34.192  1.00  0.00     0.142 A 
HETATM   29  O   UNL     1      -4.609  -3.816 -34.190  1.00  0.00    -0.317 OA
HETATM   30  C   UNL     1      -5.245  -4.868 -34.772  1.00  0.00     0.143 A 
HETATM   31  C   UNL     1      -6.514  -4.510 -35.162  1.00  0.00     0.027 A 
HETATM   32  C   UNL     1      -6.674  -3.155 -34.787  1.00  0.00     0.045 A 
ENDBRANCH  25  28
ENDBRANCH   5  24
TORSDOF 7
ENDMDL
MODEL 3
REMARK VINA RESULT:      -7.7      1.302      1.938
REMARK  7 active torsions:
REMARK  status: ('A' for Active; 'I' for Inactive)
REMARK    1  A    between atoms: C_2  and  C_3 
REMARK    2  A    between atoms: C_3  and  N_4 
REMARK    3  A    between atoms: C_7  and  C_8 
REMARK    4  A    between atoms: C_8  and  N_9 
REMARK       I    between atoms: N_9  and  C_10 
REMARK       I    between atoms: C_10  and  N_11 
REMARK    5  A    between atoms: N_11  and  C_12 
REMARK    6  A    between atoms: C_16  and  N_17 
REMARK       I    between atoms: N_17  and  C_18 
REMARK    7  A    between atoms: C_18  and  C_19 
ROOT
HETATM    1  C   UNL     1      -5.955   4.188 -30.726  1.00  0.00     0.036 A 
HETATM    2  C   UNL     1      -5.961   3.000 -29.993  1.00  0.00     0.038 A 
HETATM    3  C   UNL     1      -5.930   1.745 -30.638  1.00  0.00    -0.033 A 
HETATM    4  C   UNL     1      -5.947   0.501 -29.788  1.00  0.00     0.050 C 
HETATM    5  C   UNL     1      -5.862   1.689 -32.046  1.00  0.00     0.041 A 
HETATM    6  C   UNL     1      -5.930   2.885 -32.767  1.00  0.00     0.032 A 
HETATM    7  C   UNL     1      -5.998   4.120 -32.117  1.00  0.00     0.032 A 
ENDROOT
BRANCH   1   8
HETATM    8  N   UNL     1      -5.939   5.467 -30.144  1.00  0.00    -0.309 N 
HETATM    9  C   UNL     1      -4.913   6.260 -29.728  1.00  0.00     0.320 C 
HETATM   10  N   UNL     1      -3.652   5.897 -30.109  1.00  0.00    -0.342 N 
HETATM   11  O   UNL     1      -5.144   7.276 -29.080  1.00  0.00    -0.247 OA
HETATM   12  H   UNL     1      -3.673   5.285 -30.917  1.00  0.00     0.164 HD
HETATM   13  H   UNL     1      -6.831   5.948 -30.087  1.00  0.00     0.170 HD
BRANCH  10  14
HETATM   14  C   UNL     1      -2.499   6.781 -30.084  1.00  0.00     0.130 C 
BRANCH  14  15
HETATM   15  C   UNL     1      -1.118   6.191 -30.415  1.00  0.00     0.031 C 
HETATM   16  C   UNL     1      -1.166   4.835 -31.103  1.00  0.00     0.241 C 
HETATM   17  N   UNL     1      -1.150   5.134 -32.600  1.00  0.00    -0.071 N 
HETATM   18  H   UNL     1      -0.339   4.628 -32.981  1.00  0.00     0.279 HD
HETATM   19  C   UNL     1      -0.886   6.614 -32.763  1.00  0.00     0.235 C 
HETATM   20  C   UNL     1      -0.352   7.051 -31.415  1.00  0.00     0.035 C 
BRANCH  17  21
HETATM   21  C   UNL     1      -2.373   4.619 -33.312  1.00  0.00     0.234 C 
BRANCH  21  22
HETATM   22  C   UNL     1      -2.541   5.317 -34.656  1.00  0.00     0.023 C 
HETATM   23  C   UNL     1      -3.953   5.132 -35.190  1.00  0.00     0.007 C 
ENDBRANCH  21  22
ENDBRANCH  17  21
ENDBRANCH  14  15
ENDBRANCH  10  14
ENDBRANCH   1   8
BRANCH   5  24
HETATM   24  N   UNL     1      -5.718   0.436 -32.676  1.00  0.00    -0.321 N 
HETATM   25  C   UNL     1      -6.714  -0.420 -33.122  1.00  0.00     0.279 C 
HETATM   26  O   UNL     1      -7.919  -0.236 -32.994  1.00  0.00    -0.265 OA
HETATM   27  H   UNL     1      -4.784   0.138 -32.936  1.00  0.00     0.169 HD
BRANCH  25  28
HETATM   28  C   UNL     1      -6.182  -1.579 -33.817  1.00  0.00     0.142 A 
HETATM   29  O   UNL     1      -4.822  -1.736 -33.927  1.00  0.00    -0.317 OA
HETATM   30  C   UNL     1      -4.610  -2.886 -34.621  1.00  0.00     0.143 A 
HETATM   31  C   UNL     1      -5.804  -3.467 -34.972  1.00  0.00     0.027 A 
HETATM   32  C   UNL     1      -6.819  -2.627 -34.453  1.00  0.00     0.045 A 
ENDBRANCH  25  28
ENDBRANCH   5  24
TORSDOF 7
ENDMDL
MODEL 4
REMARK VINA RESULT:      -7.6      4.197      5.458
REMARK  7 active torsions:
REMARK  status: ('A' for Active; 'I' for Inactive)
REMARK    1  A    between atoms: C_2  and  C_3 
REMARK    2  A    between atoms: C_3  and  N_4 
REMARK    3  A    between atoms: C_7  and  C_8 
REMARK    4  A    between atoms: C_8  and  N_9 
REMARK       I    between atoms: N_9  and  C_10 
REMARK       I    between atoms: C_10  and  N_11 
REMARK    5  A    between atoms: N_11  and  C_12 
REMARK    6  A    between atoms: C_16  and  N_17 
REMARK       I    between atoms: N_17  and  C_18 
REMARK    7  A    between atoms: C_18  and  C_19 
ROOT
HETATM    1  C   UNL     1      -6.332   1.367 -31.372  1.00  0.00     0.036 A 
HETATM    2  C   UNL     1      -7.241   2.280 -30.836  1.00  0.00     0.038 A 
HETATM    3  C   UNL     1      -8.596   2.278 -31.230  1.00  0.00    -0.033 A 
HETATM    4  C   UNL     1      -9.523   3.296 -30.619  1.00  0.00     0.050 C 
HETATM    5  C   UNL     1      -9.047   1.318 -32.161  1.00  0.00     0.041 A 
HETATM    6  C   UNL     1      -8.110   0.459 -32.743  1.00  0.00     0.032 A 
HETATM    7  C   UNL     1      -6.763   0.496 -32.370  1.00  0.00     0.032 A 
ENDROOT
BRANCH   1   8
HETATM    8  N   UNL     1      -4.982   1.288 -30.987  1.00  0.00    -0.309 N 
HETATM    9  C   UNL     1      -3.860   1.861 -31.502  1.00  0.00     0.320 C 
HETATM   10  N   UNL     1      -4.034   2.862 -32.416  1.00  0.00    -0.342 N 
HETATM   11  O   UNL     1      -2.752   1.508 -31.108  1.00  0.00    -0.247 OA
HETATM   12  H   UNL     1      -4.960   3.269 -32.344  1.00  0.00     0.164 HD
HETATM   13  H   UNL     1      -4.788   0.789 -30.125  1.00  0.00     0.170 HD
BRANCH  10  14
HETATM   14  C   UNL     1      -3.009   3.820 -32.792  1.00  0.00     0.130 C 
BRANCH  14  15
HETATM   15  C   UNL     1      -3.360   4.894 -33.836  1.00  0.00     0.031 C 
HETATM   16  C   UNL     1      -3.500   6.298 -33.266  1.00  0.00     0.241 C 
HETATM   17  N   UNL     1      -2.119   6.935 -33.401  1.00  0.00    -0.071 N 
HETATM   18  H   UNL     1      -2.256   7.793 -33.953  1.00  0.00     0.279 HD
HETATM   19  C   UNL     1      -1.264   5.994 -34.221  1.00  0.00     0.235 C 
HETATM   20  C   UNL     1      -2.259   5.061 -34.879  1.00  0.00     0.035 C 
BRANCH  17  21
HETATM   21  C   UNL     1      -1.531   7.344 -32.076  1.00  0.00     0.234 C 
BRANCH  21  22
HETATM   22  C   UNL     1      -0.276   6.535 -31.777  1.00  0.00     0.023 C 
HETATM   23  C   UNL     1       0.341   6.960 -30.454  1.00  0.00     0.007 C 
ENDBRANCH  21  22
ENDBRANCH  17  21
ENDBRANCH  14  15
ENDBRANCH  10  14
ENDBRANCH   1   8
BRANCH   5  24
HETATM   24  N   UNL     1     -10.422   1.251 -32.465  1.00  0.00    -0.321 N 
HETATM   25  C   UNL     1     -11.078   1.736 -33.586  1.00  0.00     0.279 C 
HETATM   26  O   UNL     1     -10.554   2.361 -34.502  1.00  0.00    -0.265 OA
HETATM   27  H   UNL     1     -11.018   0.704 -31.854  1.00  0.00     0.169 HD
BRANCH  25  28
HETATM   28  C   UNL     1     -12.488   1.389 -33.600  1.00  0.00     0.142 A 
HETATM   29  O   UNL     1     -13.393   2.212 -32.974  1.00  0.00    -0.317 OA
HETATM   30  C   UNL     1     -14.620   1.650 -33.137  1.00  0.00     0.143 A 
HETATM   31  C   UNL     1     -14.525   0.475 -33.844  1.00  0.00     0.027 A 
HETATM   32  C   UNL     1     -13.152   0.308 -34.146  1.00  0.00     0.045 A 
ENDBRANCH  25  28
ENDBRANCH   5  24
TORSDOF 7
ENDMDL
MODEL 5
REMARK VINA RESULT:      -7.5      4.070      5.228
REMARK  7 active torsions:
REMARK  status: ('A' for Active; 'I' for Inactive)
REMARK    1  A    between atoms: C_2  and  C_3 
REMARK    2  A    between atoms: C_3  and  N_4 
REMARK    3  A    between atoms: C_7  and  C_8 
REMARK    4  A    between atoms: C_8  and  N_9 
REMARK       I    between atoms: N_9  and  C_10 
REMARK       I    between atoms: C_10  and  N_11 
REMARK    5  A    between atoms: N_11  and  C_12 
REMARK    6  A    between atoms: C_16  and  N_17 
REMARK       I    between atoms: N_17  and  C_18 
REMARK    7  A    between atoms: C_18  and  C_19 
ROOT
HETATM    1  C   UNL     1      -6.216   0.361 -31.586  1.00  0.00     0.036 A 
HETATM    2  C   UNL     1      -7.066   1.324 -31.038  1.00  0.00     0.038 A 
HETATM    3  C   UNL     1      -8.405   1.445 -31.468  1.00  0.00    -0.033 A 
HETATM    4  C   UNL     1      -9.266   2.509 -30.840  1.00  0.00     0.050 C 
HETATM    5  C   UNL     1      -8.901   0.560 -32.448  1.00  0.00     0.041 A 
HETATM    6  C   UNL     1      -8.018  -0.348 -33.039  1.00  0.00     0.032 A 
HETATM    7  C   UNL     1      -6.685  -0.433 -32.629  1.00  0.00     0.032 A 
ENDROOT
BRANCH   1   8
HETATM    8  N   UNL     1      -4.889   0.160 -31.169  1.00  0.00    -0.309 N 
HETATM    9  C   UNL     1      -3.764   0.908 -31.340  1.00  0.00     0.320 C 
HETATM   10  N   UNL     1      -3.927   2.183 -31.801  1.00  0.00    -0.342 N 
HETATM   11  O   UNL     1      -2.667   0.446 -31.039  1.00  0.00    -0.247 OA
HETATM   12  H   UNL     1      -4.872   2.514 -31.641  1.00  0.00     0.164 HD
HETATM   13  H   UNL     1      -4.724  -0.633 -30.558  1.00  0.00     0.170 HD
BRANCH  10  14
HETATM   14  C   UNL     1      -2.924   3.230 -31.701  1.00  0.00     0.130 C 
BRANCH  14  15
HETATM   15  C   UNL     1      -2.543   4.002 -32.975  1.00  0.00     0.031 C 
HETATM   16  C   UNL     1      -3.702   4.741 -33.628  1.00  0.00     0.241 C 
HETATM   17  N   UNL     1      -3.677   6.148 -33.035  1.00  0.00    -0.071 N 
HETATM   18  H   UNL     1      -3.601   6.791 -33.835  1.00  0.00     0.279 HD
HETATM   19  C   UNL     1      -2.408   6.275 -32.222  1.00  0.00     0.235 C 
HETATM   20  C   UNL     1      -1.546   5.120 -32.691  1.00  0.00     0.035 C 
BRANCH  17  21
HETATM   21  C   UNL     1      -4.945   6.496 -32.301  1.00  0.00     0.234 C 
BRANCH  21  22
HETATM   22  C   UNL     1      -5.899   5.308 -32.292  1.00  0.00     0.023 C 
HETATM   23  C   UNL     1      -6.244   4.902 -30.868  1.00  0.00     0.007 C 
ENDBRANCH  21  22
ENDBRANCH  17  21
ENDBRANCH  14  15
ENDBRANCH  10  14
ENDBRANCH   1   8
BRANCH   5  24
HETATM   24  N   UNL     1     -10.268   0.615 -32.790  1.00  0.00    -0.321 N 
HETATM   25  C   UNL     1     -10.869   1.337 -33.809  1.00  0.00     0.279 C 
HETATM   26  O   UNL     1     -10.293   2.104 -34.573  1.00  0.00    -0.265 OA
HETATM   27  H   UNL     1     -10.904  -0.014 -32.312  1.00  0.00     0.169 HD
BRANCH  25  28
HETATM   28  C   UNL     1     -12.291   1.063 -33.924  1.00  0.00     0.142 A 
HETATM   29  O   UNL     1     -12.791  -0.124 -33.446  1.00  0.00    -0.317 OA
HETATM   30  C   UNL     1     -14.129  -0.118 -33.686  1.00  0.00     0.143 A 
HETATM   31  C   UNL     1     -14.501   1.042 -34.322  1.00  0.00     0.027 A 
HETATM   32  C   UNL     1     -13.318   1.805 -34.473  1.00  0.00     0.045 A 
ENDBRANCH  25  28
ENDBRANCH   5  24
TORSDOF 7
ENDMDL
MODEL 6
REMARK VINA RESULT:      -7.5      2.427      7.940
REMARK  7 active torsions:
REMARK  status: ('A' for Active; 'I' for Inactive)
REMARK    1  A    between atoms: C_2  and  C_3 
REMARK    2  A    between atoms: C_3  and  N_4 
REMARK    3  A    between atoms: C_7  and  C_8 
REMARK    4  A    between atoms: C_8  and  N_9 
REMARK       I    between atoms: N_9  and  C_10 
REMARK       I    between atoms: C_10  and  N_11 
REMARK    5  A    between atoms: N_11  and  C_12 
REMARK    6  A    between atoms: C_16  and  N_17 
REMARK       I    between atoms: N_17  and  C_18 
REMARK    7  A    between atoms: C_18  and  C_19 
ROOT
HETATM    1  C   UNL     1      -7.234   2.236 -31.484  1.00  0.00     0.036 A 
HETATM    2  C   UNL     1      -6.918   3.296 -32.336  1.00  0.00     0.038 A 
HETATM    3  C   UNL     1      -5.786   4.107 -32.102  1.00  0.00    -0.033 A 
HETATM    4  C   UNL     1      -5.507   5.239 -33.055  1.00  0.00     0.050 C 
HETATM    5  C   UNL     1      -4.944   3.824 -31.007  1.00  0.00     0.041 A 
HETATM    6  C   UNL     1      -5.314   2.806 -30.123  1.00  0.00     0.032 A 
HETATM    7  C   UNL     1      -6.458   2.034 -30.346  1.00  0.00     0.032 A 
ENDROOT
BRANCH   1   8
HETATM    8  N   UNL     1      -8.319   1.366 -31.687  1.00  0.00    -0.309 N 
HETATM    9  C   UNL     1      -8.478   0.295 -32.512  1.00  0.00     0.320 C 
HETATM   10  N   UNL     1      -7.356  -0.199 -33.116  1.00  0.00    -0.342 N 
HETATM   11  O   UNL     1      -9.586  -0.215 -32.652  1.00  0.00    -0.247 OA
HETATM   12  H   UNL     1      -6.518   0.081 -32.619  1.00  0.00     0.164 HD
HETATM   13  H   UNL     1      -9.110   1.479 -31.061  1.00  0.00     0.170 HD
BRANCH  10  14
HETATM   14  C   UNL     1      -7.258  -1.517 -33.718  1.00  0.00     0.130 C 
BRANCH  14  15
HETATM   15  C   UNL     1      -6.167  -1.760 -34.774  1.00  0.00     0.031 C 
HETATM   16  C   UNL     1      -4.792  -1.240 -34.382  1.00  0.00     0.241 C 
HETATM   17  N   UNL     1      -4.086  -2.413 -33.706  1.00  0.00    -0.071 N 
HETATM   18  H   UNL     1      -3.217  -2.564 -34.236  1.00  0.00     0.279 HD
HETATM   19  C   UNL     1      -4.957  -3.635 -33.896  1.00  0.00     0.235 C 
HETATM   20  C   UNL     1      -5.913  -3.246 -35.005  1.00  0.00     0.035 C 
BRANCH  17  21
HETATM   21  C   UNL     1      -3.696  -2.119 -32.282  1.00  0.00     0.234 C 
BRANCH  21  22
HETATM   22  C   UNL     1      -4.111  -0.705 -31.896  1.00  0.00     0.023 C 
HETATM   23  C   UNL     1      -2.979   0.017 -31.184  1.00  0.00     0.007 C 
ENDBRANCH  21  22
ENDBRANCH  17  21
ENDBRANCH  14  15
ENDBRANCH  10  14
ENDBRANCH   1   8
BRANCH   5  24
HETATM   24  N   UNL     1      -3.756   4.567 -30.846  1.00  0.00    -0.321 N 
HETATM   25  C   UNL     1      -2.534   4.377 -31.472  1.00  0.00     0.279 C 
HETATM   26  O   UNL     1      -2.271   3.475 -32.260  1.00  0.00    -0.265 OA
HETATM   27  H   UNL     1      -3.794   5.408 -30.280  1.00  0.00     0.169 HD
BRANCH  25  28
HETATM   28  C   UNL     1      -1.567   5.406 -31.131  1.00  0.00     0.142 A 
HETATM   29  O   UNL     1      -1.924   6.407 -30.260  1.00  0.00    -0.317 OA
HETATM   30  C   UNL     1      -0.845   7.222 -30.128  1.00  0.00     0.143 A 
HETATM   31  C   UNL     1       0.196   6.777 -30.906  1.00  0.00     0.027 A 
HETATM   32  C   UNL     1      -0.266   5.605 -31.551  1.00  0.00     0.045 A 
ENDBRANCH  25  28
ENDBRANCH   5  24
TORSDOF 7
ENDMDL
MODEL 7
REMARK VINA RESULT:      -7.3      1.407      2.643
REMARK  7 active torsions:
REMARK  status: ('A' for Active; 'I' for Inactive)
REMARK    1  A    between atoms: C_2  and  C_3 
REMARK    2  A    between atoms: C_3  and  N_4 
REMARK    3  A    between atoms: C_7  and  C_8 
REMARK    4  A    between atoms: C_8  and  N_9 
REMARK       I    between atoms: N_9  and  C_10 
REMARK       I    between atoms: C_10  and  N_11 
REMARK    5  A    between atoms: N_11  and  C_12 
REMARK    6  A    between atoms: C_16  and  N_17 
REMARK       I    between atoms: N_17  and  C_18 
REMARK    7  A    between atoms: C_18  and  C_19 
ROOT
HETATM    1  C   UNL     1      -6.825   3.457 -32.437  1.00  0.00     0.036 A 
HETATM    2  C   UNL     1      -6.899   2.399 -31.529  1.00  0.00     0.038 A 
HETATM    3  C   UNL     1      -6.734   1.063 -31.951  1.00  0.00    -0.033 A 
HETATM    4  C   UNL     1      -6.834  -0.032 -30.920  1.00  0.00     0.050 C 
HETATM    5  C   UNL     1      -6.461   0.791 -33.307  1.00  0.00     0.041 A 
HETATM    6  C   UNL     1      -6.462   1.854 -34.216  1.00  0.00     0.032 A 
HETATM    7  C   UNL     1      -6.664   3.170 -33.790  1.00  0.00     0.032 A 
ENDROOT
BRANCH   1   8
HETATM    8  N   UNL     1      -6.935   4.810 -32.074  1.00  0.00    -0.309 N 
HETATM    9  C   UNL     1      -6.044   5.672 -31.512  1.00  0.00     0.320 C 
HETATM   10  N   UNL     1      -4.737   5.274 -31.465  1.00  0.00    -0.342 N 
HETATM   11  O   UNL     1      -6.417   6.773 -31.116  1.00  0.00    -0.247 OA
HETATM   12  H   UNL     1      -4.550   4.546 -32.145  1.00  0.00     0.164 HD
HETATM   13  H   UNL     1      -7.794   5.280 -32.343  1.00  0.00     0.170 HD
BRANCH  10  14
HETATM   14  C   UNL     1      -3.612   6.169 -31.252  1.00  0.00     0.130 C 
BRANCH  14  15
HETATM   15  C   UNL     1      -3.029   6.912 -32.465  1.00  0.00     0.031 C 
HETATM   16  C   UNL     1      -1.783   7.730 -32.158  1.00  0.00     0.241 C 
HETATM   17  N   UNL     1      -0.603   6.803 -32.439  1.00  0.00    -0.071 N 
HETATM   18  H   UNL     1      -0.021   7.289 -33.134  1.00  0.00     0.279 HD
HETATM   19  C   UNL     1      -1.154   5.555 -33.093  1.00  0.00     0.235 C 
HETATM   20  C   UNL     1      -2.544   5.952 -33.546  1.00  0.00     0.035 C 
BRANCH  17  21
HETATM   21  C   UNL     1       0.255   6.564 -31.225  1.00  0.00     0.234 C 
BRANCH  21  22
HETATM   22  C   UNL     1      -0.104   5.235 -30.571  1.00  0.00     0.023 C 
HETATM   23  C   UNL     1       0.980   4.800 -29.597  1.00  0.00     0.007 C 
ENDBRANCH  21  22
ENDBRANCH  17  21
ENDBRANCH  14  15
ENDBRANCH  10  14
ENDBRANCH   1   8
BRANCH   5  24
HETATM   24  N   UNL     1      -6.186  -0.535 -33.699  1.00  0.00    -0.321 N 
HETATM   25  C   UNL     1      -4.954  -1.162 -33.802  1.00  0.00     0.279 C 
HETATM   26  O   UNL     1      -3.866  -0.630 -33.604  1.00  0.00    -0.265 OA
HETATM   27  H   UNL     1      -6.970  -1.162 -33.839  1.00  0.00     0.169 HD
BRANCH  25  28
HETATM   28  C   UNL     1      -5.070  -2.570 -34.139  1.00  0.00     0.142 A 
HETATM   29  O   UNL     1      -4.072  -3.438 -33.768  1.00  0.00    -0.317 OA
HETATM   30  C   UNL     1      -4.434  -4.672 -34.210  1.00  0.00     0.143 A 
HETATM   31  C   UNL     1      -5.638  -4.615 -34.871  1.00  0.00     0.027 A 
HETATM   32  C   UNL     1      -6.051  -3.262 -34.823  1.00  0.00     0.045 A 
ENDBRANCH  25  28
ENDBRANCH   5  24
TORSDOF 7
ENDMDL
MODEL 8
REMARK VINA RESULT:      -7.2     16.339     18.531
REMARK  7 active torsions:
REMARK  status: ('A' for Active; 'I' for Inactive)
REMARK    1  A    between atoms: C_2  and  C_3 
REMARK    2  A    between atoms: C_3  and  N_4 
REMARK    3  A    between atoms: C_7  and  C_8 
REMARK    4  A    between atoms: C_8  and  N_9 
REMARK       I    between atoms: N_9  and  C_10 
REMARK       I    between atoms: C_10  and  N_11 
REMARK    5  A    between atoms: N_11  and  C_12 
REMARK    6  A    between atoms: C_16  and  N_17 
REMARK       I    between atoms: N_17  and  C_18 
REMARK    7  A    between atoms: C_18  and  C_19 
ROOT
HETATM    1  C   UNL     1      -7.458 -13.680 -37.250  1.00  0.00     0.036 A 
HETATM    2  C   UNL     1      -7.970 -12.731 -38.136  1.00  0.00     0.038 A 
HETATM    3  C   UNL     1      -8.860 -13.101 -39.167  1.00  0.00    -0.033 A 
HETATM    4  C   UNL     1      -9.369 -12.029 -40.094  1.00  0.00     0.050 C 
HETATM    5  C   UNL     1      -9.261 -14.448 -39.287  1.00  0.00     0.041 A 
HETATM    6  C   UNL     1      -8.683 -15.397 -38.439  1.00  0.00     0.032 A 
HETATM    7  C   UNL     1      -7.775 -15.022 -37.445  1.00  0.00     0.032 A 
ENDROOT
BRANCH   1   8
HETATM    8  N   UNL     1      -6.605 -13.369 -36.176  1.00  0.00    -0.309 N 
HETATM    9  C   UNL     1      -5.251 -13.253 -36.100  1.00  0.00     0.320 C 
HETATM   10  N   UNL     1      -4.562 -13.210 -37.280  1.00  0.00    -0.342 N 
HETATM   11  O   UNL     1      -4.702 -13.145 -35.007  1.00  0.00    -0.247 OA
HETATM   12  H   UNL     1      -5.165 -12.937 -38.048  1.00  0.00     0.164 HD
HETATM   13  H   UNL     1      -7.055 -13.095 -35.308  1.00  0.00     0.170 HD
BRANCH  10  14
HETATM   14  C   UNL     1      -3.197 -12.731 -37.419  1.00  0.00     0.130 C 
BRANCH  14  15
HETATM   15  C   UNL     1      -2.065 -13.768 -37.508  1.00  0.00     0.031 C 
HETATM   16  C   UNL     1      -2.495 -15.119 -38.059  1.00  0.00     0.241 C 
HETATM   17  N   UNL     1      -2.246 -15.047 -39.564  1.00  0.00    -0.071 N 
HETATM   18  H   UNL     1      -1.617 -15.830 -39.785  1.00  0.00     0.279 HD
HETATM   19  C   UNL     1      -1.494 -13.762 -39.837  1.00  0.00     0.235 C 
HETATM   20  C   UNL     1      -0.971 -13.339 -38.480  1.00  0.00     0.035 C 
BRANCH  17  21
HETATM   21  C   UNL     1      -3.500 -15.239 -40.375  1.00  0.00     0.234 C 
BRANCH  21  22
HETATM   22  C   UNL     1      -4.001 -13.902 -40.907  1.00  0.00     0.023 C 
HETATM   23  C   UNL     1      -5.513 -13.800 -40.781  1.00  0.00     0.007 C 
ENDBRANCH  21  22
ENDBRANCH  17  21
ENDBRANCH  14  15
ENDBRANCH  10  14
ENDBRANCH   1   8
BRANCH   5  24
HETATM   24  N   UNL     1     -10.236 -14.790 -40.248  1.00  0.00    -0.321 N 
HETATM   25  C   UNL     1     -10.062 -15.477 -41.439  1.00  0.00     0.279 C 
HETATM   26  O   UNL     1      -8.989 -15.872 -41.882  1.00  0.00    -0.265 OA
HETATM   27  H   UNL     1     -11.208 -14.608 -40.025  1.00  0.00     0.169 HD
BRANCH  25  28
HETATM   28  C   UNL     1     -11.318 -15.735 -42.122  1.00  0.00     0.142 A 
HETATM   29  O   UNL     1     -12.483 -15.218 -41.611  1.00  0.00    -0.317 OA
HETATM   30  C   UNL     1     -13.489 -15.614 -42.435  1.00  0.00     0.143 A 
HETATM   31  C   UNL     1     -12.998 -16.388 -43.460  1.00  0.00     0.027 A 
HETATM   32  C   UNL     1     -11.599 -16.464 -43.261  1.00  0.00     0.045 A 
ENDBRANCH  25  28
ENDBRANCH   5  24
TORSDOF 7
ENDMDL
MODEL 9
REMARK VINA RESULT:      -7.2      4.298      6.497
REMARK  7 active torsions:
REMARK  status: ('A' for Active; 'I' for Inactive)
REMARK    1  A    between atoms: C_2  and  C_3 
REMARK    2  A    between atoms: C_3  and  N_4 
REMARK    3  A    between atoms: C_7  and  C_8 
REMARK    4  A    between atoms: C_8  and  N_9 
REMARK       I    between atoms: N_9  and  C_10 
REMARK       I    between atoms: C_10  and  N_11 
REMARK    5  A    between atoms: N_11  and  C_12 
REMARK    6  A    between atoms: C_16  and  N_17 
REMARK       I    between atoms: N_17  and  C_18 
REMARK    7  A    between atoms: C_18  and  C_19 
ROOT
HETATM    1  C   UNL     1      -6.892   4.259 -32.333  1.00  0.00     0.036 A 
HETATM    2  C   UNL     1      -7.825   4.087 -31.308  1.00  0.00     0.038 A 
HETATM    3  C   UNL     1      -9.141   3.658 -31.585  1.00  0.00    -0.033 A 
HETATM    4  C   UNL     1     -10.100   3.499 -30.434  1.00  0.00     0.050 C 
HETATM    5  C   UNL     1      -9.513   3.372 -32.915  1.00  0.00     0.041 A 
HETATM    6  C   UNL     1      -8.590   3.620 -33.936  1.00  0.00     0.032 A 
HETATM    7  C   UNL     1      -7.301   4.079 -33.651  1.00  0.00     0.032 A 
ENDROOT
BRANCH   1   8
HETATM    8  N   UNL     1      -5.556   4.639 -32.119  1.00  0.00    -0.309 N 
HETATM    9  C   UNL     1      -4.466   3.928 -31.720  1.00  0.00     0.320 C 
HETATM   10  N   UNL     1      -4.577   2.566 -31.716  1.00  0.00    -0.342 N 
HETATM   11  O   UNL     1      -3.425   4.510 -31.427  1.00  0.00    -0.247 OA
HETATM   12  H   UNL     1      -5.331   2.257 -32.320  1.00  0.00     0.164 HD
HETATM   13  H   UNL     1      -5.310   5.589 -32.381  1.00  0.00     0.170 HD
BRANCH  10  14
HETATM   14  C   UNL     1      -3.451   1.648 -31.682  1.00  0.00     0.130 C 
BRANCH  14  15
HETATM   15  C   UNL     1      -3.679   0.232 -31.129  1.00  0.00     0.031 C 
HETATM   16  C   UNL     1      -5.142  -0.132 -30.924  1.00  0.00     0.241 C 
HETATM   17  N   UNL     1      -5.582  -0.808 -32.220  1.00  0.00    -0.071 N 
HETATM   18  H   UNL     1      -5.935  -1.736 -31.950  1.00  0.00     0.279 HD
HETATM   19  C   UNL     1      -4.345  -1.016 -33.065  1.00  0.00     0.235 C 
HETATM   20  C   UNL     1      -3.195  -0.845 -32.094  1.00  0.00     0.035 C 
BRANCH  17  21
HETATM   21  C   UNL     1      -6.711  -0.083 -32.905  1.00  0.00     0.234 C 
BRANCH  21  22
HETATM   22  C   UNL     1      -6.944  -0.653 -34.298  1.00  0.00     0.023 C 
HETATM   23  C   UNL     1      -7.140   0.461 -35.314  1.00  0.00     0.007 C 
ENDBRANCH  21  22
ENDBRANCH  17  21
ENDBRANCH  14  15
ENDBRANCH  10  14
ENDBRANCH   1   8
BRANCH   5  24
HETATM   24  N   UNL     1     -10.793   2.838 -33.169  1.00  0.00    -0.321 N 
HETATM   25  C   UNL     1     -11.131   1.529 -33.474  1.00  0.00     0.279 C 
HETATM   26  O   UNL     1     -10.339   0.604 -33.618  1.00  0.00    -0.265 OA
HETATM   27  H   UNL     1     -11.597   3.440 -33.027  1.00  0.00     0.169 HD
BRANCH  25  28
HETATM   28  C   UNL     1     -12.568   1.332 -33.569  1.00  0.00     0.142 A 
HETATM   29  O   UNL     1     -13.414   2.237 -32.977  1.00  0.00    -0.317 OA
HETATM   30  C   UNL     1     -14.682   1.809 -33.215  1.00  0.00     0.143 A 
HETATM   31  C   UNL     1     -14.671   0.640 -33.936  1.00  0.00     0.027 A 
HETATM   32  C   UNL     1     -13.309   0.332 -34.168  1.00  0.00     0.045 A 
ENDBRANCH  25  28
ENDBRANCH   5  24
TORSDOF 7
ENDMDL
MODEL 10
REMARK VINA RESULT:      -7.0      4.383      6.936
REMARK  7 active torsions:
REMARK  status: ('A' for Active; 'I' for Inactive)
REMARK    1  A    between atoms: C_2  and  C_3 
REMARK    2  A    between atoms: C_3  and  N_4 
REMARK    3  A    between atoms: C_7  and  C_8 
REMARK    4  A    between atoms: C_8  and  N_9 
REMARK       I    between atoms: N_9  and  C_10 
REMARK       I    between atoms: C_10  and  N_11 
REMARK    5  A    between atoms: N_11  and  C_12 
REMARK    6  A    between atoms: C_16  and  N_17 
REMARK       I    between atoms: N_17  and  C_18 
REMARK    7  A    between atoms: C_18  and  C_19 
ROOT
HETATM    1  C   UNL     1      -7.913   2.539 -31.534  1.00  0.00     0.036 A 
HETATM    2  C   UNL     1      -8.105   2.297 -32.895  1.00  0.00     0.038 A 
HETATM    3  C   UNL     1      -7.657   1.100 -33.493  1.00  0.00    -0.033 A 
HETATM    4  C   UNL     1      -7.890   0.905 -34.969  1.00  0.00     0.050 C 
HETATM    5  C   UNL     1      -7.030   0.119 -32.698  1.00  0.00     0.041 A 
HETATM    6  C   UNL     1      -6.780   0.407 -31.353  1.00  0.00     0.032 A 
HETATM    7  C   UNL     1      -7.196   1.612 -30.781  1.00  0.00     0.032 A 
ENDROOT
BRANCH   1   8
HETATM    8  N   UNL     1      -8.375   3.689 -30.870  1.00  0.00    -0.309 N 
HETATM    9  C   UNL     1      -9.613   4.247 -30.783  1.00  0.00     0.320 C 
HETATM   10  N   UNL     1     -10.668   3.494 -31.216  1.00  0.00    -0.342 N 
HETATM   11  O   UNL     1      -9.752   5.363 -30.289  1.00  0.00    -0.247 OA
HETATM   12  H   UNL     1     -10.434   2.508 -31.233  1.00  0.00     0.164 HD
HETATM   13  H   UNL     1      -7.706   4.163 -30.271  1.00  0.00     0.170 HD
BRANCH  10  14
HETATM   14  C   UNL     1     -12.058   3.752 -30.876  1.00  0.00     0.130 C 
BRANCH  14  15
HETATM   15  C   UNL     1     -12.947   4.454 -31.915  1.00  0.00     0.031 C 
HETATM   16  C   UNL     1     -12.955   3.788 -33.283  1.00  0.00     0.241 C 
HETATM   17  N   UNL     1     -14.133   2.817 -33.260  1.00  0.00    -0.071 N 
HETATM   18  H   UNL     1     -14.735   3.083 -34.050  1.00  0.00     0.279 HD
HETATM   19  C   UNL     1     -14.907   3.075 -31.986  1.00  0.00     0.235 C 
HETATM   20  C   UNL     1     -14.419   4.431 -31.519  1.00  0.00     0.035 C 
BRANCH  17  21
HETATM   21  C   UNL     1     -13.716   1.386 -33.477  1.00  0.00     0.234 C 
BRANCH  21  22
HETATM   22  C   UNL     1     -12.405   1.324 -34.251  1.00  0.00     0.023 C 
HETATM   23  C   UNL     1     -11.342   0.582 -33.457  1.00  0.00     0.007 C 
ENDBRANCH  21  22
ENDBRANCH  17  21
ENDBRANCH  14  15
ENDBRANCH  10  14
ENDBRANCH   1   8
BRANCH   5  24
HETATM   24  N   UNL     1      -6.687  -1.119 -33.280  1.00  0.00    -0.321 N 
HETATM   25  C   UNL     1      -5.458  -1.520 -33.781  1.00  0.00     0.279 C 
HETATM   26  O   UNL     1      -4.452  -0.822 -33.841  1.00  0.00    -0.265 OA
HETATM   27  H   UNL     1      -7.375  -1.863 -33.257  1.00  0.00     0.169 HD
BRANCH  25  28
HETATM   28  C   UNL     1      -5.457  -2.908 -34.209  1.00  0.00     0.142 A 
HETATM   29  O   UNL     1      -4.407  -3.722 -33.858  1.00  0.00    -0.317 OA
HETATM   30  C   UNL     1      -4.660  -4.948 -34.389  1.00  0.00     0.143 A 
HETATM   31  C   UNL     1      -5.843  -4.938 -35.088  1.00  0.00     0.027 A 
HETATM   32  C   UNL     1      -6.359  -3.625 -34.970  1.00  0.00     0.045 A 
ENDBRANCH  25  28
ENDBRANCH   5  24
TORSDOF 7
ENDMDL
