MODEL 1
REMARK VINA RESULT:      -8.1      0.000      0.000
REMARK  6 active torsions:
REMARK  status: ('A' for Active; 'I' for Inactive)
REMARK    1  A    between atoms: C_2  and  C_3 
REMARK    2  A    between atoms: C_3  and  O_4 
REMARK    3  A    between atoms: O_4  and  C_5 
REMARK    4  A    between atoms: C_8  and  C_9 
REMARK    5  A    between atoms: C_9  and  N_10 
REMARK       I    between atoms: N_10  and  C_11 
REMARK       I    between atoms: C_11  and  N_12 
REMARK    6  A    between atoms: N_12  and  C_13 
ROOT
HETATM    1  N   UNL     1      -6.169   3.616 -34.151  1.00  0.00    -0.339 N 
HETATM    2  C   UNL     1      -6.614   2.697 -33.242  1.00  0.00     0.316 C 
HETATM    3  N   UNL     1      -6.426   1.408 -33.673  1.00  0.00    -0.338 N 
HETATM    4  O   UNL     1      -7.157   2.991 -32.187  1.00  0.00    -0.247 OA
HETATM    5  H   UNL     1      -5.666   3.297 -34.964  1.00  0.00     0.164 HD
HETATM    6  H   UNL     1      -5.619   1.255 -34.260  1.00  0.00     0.164 HD
ENDROOT
BRANCH   1   7
HETATM    7  C   UNL     1      -6.211   5.030 -33.861  1.00  0.00     0.164 C 
BRANCH   7   8
HETATM    8  C   UNL     1      -4.845   5.581 -33.574  1.00  0.00    -0.021 A 
HETATM    9  C   UNL     1      -4.626   6.401 -32.470  1.00  0.00     0.128 A 
HETATM   10  N   UNL     1      -3.419   6.902 -32.119  1.00  0.00    -0.235 NA
HETATM   11  C   UNL     1      -2.364   6.565 -32.901  1.00  0.00     0.186 A 
HETATM   12  C   UNL     1      -2.480   5.763 -34.034  1.00  0.00     0.087 A 
HETATM   13  C   UNL     1      -3.740   5.267 -34.371  1.00  0.00     0.038 A 
HETATM   14 CL   UNL     1      -1.129   5.349 -35.021  1.00  0.00    -0.080 Cl
BRANCH  11  15
HETATM   15  O   UNL     1      -1.106   7.027 -32.563  1.00  0.00    -0.333 OA
BRANCH  15  16
HETATM   16  C   UNL     1      -0.981   7.434 -31.198  1.00  0.00     0.181 C 
BRANCH  16  17
HETATM   17  C   UNL     1       0.381   6.960 -30.664  1.00  0.00     0.002 C 
HETATM   18  C   UNL     1       0.546   5.458 -30.879  1.00  0.00     0.011 C 
HETATM   19  C   UNL     1       0.556   7.308 -29.184  1.00  0.00     0.011 C 
ENDBRANCH  16  17
ENDBRANCH  15  16
ENDBRANCH  11  15
ENDBRANCH   7   8
ENDBRANCH   1   7
BRANCH   3  20
HETATM   20  C   UNL     1      -6.835   0.285 -32.824  1.00  0.00     0.090 C 
HETATM   21  C   UNL     1      -5.617  -0.546 -32.328  1.00  0.00     0.067 C 
HETATM   22  C   UNL     1      -5.221  -1.571 -33.332  1.00  0.00    -0.013 A 
HETATM   23  C   UNL     1      -6.016  -1.943 -34.391  1.00  0.00     0.035 A 
HETATM   24  C   UNL     1      -4.084  -2.389 -33.442  1.00  0.00     0.148 A 
HETATM   25  N   UNL     1      -5.348  -2.927 -35.052  1.00  0.00    -0.282 N 
HETATM   26  C   UNL     1      -7.339  -1.380 -34.746  1.00  0.00     0.061 C 
HETATM   27  H   UNL     1      -5.633  -3.450 -35.875  1.00  0.00     0.189 HD
HETATM   28  N   UNL     1      -4.156  -3.209 -34.497  1.00  0.00    -0.187 NA
HETATM   29  C   UNL     1      -7.895  -0.586 -33.547  1.00  0.00     0.031 C 
ENDBRANCH   3  20
TORSDOF 6
ENDMDL
MODEL 2
REMARK VINA RESULT:      -7.9      2.567      8.789
REMARK  6 active torsions:
REMARK  status: ('A' for Active; 'I' for Inactive)
REMARK    1  A    between atoms: C_2  and  C_3 
REMARK    2  A    between atoms: C_3  and  O_4 
REMARK    3  A    between atoms: O_4  and  C_5 
REMARK    4  A    between atoms: C_8  and  C_9 
REMARK    5  A    between atoms: C_9  and  N_10 
REMARK       I    between atoms: N_10  and  C_11 
REMARK       I    between atoms: C_11  and  N_12 
REMARK    6  A    between atoms: N_12  and  C_13 
ROOT
HETATM    1  N   UNL     1      -5.213   4.881 -33.004  1.00  0.00    -0.339 N 
HETATM    2  C   UNL     1      -4.092   5.503 -33.480  1.00  0.00     0.316 C 
HETATM    3  N   UNL     1      -3.306   5.999 -32.471  1.00  0.00    -0.338 N 
HETATM    4  O   UNL     1      -3.843   5.640 -34.669  1.00  0.00    -0.247 OA
HETATM    5  H   UNL     1      -5.312   4.743 -32.011  1.00  0.00     0.164 HD
HETATM    6  H   UNL     1      -3.320   5.478 -31.607  1.00  0.00     0.164 HD
ENDROOT
BRANCH   1   7
HETATM    7  C   UNL     1      -6.140   4.229 -33.899  1.00  0.00     0.164 C 
BRANCH   7   8
HETATM    8  C   UNL     1      -6.126   2.739 -33.727  1.00  0.00    -0.021 A 
HETATM    9  C   UNL     1      -6.869   1.919 -34.571  1.00  0.00     0.128 A 
HETATM   10  N   UNL     1      -6.878   0.567 -34.508  1.00  0.00    -0.235 NA
HETATM   11  C   UNL     1      -6.098  -0.009 -33.559  1.00  0.00     0.186 A 
HETATM   12  C   UNL     1      -5.329   0.724 -32.658  1.00  0.00     0.087 A 
HETATM   13  C   UNL     1      -5.347   2.116 -32.747  1.00  0.00     0.038 A 
HETATM   14 CL   UNL     1      -4.348  -0.023 -31.454  1.00  0.00    -0.080 Cl
BRANCH  11  15
HETATM   15  O   UNL     1      -6.050  -1.387 -33.479  1.00  0.00    -0.333 OA
BRANCH  15  16
HETATM   16  C   UNL     1      -6.652  -2.058 -34.587  1.00  0.00     0.181 C 
BRANCH  16  17
HETATM   17  C   UNL     1      -5.714  -3.184 -35.053  1.00  0.00     0.002 C 
HETATM   18  C   UNL     1      -6.427  -4.532 -34.998  1.00  0.00     0.011 C 
HETATM   19  C   UNL     1      -4.430  -3.227 -34.219  1.00  0.00     0.011 C 
ENDBRANCH  16  17
ENDBRANCH  15  16
ENDBRANCH  11  15
ENDBRANCH   7   8
ENDBRANCH   1   7
BRANCH   3  20
HETATM   20  C   UNL     1      -2.055   6.693 -32.792  1.00  0.00     0.090 C 
HETATM   21  C   UNL     1      -0.806   5.819 -32.477  1.00  0.00     0.067 C 
HETATM   22  C   UNL     1      -0.403   5.950 -31.051  1.00  0.00    -0.013 A 
HETATM   23  C   UNL     1      -0.867   6.944 -30.220  1.00  0.00     0.035 A 
HETATM   24  C   UNL     1       0.493   5.217 -30.256  1.00  0.00     0.148 A 
HETATM   25  N   UNL     1      -0.246   6.768 -29.021  1.00  0.00    -0.282 N 
HETATM   26  C   UNL     1      -1.851   7.996 -30.560  1.00  0.00     0.061 C 
HETATM   27  H   UNL     1      -0.331   7.320 -28.172  1.00  0.00     0.189 HD
HETATM   28  N   UNL     1       0.583   5.709 -29.015  1.00  0.00    -0.187 NA
HETATM   29  C   UNL     1      -2.004   8.076 -32.092  1.00  0.00     0.031 C 
ENDBRANCH   3  20
TORSDOF 6
ENDMDL
MODEL 3
REMARK VINA RESULT:      -7.9      2.739      8.679
REMARK  6 active torsions:
REMARK  status: ('A' for Active; 'I' for Inactive)
REMARK    1  A    between atoms: C_2  and  C_3 
REMARK    2  A    between atoms: C_3  and  O_4 
REMARK    3  A    between atoms: O_4  and  C_5 
REMARK    4  A    between atoms: C_8  and  C_9 
REMARK    5  A    between atoms: C_9  and  N_10 
REMARK       I    between atoms: N_10  and  C_11 
REMARK       I    between atoms: C_11  and  N_12 
REMARK    6  A    between atoms: N_12  and  C_13 
ROOT
HETATM    1  N   UNL     1      -5.198   5.057 -32.804  1.00  0.00    -0.339 N 
HETATM    2  C   UNL     1      -4.070   5.661 -33.286  1.00  0.00     0.316 C 
HETATM    3  N   UNL     1      -3.253   6.113 -32.280  1.00  0.00    -0.338 N 
HETATM    4  O   UNL     1      -3.839   5.819 -34.476  1.00  0.00    -0.247 OA
HETATM    5  H   UNL     1      -5.283   4.899 -31.812  1.00  0.00     0.164 HD
HETATM    6  H   UNL     1      -3.266   5.572 -31.429  1.00  0.00     0.164 HD
ENDROOT
BRANCH   1   7
HETATM    7  C   UNL     1      -6.156   4.449 -33.697  1.00  0.00     0.164 C 
BRANCH   7   8
HETATM    8  C   UNL     1      -6.064   2.952 -33.678  1.00  0.00    -0.021 A 
HETATM    9  C   UNL     1      -5.187   2.305 -32.813  1.00  0.00     0.128 A 
HETATM   10  N   UNL     1      -5.075   0.960 -32.705  1.00  0.00    -0.235 NA
HETATM   11  C   UNL     1      -5.884   0.211 -33.494  1.00  0.00     0.186 A 
HETATM   12  C   UNL     1      -6.785   0.763 -34.402  1.00  0.00     0.087 A 
HETATM   13  C   UNL     1      -6.872   2.152 -34.492  1.00  0.00     0.038 A 
HETATM   14 CL   UNL     1      -7.802  -0.203 -35.403  1.00  0.00    -0.080 Cl
BRANCH  11  15
HETATM   15  O   UNL     1      -5.827  -1.165 -33.395  1.00  0.00    -0.333 OA
BRANCH  15  16
HETATM   16  C   UNL     1      -4.515  -1.709 -33.553  1.00  0.00     0.181 C 
BRANCH  16  17
HETATM   17  C   UNL     1      -4.592  -2.921 -34.496  1.00  0.00     0.002 C 
HETATM   18  C   UNL     1      -6.045  -3.252 -34.825  1.00  0.00     0.011 C 
HETATM   19  C   UNL     1      -3.891  -4.144 -33.897  1.00  0.00     0.011 C 
ENDBRANCH  16  17
ENDBRANCH  15  16
ENDBRANCH  11  15
ENDBRANCH   7   8
ENDBRANCH   1   7
BRANCH   3  20
HETATM   20  C   UNL     1      -1.990   6.782 -32.609  1.00  0.00     0.090 C 
HETATM   21  C   UNL     1      -0.757   5.886 -32.296  1.00  0.00     0.067 C 
HETATM   22  C   UNL     1      -0.347   6.015 -30.871  1.00  0.00    -0.013 A 
HETATM   23  C   UNL     1      -0.788   7.020 -30.042  1.00  0.00     0.035 A 
HETATM   24  C   UNL     1       0.539   5.268 -30.077  1.00  0.00     0.148 A 
HETATM   25  N   UNL     1      -0.166   6.837 -28.845  1.00  0.00    -0.282 N 
HETATM   26  C   UNL     1      -1.754   8.089 -30.383  1.00  0.00     0.061 C 
HETATM   27  H   UNL     1      -0.238   7.393 -27.998  1.00  0.00     0.189 HD
HETATM   28  N   UNL     1       0.642   5.762 -28.838  1.00  0.00    -0.187 NA
HETATM   29  C   UNL     1      -1.912   8.166 -31.914  1.00  0.00     0.031 C 
ENDBRANCH   3  20
TORSDOF 6
ENDMDL
MODEL 4
REMARK VINA RESULT:      -7.4      1.389      1.541
REMARK  6 active torsions:
REMARK  status: ('A' for Active; 'I' for Inactive)
REMARK    1  A    between atoms: C_2  and  C_3 
REMARK    2  A    between atoms: C_3  and  O_4 
REMARK    3  A    between atoms: O_4  and  C_5 
REMARK    4  A    between atoms: C_8  and  C_9 
REMARK    5  A    between atoms: C_9  and  N_10 
REMARK       I    between atoms: N_10  and  C_11 
REMARK       I    between atoms: C_11  and  N_12 
REMARK    6  A    between atoms: N_12  and  C_13 
ROOT
HETATM    1  N   UNL     1      -5.416   4.043 -33.987  1.00  0.00    -0.339 N 
HETATM    2  C   UNL     1      -6.159   3.183 -33.227  1.00  0.00     0.316 C 
HETATM    3  N   UNL     1      -6.027   1.880 -33.639  1.00  0.00    -0.338 N 
HETATM    4  O   UNL     1      -6.890   3.539 -32.315  1.00  0.00    -0.247 OA
HETATM    5  H   UNL     1      -4.782   3.667 -34.674  1.00  0.00     0.164 HD
HETATM    6  H   UNL     1      -5.131   1.634 -34.032  1.00  0.00     0.164 HD
ENDROOT
BRANCH   1   7
HETATM    7  C   UNL     1      -5.360   5.452 -33.676  1.00  0.00     0.164 C 
BRANCH   7   8
HETATM    8  C   UNL     1      -4.339   5.749 -32.617  1.00  0.00    -0.021 A 
HETATM    9  C   UNL     1      -4.702   6.404 -31.444  1.00  0.00     0.128 A 
HETATM   10  N   UNL     1      -3.852   6.670 -30.425  1.00  0.00    -0.235 NA
HETATM   11  C   UNL     1      -2.569   6.257 -30.571  1.00  0.00     0.186 A 
HETATM   12  C   UNL     1      -2.104   5.606 -31.712  1.00  0.00     0.087 A 
HETATM   13  C   UNL     1      -3.005   5.352 -32.746  1.00  0.00     0.038 A 
HETATM   14 CL   UNL     1      -0.468   5.092 -31.884  1.00  0.00    -0.080 Cl
BRANCH  11  15
HETATM   15  O   UNL     1      -1.674   6.478 -29.543  1.00  0.00    -0.333 OA
BRANCH  15  16
HETATM   16  C   UNL     1      -0.862   7.642 -29.716  1.00  0.00     0.181 C 
BRANCH  16  17
HETATM   17  C   UNL     1       0.550   7.344 -29.184  1.00  0.00     0.002 C 
HETATM   18  C   UNL     1       0.610   5.941 -28.584  1.00  0.00     0.011 C 
HETATM   19  C   UNL     1       0.992   8.383 -28.151  1.00  0.00     0.011 C 
ENDBRANCH  16  17
ENDBRANCH  15  16
ENDBRANCH  11  15
ENDBRANCH   7   8
ENDBRANCH   1   7
BRANCH   3  20
HETATM   20  C   UNL     1      -6.746   0.814 -32.935  1.00  0.00     0.090 C 
HETATM   21  C   UNL     1      -5.802  -0.019 -32.019  1.00  0.00     0.067 C 
HETATM   22  C   UNL     1      -5.131  -1.104 -32.785  1.00  0.00    -0.013 A 
HETATM   23  C   UNL     1      -5.534  -1.512 -34.035  1.00  0.00     0.035 A 
HETATM   24  C   UNL     1      -4.058  -1.954 -32.467  1.00  0.00     0.148 A 
HETATM   25  N   UNL     1      -4.721  -2.546 -34.388  1.00  0.00    -0.282 N 
HETATM   26  C   UNL     1      -6.634  -0.937 -34.843  1.00  0.00     0.061 C 
HETATM   27  H   UNL     1      -4.731  -3.103 -35.236  1.00  0.00     0.189 HD
HETATM   28  N   UNL     1      -3.800  -2.826 -33.448  1.00  0.00    -0.187 NA
HETATM   29  C   UNL     1      -7.531  -0.068 -33.939  1.00  0.00     0.031 C 
ENDBRANCH   3  20
TORSDOF 6
ENDMDL
MODEL 5
REMARK VINA RESULT:      -7.3      3.298      8.681
REMARK  6 active torsions:
REMARK  status: ('A' for Active; 'I' for Inactive)
REMARK    1  A    between atoms: C_2  and  C_3 
REMARK    2  A    between atoms: C_3  and  O_4 
REMARK    3  A    between atoms: O_4  and  C_5 
REMARK    4  A    between atoms: C_8  and  C_9 
REMARK    5  A    between atoms: C_9  and  N_10 
REMARK       I    between atoms: N_10  and  C_11 
REMARK       I    between atoms: C_11  and  N_12 
REMARK    6  A    between atoms: N_12  and  C_13 
ROOT
HETATM    1  N   UNL     1      -4.875   5.831 -29.026  1.00  0.00    -0.339 N 
HETATM    2  C   UNL     1      -3.871   6.648 -29.467  1.00  0.00     0.316 C 
HETATM    3  N   UNL     1      -2.834   6.725 -28.572  1.00  0.00    -0.338 N 
HETATM    4  O   UNL     1      -3.915   7.273 -30.517  1.00  0.00    -0.247 OA
HETATM    5  H   UNL     1      -4.735   5.293 -28.185  1.00  0.00     0.164 HD
HETATM    6  H   UNL     1      -2.666   5.896 -28.023  1.00  0.00     0.164 HD
ENDROOT
BRANCH   1   7
HETATM    7  C   UNL     1      -6.029   5.558 -29.850  1.00  0.00     0.164 C 
BRANCH   7   8
HETATM    8  C   UNL     1      -5.865   4.291 -30.636  1.00  0.00    -0.021 A 
HETATM    9  C   UNL     1      -5.430   4.326 -31.958  1.00  0.00     0.128 A 
HETATM   10  N   UNL     1      -5.216   3.228 -32.721  1.00  0.00    -0.235 NA
HETATM   11  C   UNL     1      -5.438   2.024 -32.139  1.00  0.00     0.186 A 
HETATM   12  C   UNL     1      -5.888   1.883 -30.828  1.00  0.00     0.087 A 
HETATM   13  C   UNL     1      -6.103   3.035 -30.071  1.00  0.00     0.038 A 
HETATM   14 CL   UNL     1      -6.171   0.344 -30.105  1.00  0.00    -0.080 Cl
BRANCH  11  15
HETATM   15  O   UNL     1      -5.203   0.875 -32.869  1.00  0.00    -0.333 OA
BRANCH  15  16
HETATM   16  C   UNL     1      -6.163   0.630 -33.899  1.00  0.00     0.181 C 
BRANCH  16  17
HETATM   17  C   UNL     1      -7.016  -0.586 -33.502  1.00  0.00     0.002 C 
HETATM   18  C   UNL     1      -6.883  -1.695 -34.542  1.00  0.00     0.011 C 
HETATM   19  C   UNL     1      -8.487  -0.204 -33.316  1.00  0.00     0.011 C 
ENDBRANCH  16  17
ENDBRANCH  15  16
ENDBRANCH  11  15
ENDBRANCH   7   8
ENDBRANCH   1   7
BRANCH   3  20
HETATM   20  C   UNL     1      -1.662   7.551 -28.881  1.00  0.00     0.090 C 
HETATM   21  C   UNL     1      -1.040   7.189 -30.260  1.00  0.00     0.067 C 
HETATM   22  C   UNL     1      -0.090   6.050 -30.139  1.00  0.00    -0.013 A 
HETATM   23  C   UNL     1       0.408   5.602 -28.938  1.00  0.00     0.035 A 
HETATM   24  C   UNL     1       0.534   5.239 -31.103  1.00  0.00     0.148 A 
HETATM   25  N   UNL     1       1.274   4.592 -29.229  1.00  0.00    -0.282 N 
HETATM   26  C   UNL     1       0.068   6.114 -27.591  1.00  0.00     0.061 C 
HETATM   27  H   UNL     1       1.837   4.033 -28.595  1.00  0.00     0.189 HD
HETATM   28  N   UNL     1       1.358   4.343 -30.548  1.00  0.00    -0.187 NA
HETATM   29  C   UNL     1      -0.629   7.482 -27.726  1.00  0.00     0.031 C 
ENDBRANCH   3  20
TORSDOF 6
ENDMDL
MODEL 6
REMARK VINA RESULT:      -7.1      3.215      9.397
REMARK  6 active torsions:
REMARK  status: ('A' for Active; 'I' for Inactive)
REMARK    1  A    between atoms: C_2  and  C_3 
REMARK    2  A    between atoms: C_3  and  O_4 
REMARK    3  A    between atoms: O_4  and  C_5 
REMARK    4  A    between atoms: C_8  and  C_9 
REMARK    5  A    between atoms: C_9  and  N_10 
REMARK       I    between atoms: N_10  and  C_11 
REMARK       I    between atoms: C_11  and  N_12 
REMARK    6  A    between atoms: N_12  and  C_13 
ROOT
HETATM    1  N   UNL     1      -3.252   3.400 -30.970  1.00  0.00    -0.339 N 
HETATM    2  C   UNL     1      -2.445   4.283 -31.631  1.00  0.00     0.316 C 
HETATM    3  N   UNL     1      -2.376   5.498 -30.997  1.00  0.00    -0.338 N 
HETATM    4  O   UNL     1      -1.885   4.033 -32.689  1.00  0.00    -0.247 OA
HETATM    5  H   UNL     1      -3.620   3.654 -30.067  1.00  0.00     0.164 HD
HETATM    6  H   UNL     1      -2.456   5.473 -29.991  1.00  0.00     0.164 HD
ENDROOT
BRANCH   1   7
HETATM    7  C   UNL     1      -3.406   2.041 -31.434  1.00  0.00     0.164 C 
BRANCH   7   8
HETATM    8  C   UNL     1      -4.696   1.847 -32.175  1.00  0.00    -0.021 A 
HETATM    9  C   UNL     1      -5.663   2.849 -32.193  1.00  0.00     0.128 A 
HETATM   10  N   UNL     1      -6.831   2.769 -32.870  1.00  0.00    -0.235 NA
HETATM   11  C   UNL     1      -7.055   1.635 -33.578  1.00  0.00     0.186 A 
HETATM   12  C   UNL     1      -6.157   0.570 -33.613  1.00  0.00     0.087 A 
HETATM   13  C   UNL     1      -4.964   0.682 -32.899  1.00  0.00     0.038 A 
HETATM   14 CL   UNL     1      -6.459  -0.869 -34.513  1.00  0.00    -0.080 Cl
BRANCH  11  15
HETATM   15  O   UNL     1      -8.220   1.522 -34.312  1.00  0.00    -0.333 OA
BRANCH  15  16
HETATM   16  C   UNL     1      -9.258   2.414 -33.900  1.00  0.00     0.181 C 
BRANCH  16  17
HETATM   17  C   UNL     1     -10.448   1.586 -33.387  1.00  0.00     0.002 C 
HETATM   18  C   UNL     1     -10.001   0.169 -33.036  1.00  0.00     0.011 C 
HETATM   19  C   UNL     1     -11.587   1.546 -34.410  1.00  0.00     0.011 C 
ENDBRANCH  16  17
ENDBRANCH  15  16
ENDBRANCH  11  15
ENDBRANCH   7   8
ENDBRANCH   1   7
BRANCH   3  20
HETATM   20  C   UNL     1      -1.547   6.570 -31.558  1.00  0.00     0.090 C 
HETATM   21  C   UNL     1      -0.145   6.635 -30.887  1.00  0.00     0.067 C 
HETATM   22  C   UNL     1      -0.183   7.444 -29.638  1.00  0.00    -0.013 A 
HETATM   23  C   UNL     1      -1.226   8.278 -29.306  1.00  0.00     0.035 A 
HETATM   24  C   UNL     1       0.744   7.608 -28.595  1.00  0.00     0.148 A 
HETATM   25  N   UNL     1      -0.884   8.879 -28.133  1.00  0.00    -0.282 N 
HETATM   26  C   UNL     1      -2.477   8.479 -30.070  1.00  0.00     0.061 C 
HETATM   27  H   UNL     1      -1.402   9.565 -27.593  1.00  0.00     0.189 HD
HETATM   28  N   UNL     1       0.314   8.475 -27.671  1.00  0.00    -0.187 NA
HETATM   29  C   UNL     1      -2.299   7.925 -31.498  1.00  0.00     0.031 C 
ENDBRANCH   3  20
TORSDOF 6
ENDMDL
MODEL 7
REMARK VINA RESULT:      -7.0      4.899      6.715
REMARK  6 active torsions:
REMARK  status: ('A' for Active; 'I' for Inactive)
REMARK    1  A    between atoms: C_2  and  C_3 
REMARK    2  A    between atoms: C_3  and  O_4 
REMARK    3  A    between atoms: O_4  and  C_5 
REMARK    4  A    between atoms: C_8  and  C_9 
REMARK    5  A    between atoms: C_9  and  N_10 
REMARK       I    between atoms: N_10  and  C_11 
REMARK       I    between atoms: C_11  and  N_12 
REMARK    6  A    between atoms: N_12  and  C_13 
ROOT
HETATM    1  N   UNL     1      -8.974   0.729 -31.988  1.00  0.00    -0.339 N 
HETATM    2  C   UNL     1      -9.589   1.220 -33.106  1.00  0.00     0.316 C 
HETATM    3  N   UNL     1     -10.841   1.713 -32.836  1.00  0.00    -0.338 N 
HETATM    4  O   UNL     1      -9.097   1.183 -34.225  1.00  0.00    -0.247 OA
HETATM    5  H   UNL     1      -9.412   0.862 -31.090  1.00  0.00     0.164 HD
HETATM    6  H   UNL     1     -10.965   2.115 -31.919  1.00  0.00     0.164 HD
ENDROOT
BRANCH   1   7
HETATM    7  C   UNL     1      -7.621   0.227 -32.042  1.00  0.00     0.164 C 
BRANCH   7   8
HETATM    8  C   UNL     1      -6.615   1.307 -31.773  1.00  0.00    -0.021 A 
HETATM    9  C   UNL     1      -5.481   1.436 -32.570  1.00  0.00     0.128 A 
HETATM   10  N   UNL     1      -4.550   2.407 -32.421  1.00  0.00    -0.235 NA
HETATM   11  C   UNL     1      -4.756   3.308 -31.429  1.00  0.00     0.186 A 
HETATM   12  C   UNL     1      -5.851   3.257 -30.569  1.00  0.00     0.087 A 
HETATM   13  C   UNL     1      -6.789   2.240 -30.747  1.00  0.00     0.038 A 
HETATM   14 CL   UNL     1      -6.095   4.407 -29.309  1.00  0.00    -0.080 Cl
BRANCH  11  15
HETATM   15  O   UNL     1      -3.848   4.335 -31.259  1.00  0.00    -0.333 OA
BRANCH  15  16
HETATM   16  C   UNL     1      -2.516   4.010 -31.660  1.00  0.00     0.181 C 
BRANCH  16  17
HETATM   17  C   UNL     1      -1.949   5.178 -32.485  1.00  0.00     0.002 C 
HETATM   18  C   UNL     1      -1.915   4.818 -33.968  1.00  0.00     0.011 C 
HETATM   19  C   UNL     1      -0.552   5.580 -32.003  1.00  0.00     0.011 C 
ENDBRANCH  16  17
ENDBRANCH  15  16
ENDBRANCH  11  15
ENDBRANCH   7   8
ENDBRANCH   1   7
BRANCH   3  20
HETATM   20  C   UNL     1     -11.648   2.290 -33.916  1.00  0.00     0.090 C 
HETATM   21  C   UNL     1     -12.565   3.440 -33.408  1.00  0.00     0.067 C 
HETATM   22  C   UNL     1     -13.843   2.907 -32.862  1.00  0.00    -0.013 A 
HETATM   23  C   UNL     1     -14.282   1.621 -33.076  1.00  0.00     0.035 A 
HETATM   24  C   UNL     1     -14.866   3.507 -32.109  1.00  0.00     0.148 A 
HETATM   25  N   UNL     1     -15.497   1.520 -32.471  1.00  0.00    -0.282 N 
HETATM   26  C   UNL     1     -13.571   0.554 -33.815  1.00  0.00     0.061 C 
HETATM   27  H   UNL     1     -16.125   0.723 -32.431  1.00  0.00     0.189 HD
HETATM   28  N   UNL     1     -15.871   2.659 -31.861  1.00  0.00    -0.187 NA
HETATM   29  C   UNL     1     -12.440   1.180 -34.655  1.00  0.00     0.031 C 
ENDBRANCH   3  20
TORSDOF 6
ENDMDL
MODEL 8
REMARK VINA RESULT:      -7.0      4.367      7.992
REMARK  6 active torsions:
REMARK  status: ('A' for Active; 'I' for Inactive)
REMARK    1  A    between atoms: C_2  and  C_3 
REMARK    2  A    between atoms: C_3  and  O_4 
REMARK    3  A    between atoms: O_4  and  C_5 
REMARK    4  A    between atoms: C_8  and  C_9 
REMARK    5  A    between atoms: C_9  and  N_10 
REMARK       I    between atoms: N_10  and  C_11 
REMARK       I    between atoms: C_11  and  N_12 
REMARK    6  A    between atoms: N_12  and  C_13 
ROOT
HETATM    1  N   UNL     1      -6.656   3.429 -32.668  1.00  0.00    -0.339 N 
HETATM    2  C   UNL     1      -7.910   3.619 -32.158  1.00  0.00     0.316 C 
HETATM    3  N   UNL     1      -8.795   4.065 -33.107  1.00  0.00    -0.338 N 
HETATM    4  O   UNL     1      -8.197   3.455 -30.981  1.00  0.00    -0.247 OA
HETATM    5  H   UNL     1      -6.514   3.514 -33.662  1.00  0.00     0.164 HD
HETATM    6  H   UNL     1      -8.628   3.741 -34.048  1.00  0.00     0.164 HD
ENDROOT
BRANCH   1   7
HETATM    7  C   UNL     1      -5.592   2.896 -31.850  1.00  0.00     0.164 C 
BRANCH   7   8
HETATM    8  C   UNL     1      -5.308   1.458 -32.172  1.00  0.00    -0.021 A 
HETATM    9  C   UNL     1      -6.240   0.687 -32.861  1.00  0.00     0.128 A 
HETATM   10  N   UNL     1      -6.043  -0.602 -33.226  1.00  0.00    -0.235 NA
HETATM   11  C   UNL     1      -4.852  -1.158 -32.897  1.00  0.00     0.186 A 
HETATM   12  C   UNL     1      -3.860  -0.475 -32.196  1.00  0.00     0.087 A 
HETATM   13  C   UNL     1      -4.097   0.850 -31.830  1.00  0.00     0.038 A 
HETATM   14 CL   UNL     1      -2.352  -1.199 -31.779  1.00  0.00    -0.080 Cl
BRANCH  11  15
HETATM   15  O   UNL     1      -4.594  -2.461 -33.277  1.00  0.00    -0.333 OA
BRANCH  15  16
HETATM   16  C   UNL     1      -4.674  -2.685 -34.686  1.00  0.00     0.181 C 
BRANCH  16  17
HETATM   17  C   UNL     1      -5.193  -4.111 -34.932  1.00  0.00     0.002 C 
HETATM   18  C   UNL     1      -6.711  -4.161 -34.776  1.00  0.00     0.011 C 
HETATM   19  C   UNL     1      -4.528  -5.121 -33.992  1.00  0.00     0.011 C 
ENDBRANCH  16  17
ENDBRANCH  15  16
ENDBRANCH  11  15
ENDBRANCH   7   8
ENDBRANCH   1   7
BRANCH   3  20
HETATM   20  C   UNL     1     -10.192   4.317 -32.744  1.00  0.00     0.090 C 
HETATM   21  C   UNL     1     -11.046   3.016 -32.770  1.00  0.00     0.067 C 
HETATM   22  C   UNL     1     -11.551   2.733 -34.141  1.00  0.00    -0.013 A 
HETATM   23  C   UNL     1     -11.538   3.655 -35.161  1.00  0.00     0.035 A 
HETATM   24  C   UNL     1     -12.159   1.597 -34.703  1.00  0.00     0.148 A 
HETATM   25  N   UNL     1     -12.119   3.055 -36.236  1.00  0.00    -0.282 N 
HETATM   26  C   UNL     1     -10.994   5.031 -35.103  1.00  0.00     0.061 C 
HETATM   27  H   UNL     1     -12.294   3.436 -37.161  1.00  0.00     0.189 HD
HETATM   28  N   UNL     1     -12.496   1.789 -35.983  1.00  0.00    -0.187 NA
HETATM   29  C   UNL     1     -10.791   5.439 -33.631  1.00  0.00     0.031 C 
ENDBRANCH   3  20
TORSDOF 6
ENDMDL
MODEL 9
REMARK VINA RESULT:      -7.0      3.109      4.278
REMARK  6 active torsions:
REMARK  status: ('A' for Active; 'I' for Inactive)
REMARK    1  A    between atoms: C_2  and  C_3 
REMARK    2  A    between atoms: C_3  and  O_4 
REMARK    3  A    between atoms: O_4  and  C_5 
REMARK    4  A    between atoms: C_8  and  C_9 
REMARK    5  A    between atoms: C_9  and  N_10 
REMARK       I    between atoms: N_10  and  C_11 
REMARK       I    between atoms: C_11  and  N_12 
REMARK    6  A    between atoms: N_12  and  C_13 
ROOT
HETATM    1  N   UNL     1      -4.323   4.781 -31.555  1.00  0.00    -0.339 N 
HETATM    2  C   UNL     1      -4.220   3.571 -32.182  1.00  0.00     0.316 C 
HETATM    3  N   UNL     1      -5.147   2.668 -31.725  1.00  0.00    -0.338 N 
HETATM    4  O   UNL     1      -3.371   3.310 -33.022  1.00  0.00    -0.247 OA
HETATM    5  H   UNL     1      -5.095   4.943 -30.927  1.00  0.00     0.164 HD
HETATM    6  H   UNL     1      -6.028   3.058 -31.425  1.00  0.00     0.164 HD
ENDROOT
BRANCH   1   7
HETATM    7  C   UNL     1      -3.485   5.892 -31.938  1.00  0.00     0.164 C 
BRANCH   7   8
HETATM    8  C   UNL     1      -2.322   6.062 -31.006  1.00  0.00    -0.021 A 
HETATM    9  C   UNL     1      -2.415   6.900 -29.899  1.00  0.00     0.128 A 
HETATM   10  N   UNL     1      -1.429   7.074 -28.988  1.00  0.00    -0.235 NA
HETATM   11  C   UNL     1      -0.286   6.371 -29.179  1.00  0.00     0.186 A 
HETATM   12  C   UNL     1      -0.089   5.517 -30.263  1.00  0.00     0.087 A 
HETATM   13  C   UNL     1      -1.124   5.365 -31.186  1.00  0.00     0.038 A 
HETATM   14 CL   UNL     1       1.373   4.635 -30.495  1.00  0.00    -0.080 Cl
BRANCH  11  15
HETATM   15  O   UNL     1       0.736   6.492 -28.258  1.00  0.00    -0.333 OA
BRANCH  15  16
HETATM   16  C   UNL     1       0.292   6.616 -26.906  1.00  0.00     0.181 C 
BRANCH  16  17
HETATM   17  C   UNL     1       0.896   7.894 -26.301  1.00  0.00     0.002 C 
HETATM   18  C   UNL     1      -0.204   8.796 -25.748  1.00  0.00     0.011 C 
HETATM   19  C   UNL     1       1.743   8.654 -27.325  1.00  0.00     0.011 C 
ENDBRANCH  16  17
ENDBRANCH  15  16
ENDBRANCH  11  15
ENDBRANCH   7   8
ENDBRANCH   1   7
BRANCH   3  20
HETATM   20  C   UNL     1      -5.192   1.316 -32.291  1.00  0.00     0.090 C 
HETATM   21  C   UNL     1      -6.269   1.187 -33.407  1.00  0.00     0.067 C 
HETATM   22  C   UNL     1      -7.608   0.890 -32.831  1.00  0.00    -0.013 A 
HETATM   23  C   UNL     1      -7.801   0.470 -31.535  1.00  0.00     0.035 A 
HETATM   24  C   UNL     1      -8.896   0.902 -33.391  1.00  0.00     0.148 A 
HETATM   25  N   UNL     1      -9.137   0.255 -31.391  1.00  0.00    -0.282 N 
HETATM   26  C   UNL     1      -6.759   0.291 -30.498  1.00  0.00     0.061 C 
HETATM   27  H   UNL     1      -9.646  -0.072 -30.575  1.00  0.00     0.189 HD
HETATM   28  N   UNL     1      -9.831   0.525 -32.511  1.00  0.00    -0.187 NA
HETATM   29  C   UNL     1      -5.371   0.262 -31.168  1.00  0.00     0.031 C 
ENDBRANCH   3  20
TORSDOF 6
ENDMDL
MODEL 10
REMARK VINA RESULT:      -6.9      3.952      8.760
REMARK  6 active torsions:
REMARK  status: ('A' for Active; 'I' for Inactive)
REMARK    1  A    between atoms: C_2  and  C_3 
REMARK    2  A    between atoms: C_3  and  O_4 
REMARK    3  A    between atoms: O_4  and  C_5 
REMARK    4  A    between atoms: C_8  and  C_9 
REMARK    5  A    between atoms: C_9  and  N_10 
REMARK       I    between atoms: N_10  and  C_11 
REMARK       I    between atoms: C_11  and  N_12 
REMARK    6  A    between atoms: N_12  and  C_13 
ROOT
HETATM    1  N   UNL     1      -4.955   5.928 -27.945  1.00  0.00    -0.339 N 
HETATM    2  C   UNL     1      -4.066   6.817 -28.482  1.00  0.00     0.316 C 
HETATM    3  N   UNL     1      -2.795   6.637 -27.999  1.00  0.00    -0.338 N 
HETATM    4  O   UNL     1      -4.379   7.699 -29.269  1.00  0.00    -0.247 OA
HETATM    5  H   UNL     1      -4.609   5.183 -27.360  1.00  0.00     0.164 HD
HETATM    6  H   UNL     1      -2.547   5.688 -27.760  1.00  0.00     0.164 HD
ENDROOT
BRANCH   1   7
HETATM    7  C   UNL     1      -6.334   5.902 -28.373  1.00  0.00     0.164 C 
BRANCH   7   8
HETATM    8  C   UNL     1      -6.604   4.767 -29.316  1.00  0.00    -0.021 A 
HETATM    9  C   UNL     1      -5.557   4.012 -29.837  1.00  0.00     0.128 A 
HETATM   10  N   UNL     1      -5.718   2.948 -30.659  1.00  0.00    -0.235 NA
HETATM   11  C   UNL     1      -6.991   2.606 -30.977  1.00  0.00     0.186 A 
HETATM   12  C   UNL     1      -8.105   3.305 -30.518  1.00  0.00     0.087 A 
HETATM   13  C   UNL     1      -7.903   4.400 -29.678  1.00  0.00     0.038 A 
HETATM   14 CL   UNL     1      -9.717   2.860 -30.937  1.00  0.00    -0.080 Cl
BRANCH  11  15
HETATM   15  O   UNL     1      -7.206   1.507 -31.786  1.00  0.00    -0.333 OA
BRANCH  15  16
HETATM   16  C   UNL     1      -6.921   0.255 -31.159  1.00  0.00     0.181 C 
BRANCH  16  17
HETATM   17  C   UNL     1      -5.965  -0.545 -32.061  1.00  0.00     0.002 C 
HETATM   18  C   UNL     1      -4.523  -0.383 -31.588  1.00  0.00     0.011 C 
HETATM   19  C   UNL     1      -6.095  -0.125 -33.527  1.00  0.00     0.011 C 
ENDBRANCH  16  17
ENDBRANCH  15  16
ENDBRANCH  11  15
ENDBRANCH   7   8
ENDBRANCH   1   7
BRANCH   3  20
HETATM   20  C   UNL     1      -1.705   7.496 -28.471  1.00  0.00     0.090 C 
HETATM   21  C   UNL     1      -1.281   7.154 -29.928  1.00  0.00     0.067 C 
HETATM   22  C   UNL     1      -0.291   6.043 -29.954  1.00  0.00    -0.013 A 
HETATM   23  C   UNL     1       0.389   5.607 -28.841  1.00  0.00     0.035 A 
HETATM   24  C   UNL     1       0.207   5.252 -31.003  1.00  0.00     0.148 A 
HETATM   25  N   UNL     1       1.231   4.623 -29.261  1.00  0.00    -0.282 N 
HETATM   26  C   UNL     1       0.235   6.107 -27.456  1.00  0.00     0.061 C 
HETATM   27  H   UNL     1       1.897   4.079 -28.720  1.00  0.00     0.189 HD
HETATM   28  N   UNL     1       1.128   4.379 -30.580  1.00  0.00    -0.187 NA
HETATM   29  C   UNL     1      -0.512   7.455 -27.480  1.00  0.00     0.031 C 
ENDBRANCH   3  20
TORSDOF 6
ENDMDL
