MODEL 1
REMARK VINA RESULT:      -8.7      0.000      0.000
REMARK  5 active torsions:
REMARK  status: ('A' for Active; 'I' for Inactive)
REMARK    1  A    between atoms: C_9  and  N_10 
REMARK       I    between atoms: N_10  and  C_11 
REMARK    2  A    between atoms: C_11  and  C_12 
REMARK    3  A    between atoms: C_14  and  C_15 
REMARK    4  A    between atoms: C_15  and  O_16 
REMARK    5  A    between atoms: O_16  and  C_17 
ROOT
HETATM    1  N   UNL     1      -4.710   3.653 -32.911  1.00  0.00    -0.321 N 
HETATM    2  C   UNL     1      -5.786   4.081 -33.681  1.00  0.00     0.279 C 
HETATM    3  O   UNL     1      -5.850   5.189 -34.209  1.00  0.00    -0.265 OA
HETATM    4  H   UNL     1      -4.697   2.668 -32.681  1.00  0.00     0.169 HD
ENDROOT
BRANCH   2   5
HETATM    5  C   UNL     1      -6.811   3.067 -33.859  1.00  0.00     0.143 A 
HETATM    6  O   UNL     1      -6.483   1.952 -34.580  1.00  0.00    -0.307 OA
HETATM    7  C   UNL     1      -7.569   1.128 -34.592  1.00  0.00     0.078 A 
HETATM    8  C   UNL     1      -8.609   1.715 -33.903  1.00  0.00     0.038 A 
HETATM    9  C   UNL     1      -8.122   2.957 -33.425  1.00  0.00     0.045 A 
BRANCH   7  10
HETATM   10  C   UNL     1      -7.404  -0.175 -35.286  1.00  0.00     0.240 C 
BRANCH  10  11
HETATM   11  O   UNL     1      -7.504  -1.192 -34.292  1.00  0.00    -0.345 OA
BRANCH  11  12
HETATM   12  C   UNL     1      -6.547  -2.170 -34.322  1.00  0.00     0.069 A 
HETATM   13  C   UNL     1      -6.721  -3.474 -34.798  1.00  0.00     0.040 A 
HETATM   14  C   UNL     1      -5.656  -4.379 -34.766  1.00  0.00     0.045 A 
HETATM   15  C   UNL     1      -4.425  -3.977 -34.263  1.00  0.00     0.116 A 
HETATM   16  F   UNL     1      -3.409  -4.850 -34.231  1.00  0.00    -0.206 F 
HETATM   17  C   UNL     1      -4.234  -2.684 -33.793  1.00  0.00     0.045 A 
HETATM   18  C   UNL     1      -5.298  -1.781 -33.826  1.00  0.00     0.040 A 
ENDBRANCH  11  12
ENDBRANCH  10  11
ENDBRANCH   7  10
ENDBRANCH   2   5
BRANCH   1  19
HETATM   19  C   UNL     1      -3.556   4.394 -32.584  1.00  0.00     0.035 A 
HETATM   20  C   UNL     1      -3.403   5.091 -31.382  1.00  0.00     0.039 A 
HETATM   21  C   UNL     1      -2.237   5.810 -31.166  1.00  0.00    -0.022 A 
HETATM   22  C   UNL     1      -1.857   6.591 -29.955  1.00  0.00     0.274 C 
HETATM   23  C   UNL     1      -1.218   5.844 -32.119  1.00  0.00    -0.025 A 
HETATM   24  N   UNL     1      -0.591   7.338 -30.361  1.00  0.00    -0.067 N 
HETATM   25  C   UNL     1       0.419   7.464 -29.278  1.00  0.00     0.270 C 
HETATM   26  H   UNL     1      -0.899   8.277 -30.635  1.00  0.00     0.280 HD
HETATM   27  C   UNL     1      -0.078   6.670 -31.632  1.00  0.00     0.273 C 
HETATM   28  C   UNL     1      -1.339   5.145 -33.306  1.00  0.00     0.012 A 
HETATM   29  C   UNL     1      -2.512   4.414 -33.531  1.00  0.00     0.030 A 
ENDBRANCH   1  19
TORSDOF 5
ENDMDL
MODEL 2
REMARK VINA RESULT:      -8.7      3.898      7.674
REMARK  5 active torsions:
REMARK  status: ('A' for Active; 'I' for Inactive)
REMARK    1  A    between atoms: C_9  and  N_10 
REMARK       I    between atoms: N_10  and  C_11 
REMARK    2  A    between atoms: C_11  and  C_12 
REMARK    3  A    between atoms: C_14  and  C_15 
REMARK    4  A    between atoms: C_15  and  O_16 
REMARK    5  A    between atoms: O_16  and  C_17 
ROOT
HETATM    1  N   UNL     1      -7.759   1.686 -33.118  1.00  0.00    -0.321 N 
HETATM    2  C   UNL     1      -7.207   2.102 -31.911  1.00  0.00     0.279 C 
HETATM    3  O   UNL     1      -7.849   2.658 -31.023  1.00  0.00    -0.265 OA
HETATM    4  H   UNL     1      -7.173   1.089 -33.688  1.00  0.00     0.169 HD
ENDROOT
BRANCH   2   5
HETATM    5  C   UNL     1      -5.804   1.757 -31.766  1.00  0.00     0.143 A 
HETATM    6  O   UNL     1      -5.312   0.750 -32.549  1.00  0.00    -0.307 OA
HETATM    7  C   UNL     1      -3.983   0.620 -32.276  1.00  0.00     0.078 A 
HETATM    8  C   UNL     1      -3.615   1.521 -31.300  1.00  0.00     0.038 A 
HETATM    9  C   UNL     1      -4.782   2.258 -30.976  1.00  0.00     0.045 A 
BRANCH   7  10
HETATM   10  C   UNL     1      -3.241  -0.396 -33.066  1.00  0.00     0.240 C 
BRANCH  10  11
HETATM   11  O   UNL     1      -3.492  -1.661 -32.459  1.00  0.00    -0.345 OA
BRANCH  11  12
HETATM   12  C   UNL     1      -4.101  -2.604 -33.242  1.00  0.00     0.069 A 
HETATM   13  C   UNL     1      -3.728  -3.949 -33.345  1.00  0.00     0.040 A 
HETATM   14  C   UNL     1      -4.437  -4.807 -34.191  1.00  0.00     0.045 A 
HETATM   15  C   UNL     1      -5.512  -4.321 -34.924  1.00  0.00     0.116 A 
HETATM   16  F   UNL     1      -6.185  -5.148 -35.735  1.00  0.00    -0.206 F 
HETATM   17  C   UNL     1      -5.899  -2.991 -34.826  1.00  0.00     0.045 A 
HETATM   18  C   UNL     1      -5.191  -2.134 -33.981  1.00  0.00     0.040 A 
ENDBRANCH  11  12
ENDBRANCH  10  11
ENDBRANCH   7  10
ENDBRANCH   2   5
BRANCH   1  19
HETATM   19  C   UNL     1      -9.094   1.850 -33.539  1.00  0.00     0.035 A 
HETATM   20  C   UNL     1     -10.092   0.894 -33.328  1.00  0.00     0.039 A 
HETATM   21  C   UNL     1     -11.372   1.143 -33.803  1.00  0.00    -0.022 A 
HETATM   22  C   UNL     1     -12.580   0.283 -33.662  1.00  0.00     0.274 C 
HETATM   23  C   UNL     1     -11.679   2.324 -34.478  1.00  0.00    -0.025 A 
HETATM   24  N   UNL     1     -13.626   0.941 -34.555  1.00  0.00    -0.067 N 
HETATM   25  C   UNL     1     -15.011   0.891 -34.017  1.00  0.00     0.270 C 
HETATM   26  H   UNL     1     -13.598   0.425 -35.442  1.00  0.00     0.280 HD
HETATM   27  C   UNL     1     -13.118   2.345 -34.864  1.00  0.00     0.273 C 
HETATM   28  C   UNL     1     -10.712   3.293 -34.680  1.00  0.00     0.012 A 
HETATM   29  C   UNL     1      -9.418   3.052 -34.201  1.00  0.00     0.030 A 
ENDBRANCH   1  19
TORSDOF 5
ENDMDL
MODEL 3
REMARK VINA RESULT:      -8.5      2.840      5.032
REMARK  5 active torsions:
REMARK  status: ('A' for Active; 'I' for Inactive)
REMARK    1  A    between atoms: C_9  and  N_10 
REMARK       I    between atoms: N_10  and  C_11 
REMARK    2  A    between atoms: C_11  and  C_12 
REMARK    3  A    between atoms: C_14  and  C_15 
REMARK    4  A    between atoms: C_15  and  O_16 
REMARK    5  A    between atoms: O_16  and  C_17 
ROOT
HETATM    1  N   UNL     1      -1.275   6.036 -29.973  1.00  0.00    -0.321 N 
HETATM    2  C   UNL     1      -0.805   5.197 -30.978  1.00  0.00     0.279 C 
HETATM    3  O   UNL     1       0.380   4.908 -31.128  1.00  0.00    -0.265 OA
HETATM    4  H   UNL     1      -2.278   6.054 -29.847  1.00  0.00     0.169 HD
ENDROOT
BRANCH   2   5
HETATM    5  C   UNL     1      -1.860   4.635 -31.803  1.00  0.00     0.143 A 
HETATM    6  O   UNL     1      -2.379   3.425 -31.435  1.00  0.00    -0.307 OA
HETATM    7  C   UNL     1      -3.367   3.108 -32.319  1.00  0.00     0.078 A 
HETATM    8  C   UNL     1      -3.474   4.095 -33.275  1.00  0.00     0.038 A 
HETATM    9  C   UNL     1      -2.512   5.081 -32.941  1.00  0.00     0.045 A 
BRANCH   7  10
HETATM   10  C   UNL     1      -4.102   1.842 -32.064  1.00  0.00     0.240 C 
BRANCH  10  11
HETATM   11  O   UNL     1      -5.260   1.858 -32.895  1.00  0.00    -0.345 OA
BRANCH  11  12
HETATM   12  C   UNL     1      -5.617   0.666 -33.466  1.00  0.00     0.069 A 
HETATM   13  C   UNL     1      -6.685   0.467 -34.347  1.00  0.00     0.040 A 
HETATM   14  C   UNL     1      -6.943  -0.810 -34.855  1.00  0.00     0.045 A 
HETATM   15  C   UNL     1      -6.134  -1.877 -34.484  1.00  0.00     0.116 A 
HETATM   16  F   UNL     1      -6.389  -3.098 -34.972  1.00  0.00    -0.206 F 
HETATM   17  C   UNL     1      -5.065  -1.693 -33.617  1.00  0.00     0.045 A 
HETATM   18  C   UNL     1      -4.808  -0.418 -33.110  1.00  0.00     0.040 A 
ENDBRANCH  11  12
ENDBRANCH  10  11
ENDBRANCH   7  10
ENDBRANCH   2   5
BRANCH   1  19
HETATM   19  C   UNL     1      -0.503   6.707 -29.002  1.00  0.00     0.035 A 
HETATM   20  C   UNL     1      -0.584   8.083 -28.770  1.00  0.00     0.039 A 
HETATM   21  C   UNL     1       0.236   8.651 -27.806  1.00  0.00    -0.022 A 
HETATM   22  C   UNL     1       0.291  10.077 -27.380  1.00  0.00     0.274 C 
HETATM   23  C   UNL     1       1.130   7.876 -27.065  1.00  0.00    -0.025 A 
HETATM   24  N   UNL     1       1.509  10.159 -26.466  1.00  0.00    -0.067 N 
HETATM   25  C   UNL     1       1.346  11.076 -25.308  1.00  0.00     0.270 C 
HETATM   26  H   UNL     1       2.276  10.504 -27.055  1.00  0.00     0.280 HD
HETATM   27  C   UNL     1       1.873   8.726 -26.093  1.00  0.00     0.273 C 
HETATM   28  C   UNL     1       1.211   6.510 -27.262  1.00  0.00     0.012 A 
HETATM   29  C   UNL     1       0.384   5.928 -28.232  1.00  0.00     0.030 A 
ENDBRANCH   1  19
TORSDOF 5
ENDMDL
MODEL 4
REMARK VINA RESULT:      -8.5      3.789      9.438
REMARK  5 active torsions:
REMARK  status: ('A' for Active; 'I' for Inactive)
REMARK    1  A    between atoms: C_9  and  N_10 
REMARK       I    between atoms: N_10  and  C_11 
REMARK    2  A    between atoms: C_11  and  C_12 
REMARK    3  A    between atoms: C_14  and  C_15 
REMARK    4  A    between atoms: C_15  and  O_16 
REMARK    5  A    between atoms: O_16  and  C_17 
ROOT
HETATM    1  N   UNL     1      -5.309   2.030 -32.460  1.00  0.00    -0.321 N 
HETATM    2  C   UNL     1      -5.294   2.380 -31.114  1.00  0.00     0.279 C 
HETATM    3  O   UNL     1      -5.554   1.599 -30.202  1.00  0.00    -0.265 OA
HETATM    4  H   UNL     1      -4.909   2.707 -33.097  1.00  0.00     0.169 HD
ENDROOT
BRANCH   2   5
HETATM    5  C   UNL     1      -4.875   3.751 -30.878  1.00  0.00     0.143 A 
HETATM    6  O   UNL     1      -3.853   4.245 -31.639  1.00  0.00    -0.307 OA
HETATM    7  C   UNL     1      -3.651   5.543 -31.277  1.00  0.00     0.078 A 
HETATM    8  C   UNL     1      -4.522   5.887 -30.265  1.00  0.00     0.038 A 
HETATM    9  C   UNL     1      -5.314   4.739 -30.012  1.00  0.00     0.045 A 
BRANCH   7  10
HETATM   10  C   UNL     1      -2.607   6.285 -32.030  1.00  0.00     0.240 C 
BRANCH  10  11
HETATM   11  O   UNL     1      -1.360   5.659 -31.739  1.00  0.00    -0.345 OA
BRANCH  11  12
HETATM   12  C   UNL     1      -0.698   6.106 -30.627  1.00  0.00     0.069 A 
HETATM   13  C   UNL     1      -0.716   7.414 -30.132  1.00  0.00     0.040 A 
HETATM   14  C   UNL     1       0.013   7.737 -28.983  1.00  0.00     0.045 A 
HETATM   15  C   UNL     1       0.751   6.755 -28.335  1.00  0.00     0.116 A 
HETATM   16  F   UNL     1       1.450   7.072 -27.237  1.00  0.00    -0.206 F 
HETATM   17  C   UNL     1       0.772   5.450 -28.809  1.00  0.00     0.045 A 
HETATM   18  C   UNL     1       0.043   5.127 -29.956  1.00  0.00     0.040 A 
ENDBRANCH  11  12
ENDBRANCH  10  11
ENDBRANCH   7  10
ENDBRANCH   2   5
BRANCH   1  19
HETATM   19  C   UNL     1      -5.644   0.772 -33.003  1.00  0.00     0.035 A 
HETATM   20  C   UNL     1      -4.716  -0.256 -33.195  1.00  0.00     0.039 A 
HETATM   21  C   UNL     1      -5.143  -1.450 -33.759  1.00  0.00    -0.022 A 
HETATM   22  C   UNL     1      -4.338  -2.675 -34.021  1.00  0.00     0.274 C 
HETATM   23  C   UNL     1      -6.475  -1.642 -34.129  1.00  0.00    -0.025 A 
HETATM   24  N   UNL     1      -5.258  -3.572 -34.842  1.00  0.00    -0.067 N 
HETATM   25  C   UNL     1      -5.136  -5.020 -34.534  1.00  0.00     0.270 C 
HETATM   26  H   UNL     1      -4.993  -3.419 -35.822  1.00  0.00     0.280 HD
HETATM   27  C   UNL     1      -6.667  -3.009 -34.691  1.00  0.00     0.273 C 
HETATM   28  C   UNL     1      -7.414  -0.646 -33.929  1.00  0.00     0.012 A 
HETATM   29  C   UNL     1      -6.992   0.561 -33.357  1.00  0.00     0.030 A 
ENDBRANCH   1  19
TORSDOF 5
ENDMDL
MODEL 5
REMARK VINA RESULT:      -8.4      1.988      3.211
REMARK  5 active torsions:
REMARK  status: ('A' for Active; 'I' for Inactive)
REMARK    1  A    between atoms: C_9  and  N_10 
REMARK       I    between atoms: N_10  and  C_11 
REMARK    2  A    between atoms: C_11  and  C_12 
REMARK    3  A    between atoms: C_14  and  C_15 
REMARK    4  A    between atoms: C_15  and  O_16 
REMARK    5  A    between atoms: O_16  and  C_17 
ROOT
HETATM    1  N   UNL     1      -2.770   5.906 -31.455  1.00  0.00    -0.321 N 
HETATM    2  C   UNL     1      -2.871   4.574 -31.840  1.00  0.00     0.279 C 
HETATM    3  O   UNL     1      -2.096   3.695 -31.470  1.00  0.00    -0.265 OA
HETATM    4  H   UNL     1      -3.562   6.493 -31.682  1.00  0.00     0.169 HD
ENDROOT
BRANCH   2   5
HETATM    5  C   UNL     1      -4.026   4.300 -32.677  1.00  0.00     0.143 A 
HETATM    6  O   UNL     1      -4.540   3.032 -32.657  1.00  0.00    -0.307 OA
HETATM    7  C   UNL     1      -5.628   3.009 -33.478  1.00  0.00     0.078 A 
HETATM    8  C   UNL     1      -5.807   4.250 -34.052  1.00  0.00     0.038 A 
HETATM    9  C   UNL     1      -4.784   5.082 -33.533  1.00  0.00     0.045 A 
BRANCH   7  10
HETATM   10  C   UNL     1      -6.369   1.724 -33.557  1.00  0.00     0.240 C 
BRANCH  10  11
HETATM   11  O   UNL     1      -5.491   0.706 -33.083  1.00  0.00    -0.345 OA
BRANCH  11  12
HETATM   12  C   UNL     1      -5.626  -0.530 -33.655  1.00  0.00     0.069 A 
HETATM   13  C   UNL     1      -6.797  -1.051 -34.216  1.00  0.00     0.040 A 
HETATM   14  C   UNL     1      -6.797  -2.337 -34.764  1.00  0.00     0.045 A 
HETATM   15  C   UNL     1      -5.632  -3.093 -34.752  1.00  0.00     0.116 A 
HETATM   16  F   UNL     1      -5.639  -4.325 -35.276  1.00  0.00    -0.206 F 
HETATM   17  C   UNL     1      -4.459  -2.586 -34.206  1.00  0.00     0.045 A 
HETATM   18  C   UNL     1      -4.459  -1.302 -33.659  1.00  0.00     0.040 A 
ENDBRANCH  11  12
ENDBRANCH  10  11
ENDBRANCH   7  10
ENDBRANCH   2   5
BRANCH   1  19
HETATM   19  C   UNL     1      -1.779   6.475 -30.628  1.00  0.00     0.035 A 
HETATM   20  C   UNL     1      -2.043   7.003 -29.361  1.00  0.00     0.039 A 
HETATM   21  C   UNL     1      -1.000   7.561 -28.635  1.00  0.00    -0.022 A 
HETATM   22  C   UNL     1      -1.052   8.147 -27.266  1.00  0.00     0.274 C 
HETATM   23  C   UNL     1       0.299   7.598 -29.143  1.00  0.00    -0.025 A 
HETATM   24  N   UNL     1       0.314   8.795 -27.074  1.00  0.00    -0.067 N 
HETATM   25  C   UNL     1       0.858   8.682 -25.695  1.00  0.00     0.270 C 
HETATM   26  H   UNL     1       0.184   9.789 -27.296  1.00  0.00     0.280 HD
HETATM   27  C   UNL     1       1.223   8.233 -28.161  1.00  0.00     0.273 C 
HETATM   28  C   UNL     1       0.587   7.062 -30.385  1.00  0.00     0.012 A 
HETATM   29  C   UNL     1      -0.459   6.495 -31.123  1.00  0.00     0.030 A 
ENDBRANCH   1  19
TORSDOF 5
ENDMDL
MODEL 6
REMARK VINA RESULT:      -8.3      3.503      8.637
REMARK  5 active torsions:
REMARK  status: ('A' for Active; 'I' for Inactive)
REMARK    1  A    between atoms: C_9  and  N_10 
REMARK       I    between atoms: N_10  and  C_11 
REMARK    2  A    between atoms: C_11  and  C_12 
REMARK    3  A    between atoms: C_14  and  C_15 
REMARK    4  A    between atoms: C_15  and  O_16 
REMARK    5  A    between atoms: O_16  and  C_17 
ROOT
HETATM    1  N   UNL     1      -6.098   1.865 -32.765  1.00  0.00    -0.321 N 
HETATM    2  C   UNL     1      -6.781   2.223 -31.607  1.00  0.00     0.279 C 
HETATM    3  O   UNL     1      -7.354   1.418 -30.876  1.00  0.00    -0.265 OA
HETATM    4  H   UNL     1      -5.525   2.588 -33.180  1.00  0.00     0.169 HD
ENDROOT
BRANCH   2   5
HETATM    5  C   UNL     1      -6.700   3.640 -31.302  1.00  0.00     0.143 A 
HETATM    6  O   UNL     1      -5.868   4.410 -32.066  1.00  0.00    -0.307 OA
HETATM    7  C   UNL     1      -5.973   5.698 -31.633  1.00  0.00     0.078 A 
HETATM    8  C   UNL     1      -6.851   5.764 -30.572  1.00  0.00     0.038 A 
HETATM    9  C   UNL     1      -7.325   4.444 -30.363  1.00  0.00     0.045 A 
BRANCH   7  10
HETATM   10  C   UNL     1      -5.180   6.713 -32.374  1.00  0.00     0.240 C 
BRANCH  10  11
HETATM   11  O   UNL     1      -4.183   6.007 -33.108  1.00  0.00    -0.345 OA
BRANCH  11  12
HETATM   12  C   UNL     1      -2.891   6.156 -32.681  1.00  0.00     0.069 A 
HETATM   13  C   UNL     1      -1.965   5.124 -32.494  1.00  0.00     0.040 A 
HETATM   14  C   UNL     1      -0.673   5.417 -32.047  1.00  0.00     0.045 A 
HETATM   15  C   UNL     1      -0.313   6.734 -31.792  1.00  0.00     0.116 A 
HETATM   16  F   UNL     1       0.925   7.007 -31.360  1.00  0.00    -0.206 F 
HETATM   17  C   UNL     1      -1.219   7.770 -31.980  1.00  0.00     0.045 A 
HETATM   18  C   UNL     1      -2.509   7.477 -32.427  1.00  0.00     0.040 A 
ENDBRANCH  11  12
ENDBRANCH  10  11
ENDBRANCH   7  10
ENDBRANCH   2   5
BRANCH   1  19
HETATM   19  C   UNL     1      -5.971   0.570 -33.306  1.00  0.00     0.035 A 
HETATM   20  C   UNL     1      -4.972  -0.331 -32.925  1.00  0.00     0.039 A 
HETATM   21  C   UNL     1      -4.921  -1.576 -33.536  1.00  0.00    -0.022 A 
HETATM   22  C   UNL     1      -3.968  -2.688 -33.261  1.00  0.00     0.274 C 
HETATM   23  C   UNL     1      -5.846  -1.943 -34.513  1.00  0.00    -0.025 A 
HETATM   24  N   UNL     1      -4.237  -3.705 -34.365  1.00  0.00    -0.067 N 
HETATM   25  C   UNL     1      -4.136  -5.122 -33.930  1.00  0.00     0.270 C 
HETATM   26  H   UNL     1      -3.526  -3.529 -35.084  1.00  0.00     0.280 HD
HETATM   27  C   UNL     1      -5.576  -3.329 -34.990  1.00  0.00     0.273 C 
HETATM   28  C   UNL     1      -6.856  -1.076 -34.891  1.00  0.00     0.012 A 
HETATM   29  C   UNL     1      -6.916   0.181 -34.277  1.00  0.00     0.030 A 
ENDBRANCH   1  19
TORSDOF 5
ENDMDL
MODEL 7
REMARK VINA RESULT:      -8.2      2.696      5.205
REMARK  5 active torsions:
REMARK  status: ('A' for Active; 'I' for Inactive)
REMARK    1  A    between atoms: C_9  and  N_10 
REMARK       I    between atoms: N_10  and  C_11 
REMARK    2  A    between atoms: C_11  and  C_12 
REMARK    3  A    between atoms: C_14  and  C_15 
REMARK    4  A    between atoms: C_15  and  O_16 
REMARK    5  A    between atoms: O_16  and  C_17 
ROOT
HETATM    1  N   UNL     1      -1.761   6.933 -31.123  1.00  0.00    -0.321 N 
HETATM    2  C   UNL     1      -2.036   7.499 -32.363  1.00  0.00     0.279 C 
HETATM    3  O   UNL     1      -1.722   8.646 -32.675  1.00  0.00    -0.265 OA
HETATM    4  H   UNL     1      -1.912   5.935 -31.051  1.00  0.00     0.169 HD
ENDROOT
BRANCH   2   5
HETATM    5  C   UNL     1      -2.677   6.583 -33.289  1.00  0.00     0.143 A 
HETATM    6  O   UNL     1      -3.946   6.164 -32.995  1.00  0.00    -0.307 OA
HETATM    7  C   UNL     1      -4.361   5.347 -34.004  1.00  0.00     0.078 A 
HETATM    8  C   UNL     1      -3.358   5.213 -34.940  1.00  0.00     0.038 A 
HETATM    9  C   UNL     1      -2.278   6.012 -34.486  1.00  0.00     0.045 A 
BRANCH   7  10
HETATM   10  C   UNL     1      -5.747   4.821 -33.901  1.00  0.00     0.240 C 
BRANCH  10  11
HETATM   11  O   UNL     1      -5.749   3.854 -32.854  1.00  0.00    -0.345 OA
BRANCH  11  12
HETATM   12  C   UNL     1      -5.800   2.541 -33.237  1.00  0.00     0.069 A 
HETATM   13  C   UNL     1      -5.054   1.496 -32.683  1.00  0.00     0.040 A 
HETATM   14  C   UNL     1      -5.200   0.195 -33.175  1.00  0.00     0.045 A 
HETATM   15  C   UNL     1      -6.089  -0.055 -34.211  1.00  0.00     0.116 A 
HETATM   16  F   UNL     1      -6.222  -1.303 -34.680  1.00  0.00    -0.206 F 
HETATM   17  C   UNL     1      -6.843   0.971 -34.767  1.00  0.00     0.045 A 
HETATM   18  C   UNL     1      -6.697   2.269 -34.276  1.00  0.00     0.040 A 
ENDBRANCH  11  12
ENDBRANCH  10  11
ENDBRANCH   7  10
ENDBRANCH   2   5
BRANCH   1  19
HETATM   19  C   UNL     1      -1.126   7.558 -30.030  1.00  0.00     0.035 A 
HETATM   20  C   UNL     1      -1.741   8.527 -29.232  1.00  0.00     0.039 A 
HETATM   21  C   UNL     1      -1.020   9.098 -28.193  1.00  0.00    -0.022 A 
HETATM   22  C   UNL     1      -1.487  10.115 -27.210  1.00  0.00     0.274 C 
HETATM   23  C   UNL     1       0.297   8.720 -27.929  1.00  0.00    -0.025 A 
HETATM   24  N   UNL     1      -0.227  10.528 -26.457  1.00  0.00    -0.067 N 
HETATM   25  C   UNL     1      -0.438  10.795 -25.010  1.00  0.00     0.270 C 
HETATM   26  H   UNL     1       0.096  11.391 -26.908  1.00  0.00     0.280 HD
HETATM   27  C   UNL     1       0.829   9.470 -26.757  1.00  0.00     0.273 C 
HETATM   28  C   UNL     1       0.918   7.748 -28.693  1.00  0.00     0.012 A 
HETATM   29  C   UNL     1       0.196   7.164 -29.742  1.00  0.00     0.030 A 
ENDBRANCH   1  19
TORSDOF 5
ENDMDL
MODEL 8
REMARK VINA RESULT:      -7.8      6.185      9.412
REMARK  5 active torsions:
REMARK  status: ('A' for Active; 'I' for Inactive)
REMARK    1  A    between atoms: C_9  and  N_10 
REMARK       I    between atoms: N_10  and  C_11 
REMARK    2  A    between atoms: C_11  and  C_12 
REMARK    3  A    between atoms: C_14  and  C_15 
REMARK    4  A    between atoms: C_15  and  O_16 
REMARK    5  A    between atoms: O_16  and  C_17 
ROOT
HETATM    1  N   UNL     1      -9.045   1.052 -34.318  1.00  0.00    -0.321 N 
HETATM    2  C   UNL     1     -10.240   0.780 -33.661  1.00  0.00     0.279 C 
HETATM    3  O   UNL     1     -10.361  -0.083 -32.794  1.00  0.00    -0.265 OA
HETATM    4  H   UNL     1      -9.032   1.895 -34.878  1.00  0.00     0.169 HD
ENDROOT
BRANCH   2   5
HETATM    5  C   UNL     1     -11.328   1.660 -34.048  1.00  0.00     0.143 A 
HETATM    6  O   UNL     1     -11.641   2.693 -33.209  1.00  0.00    -0.307 OA
HETATM    7  C   UNL     1     -12.656   3.402 -33.778  1.00  0.00     0.078 A 
HETATM    8  C   UNL     1     -13.021   2.819 -34.973  1.00  0.00     0.038 A 
HETATM    9  C   UNL     1     -12.164   1.704 -35.152  1.00  0.00     0.045 A 
BRANCH   7  10
HETATM   10  C   UNL     1     -13.114   4.609 -33.043  1.00  0.00     0.240 C 
BRANCH  10  11
HETATM   11  O   UNL     1     -13.807   4.152 -31.884  1.00  0.00    -0.345 OA
BRANCH  11  12
HETATM   12  C   UNL     1     -15.169   4.062 -31.983  1.00  0.00     0.069 A 
HETATM   13  C   UNL     1     -16.060   5.139 -32.046  1.00  0.00     0.040 A 
HETATM   14  C   UNL     1     -17.435   4.904 -32.142  1.00  0.00     0.045 A 
HETATM   15  C   UNL     1     -17.911   3.600 -32.177  1.00  0.00     0.116 A 
HETATM   16  F   UNL     1     -19.230   3.382 -32.265  1.00  0.00    -0.206 F 
HETATM   17  C   UNL     1     -17.039   2.521 -32.123  1.00  0.00     0.045 A 
HETATM   18  C   UNL     1     -15.666   2.755 -32.029  1.00  0.00     0.040 A 
ENDBRANCH  11  12
ENDBRANCH  10  11
ENDBRANCH   7  10
ENDBRANCH   2   5
BRANCH   1  19
HETATM   19  C   UNL     1      -7.812   0.392 -34.140  1.00  0.00     0.035 A 
HETATM   20  C   UNL     1      -6.782   0.887 -33.334  1.00  0.00     0.039 A 
HETATM   21  C   UNL     1      -5.597   0.171 -33.244  1.00  0.00    -0.022 A 
HETATM   22  C   UNL     1      -4.395   0.497 -32.427  1.00  0.00     0.274 C 
HETATM   23  C   UNL     1      -5.419  -1.028 -33.934  1.00  0.00    -0.025 A 
HETATM   24  N   UNL     1      -3.337  -0.500 -32.886  1.00  0.00    -0.067 N 
HETATM   25  C   UNL     1      -2.449  -0.994 -31.801  1.00  0.00     0.270 C 
HETATM   26  H   UNL     1      -2.766  -0.001 -33.578  1.00  0.00     0.280 HD
HETATM   27  C   UNL     1      -4.070  -1.596 -33.652  1.00  0.00     0.273 C 
HETATM   28  C   UNL     1      -6.432  -1.547 -34.720  1.00  0.00     0.012 A 
HETATM   29  C   UNL     1      -7.633  -0.833 -34.815  1.00  0.00     0.030 A 
ENDBRANCH   1  19
TORSDOF 5
ENDMDL
MODEL 9
REMARK VINA RESULT:      -7.6      4.828     10.169
REMARK  5 active torsions:
REMARK  status: ('A' for Active; 'I' for Inactive)
REMARK    1  A    between atoms: C_9  and  N_10 
REMARK       I    between atoms: N_10  and  C_11 
REMARK    2  A    between atoms: C_11  and  C_12 
REMARK    3  A    between atoms: C_14  and  C_15 
REMARK    4  A    between atoms: C_15  and  O_16 
REMARK    5  A    between atoms: O_16  and  C_17 
ROOT
HETATM    1  N   UNL     1      -9.962   2.901 -33.886  1.00  0.00    -0.321 N 
HETATM    2  C   UNL     1      -8.943   2.611 -32.985  1.00  0.00     0.279 C 
HETATM    3  O   UNL     1      -9.104   1.949 -31.963  1.00  0.00    -0.265 OA
HETATM    4  H   UNL     1      -9.670   3.300 -34.769  1.00  0.00     0.169 HD
ENDROOT
BRANCH   2   5
HETATM    5  C   UNL     1      -7.644   3.112 -33.399  1.00  0.00     0.143 A 
HETATM    6  O   UNL     1      -7.278   4.359 -32.973  1.00  0.00    -0.307 OA
HETATM    7  C   UNL     1      -6.024   4.610 -33.443  1.00  0.00     0.078 A 
HETATM    8  C   UNL     1      -5.584   3.541 -34.195  1.00  0.00     0.038 A 
HETATM    9  C   UNL     1      -6.620   2.575 -34.162  1.00  0.00     0.045 A 
BRANCH   7  10
HETATM   10  C   UNL     1      -5.414   5.905 -33.045  1.00  0.00     0.240 C 
BRANCH  10  11
HETATM   11  O   UNL     1      -4.248   6.080 -33.846  1.00  0.00    -0.345 OA
BRANCH  11  12
HETATM   12  C   UNL     1      -3.059   6.185 -33.177  1.00  0.00     0.069 A 
HETATM   13  C   UNL     1      -2.724   5.522 -31.991  1.00  0.00     0.040 A 
HETATM   14  C   UNL     1      -1.469   5.724 -31.408  1.00  0.00     0.045 A 
HETATM   15  C   UNL     1      -0.558   6.581 -32.011  1.00  0.00     0.116 A 
HETATM   16  F   UNL     1       0.641   6.772 -31.445  1.00  0.00    -0.206 F 
HETATM   17  C   UNL     1      -0.872   7.240 -33.192  1.00  0.00     0.045 A 
HETATM   18  C   UNL     1      -2.125   7.038 -33.775  1.00  0.00     0.040 A 
ENDBRANCH  11  12
ENDBRANCH  10  11
ENDBRANCH   7  10
ENDBRANCH   2   5
BRANCH   1  19
HETATM   19  C   UNL     1     -11.318   2.530 -33.778  1.00  0.00     0.035 A 
HETATM   20  C   UNL     1     -12.194   3.077 -32.837  1.00  0.00     0.039 A 
HETATM   21  C   UNL     1     -13.506   2.626 -32.798  1.00  0.00    -0.022 A 
HETATM   22  C   UNL     1     -14.604   3.091 -31.905  1.00  0.00     0.274 C 
HETATM   23  C   UNL     1     -13.963   1.646 -33.679  1.00  0.00    -0.025 A 
HETATM   24  N   UNL     1     -15.741   2.105 -32.149  1.00  0.00    -0.067 N 
HETATM   25  C   UNL     1     -17.096   2.714 -32.126  1.00  0.00     0.270 C 
HETATM   26  H   UNL     1     -15.677   1.414 -31.392  1.00  0.00     0.280 HD
HETATM   27  C   UNL     1     -15.404   1.358 -33.435  1.00  0.00     0.273 C 
HETATM   28  C   UNL     1     -13.119   1.105 -34.633  1.00  0.00     0.012 A 
HETATM   29  C   UNL     1     -11.794   1.557 -34.681  1.00  0.00     0.030 A 
ENDBRANCH   1  19
TORSDOF 5
ENDMDL
MODEL 10
REMARK VINA RESULT:      -7.6      5.648      9.180
REMARK  5 active torsions:
REMARK  status: ('A' for Active; 'I' for Inactive)
REMARK    1  A    between atoms: C_9  and  N_10 
REMARK       I    between atoms: N_10  and  C_11 
REMARK    2  A    between atoms: C_11  and  C_12 
REMARK    3  A    between atoms: C_14  and  C_15 
REMARK    4  A    between atoms: C_15  and  O_16 
REMARK    5  A    between atoms: O_16  and  C_17 
ROOT
HETATM    1  N   UNL     1      -8.970   1.136 -34.564  1.00  0.00    -0.321 N 
HETATM    2  C   UNL     1     -10.170   0.989 -33.878  1.00  0.00     0.279 C 
HETATM    3  O   UNL     1     -10.323   0.229 -32.924  1.00  0.00    -0.265 OA
HETATM    4  H   UNL     1      -8.924   1.913 -35.211  1.00  0.00     0.169 HD
ENDROOT
BRANCH   2   5
HETATM    5  C   UNL     1     -11.222   1.870 -34.354  1.00  0.00     0.143 A 
HETATM    6  O   UNL     1     -11.245   3.151 -33.875  1.00  0.00    -0.307 OA
HETATM    7  C   UNL     1     -12.281   3.803 -34.474  1.00  0.00     0.078 A 
HETATM    8  C   UNL     1     -12.946   2.944 -35.322  1.00  0.00     0.038 A 
HETATM    9  C   UNL     1     -12.263   1.704 -35.253  1.00  0.00     0.045 A 
BRANCH   7  10
HETATM   10  C   UNL     1     -12.449   5.238 -34.126  1.00  0.00     0.240 C 
BRANCH  10  11
HETATM   11  O   UNL     1     -11.339   5.935 -34.684  1.00  0.00    -0.345 OA
BRANCH  11  12
HETATM   12  C   UNL     1     -11.625   6.867 -35.645  1.00  0.00     0.069 A 
HETATM   13  C   UNL     1     -12.892   7.138 -36.173  1.00  0.00     0.040 A 
HETATM   14  C   UNL     1     -13.044   8.118 -37.160  1.00  0.00     0.045 A 
HETATM   15  C   UNL     1     -11.934   8.821 -37.609  1.00  0.00     0.116 A 
HETATM   16  F   UNL     1     -12.085   9.756 -38.557  1.00  0.00    -0.206 F 
HETATM   17  C   UNL     1     -10.671   8.569 -37.090  1.00  0.00     0.045 A 
HETATM   18  C   UNL     1     -10.520   7.591 -36.104  1.00  0.00     0.040 A 
ENDBRANCH  11  12
ENDBRANCH  10  11
ENDBRANCH   7  10
ENDBRANCH   2   5
BRANCH   1  19
HETATM   19  C   UNL     1      -7.766   0.444 -34.320  1.00  0.00     0.035 A 
HETATM   20  C   UNL     1      -6.731   0.953 -33.529  1.00  0.00     0.039 A 
HETATM   21  C   UNL     1      -5.575   0.203 -33.370  1.00  0.00    -0.022 A 
HETATM   22  C   UNL     1      -4.375   0.538 -32.554  1.00  0.00     0.274 C 
HETATM   23  C   UNL     1      -5.432  -1.046 -33.977  1.00  0.00    -0.025 A 
HETATM   24  N   UNL     1      -3.348  -0.526 -32.926  1.00  0.00    -0.067 N 
HETATM   25  C   UNL     1      -2.498  -0.980 -31.795  1.00  0.00     0.270 C 
HETATM   26  H   UNL     1      -2.748  -0.096 -33.639  1.00  0.00     0.280 HD
HETATM   27  C   UNL     1      -4.110  -1.643 -33.632  1.00  0.00     0.273 C 
HETATM   28  C   UNL     1      -6.451  -1.579 -34.746  1.00  0.00     0.012 A 
HETATM   29  C   UNL     1      -7.622  -0.828 -34.909  1.00  0.00     0.030 A 
ENDBRANCH   1  19
TORSDOF 5
ENDMDL
