MODEL 1
REMARK VINA RESULT:      -7.7      0.000      0.000
REMARK  5 active torsions:
REMARK  status: ('A' for Active; 'I' for Inactive)
REMARK    1  A    between atoms: C_3  and  N_4 
REMARK       I    between atoms: N_4  and  C_5 
REMARK       I    between atoms: C_5  and  N_6 
REMARK    2  A    between atoms: N_6  and  C_7 
REMARK    3  A    between atoms: C_7  and  C_8 
REMARK    4  A    between atoms: C_8  and  C_9 
REMARK    5  A    between atoms: N_15  and  C_16 
ROOT
HETATM    1  C   UNL     1      -6.857   2.994 -30.149  1.00  0.00     0.054 C 
HETATM    2  C   UNL     1      -6.494   2.227 -31.364  1.00  0.00     0.003 A 
HETATM    3  C   UNL     1      -6.203   2.709 -32.662  1.00  0.00     0.159 A 
HETATM    4  N   UNL     1      -5.895   1.714 -33.495  1.00  0.00    -0.149 NA
HETATM    5  N   UNL     1      -6.023   0.566 -32.773  1.00  0.00    -0.241 N 
HETATM    6  C   UNL     1      -6.343   0.859 -31.468  1.00  0.00     0.129 A 
ENDROOT
BRANCH   3   7
HETATM    7  N   UNL     1      -6.204   4.041 -33.019  1.00  0.00    -0.291 N 
HETATM    8  C   UNL     1      -5.146   4.890 -33.152  1.00  0.00     0.322 C 
HETATM    9  N   UNL     1      -3.905   4.356 -33.011  1.00  0.00    -0.339 N 
HETATM   10  O   UNL     1      -5.347   6.071 -33.430  1.00  0.00    -0.247 OA
HETATM   11  H   UNL     1      -3.889   3.418 -32.614  1.00  0.00     0.164 HD
HETATM   12  H   UNL     1      -7.094   4.473 -33.214  1.00  0.00     0.172 HD
BRANCH   9  13
HETATM   13  C   UNL     1      -2.678   5.131 -33.072  1.00  0.00     0.082 C 
HETATM   14  C   UNL     1      -1.977   4.886 -34.406  1.00  0.00     0.032 C 
BRANCH  13  15
HETATM   15  C   UNL     1      -1.762   4.873 -31.861  1.00  0.00     0.029 C 
BRANCH  15  16
HETATM   16  C   UNL     1      -0.370   5.428 -32.012  1.00  0.00    -0.013 A 
HETATM   17  C   UNL     1       0.063   6.663 -31.262  1.00  0.00     0.005 A 
HETATM   18  C   UNL     1       0.595   5.317 -30.858  1.00  0.00     0.005 A 
ENDBRANCH  15  16
ENDBRANCH  13  15
ENDBRANCH   9  13
ENDBRANCH   3   7
BRANCH   5  19
HETATM   19  C   UNL     1      -5.767  -0.691 -33.401  1.00  0.00     0.079 A 
HETATM   20  C   UNL     1      -4.511  -1.314 -33.470  1.00  0.00     0.062 A 
HETATM   21 CL   UNL     1      -3.076  -0.784 -32.664  1.00  0.00    -0.082 Cl
HETATM   22  C   UNL     1      -4.373  -2.533 -34.160  1.00  0.00     0.026 A 
HETATM   23  C   UNL     1      -5.468  -3.147 -34.765  1.00  0.00     0.002 A 
HETATM   24  C   UNL     1      -6.720  -2.555 -34.677  1.00  0.00     0.002 A 
HETATM   25  C   UNL     1      -6.870  -1.344 -33.999  1.00  0.00     0.033 A 
ENDBRANCH   5  19
TORSDOF 5
ENDMDL
MODEL 2
REMARK VINA RESULT:      -7.7      1.159      1.422
REMARK  5 active torsions:
REMARK  status: ('A' for Active; 'I' for Inactive)
REMARK    1  A    between atoms: C_3  and  N_4 
REMARK       I    between atoms: N_4  and  C_5 
REMARK       I    between atoms: C_5  and  N_6 
REMARK    2  A    between atoms: N_6  and  C_7 
REMARK    3  A    between atoms: C_7  and  C_8 
REMARK    4  A    between atoms: C_8  and  C_9 
REMARK    5  A    between atoms: N_15  and  C_16 
ROOT
HETATM    1  C   UNL     1      -7.499   2.342 -30.551  1.00  0.00     0.054 C 
HETATM    2  C   UNL     1      -7.145   1.537 -31.744  1.00  0.00     0.003 A 
HETATM    3  C   UNL     1      -7.157   1.920 -33.106  1.00  0.00     0.159 A 
HETATM    4  N   UNL     1      -6.752   0.924 -33.897  1.00  0.00    -0.149 NA
HETATM    5  N   UNL     1      -6.512  -0.134 -33.074  1.00  0.00    -0.241 N 
HETATM    6  C   UNL     1      -6.703   0.230 -31.762  1.00  0.00     0.129 A 
ENDROOT
BRANCH   3   7
HETATM    7  N   UNL     1      -7.512   3.172 -33.563  1.00  0.00    -0.291 N 
HETATM    8  C   UNL     1      -6.716   4.255 -33.790  1.00  0.00     0.322 C 
HETATM    9  N   UNL     1      -5.377   4.077 -33.645  1.00  0.00    -0.339 N 
HETATM   10  O   UNL     1      -7.223   5.315 -34.151  1.00  0.00    -0.247 OA
HETATM   11  H   UNL     1      -5.111   3.211 -33.179  1.00  0.00     0.164 HD
HETATM   12  H   UNL     1      -8.485   3.338 -33.764  1.00  0.00     0.172 HD
BRANCH   9  13
HETATM   13  C   UNL     1      -4.398   5.139 -33.800  1.00  0.00     0.082 C 
HETATM   14  C   UNL     1      -3.828   5.114 -35.216  1.00  0.00     0.032 C 
BRANCH  13  15
HETATM   15  C   UNL     1      -3.304   5.090 -32.717  1.00  0.00     0.029 C 
BRANCH  15  16
HETATM   16  C   UNL     1      -1.904   5.248 -33.246  1.00  0.00    -0.013 A 
HETATM   17  C   UNL     1      -1.125   6.521 -33.025  1.00  0.00     0.005 A 
HETATM   18  C   UNL     1      -0.749   5.273 -32.277  1.00  0.00     0.005 A 
ENDBRANCH  15  16
ENDBRANCH  13  15
ENDBRANCH   9  13
ENDBRANCH   3   7
BRANCH   5  19
HETATM   19  C   UNL     1      -6.067  -1.371 -33.634  1.00  0.00     0.079 A 
HETATM   20  C   UNL     1      -4.734  -1.814 -33.650  1.00  0.00     0.062 A 
HETATM   21 CL   UNL     1      -3.409  -1.049 -32.847  1.00  0.00    -0.082 Cl
HETATM   22  C   UNL     1      -4.411  -3.032 -34.274  1.00  0.00     0.026 A 
HETATM   23  C   UNL     1      -5.395  -3.822 -34.867  1.00  0.00     0.002 A 
HETATM   24  C   UNL     1      -6.719  -3.409 -34.831  1.00  0.00     0.002 A 
HETATM   25  C   UNL     1      -7.053  -2.200 -34.217  1.00  0.00     0.033 A 
ENDBRANCH   5  19
TORSDOF 5
ENDMDL
MODEL 3
REMARK VINA RESULT:      -7.4      3.097      6.110
REMARK  5 active torsions:
REMARK  status: ('A' for Active; 'I' for Inactive)
REMARK    1  A    between atoms: C_3  and  N_4 
REMARK       I    between atoms: N_4  and  C_5 
REMARK       I    between atoms: C_5  and  N_6 
REMARK    2  A    between atoms: N_6  and  C_7 
REMARK    3  A    between atoms: C_7  and  C_8 
REMARK    4  A    between atoms: C_8  and  C_9 
REMARK    5  A    between atoms: N_15  and  C_16 
ROOT
HETATM    1  C   UNL     1      -3.352   2.174 -32.020  1.00  0.00     0.054 C 
HETATM    2  C   UNL     1      -4.078   0.902 -32.245  1.00  0.00     0.003 A 
HETATM    3  C   UNL     1      -5.395   0.554 -31.862  1.00  0.00     0.159 A 
HETATM    4  N   UNL     1      -5.709  -0.680 -32.261  1.00  0.00    -0.149 NA
HETATM    5  N   UNL     1      -4.595  -1.173 -32.870  1.00  0.00    -0.241 N 
HETATM    6  C   UNL     1      -3.610  -0.214 -32.908  1.00  0.00     0.129 A 
ENDROOT
BRANCH   3   7
HETATM    7  N   UNL     1      -6.259   1.391 -31.188  1.00  0.00    -0.291 N 
HETATM    8  C   UNL     1      -7.572   1.649 -31.447  1.00  0.00     0.322 C 
HETATM    9  N   UNL     1      -8.159   0.928 -32.438  1.00  0.00    -0.339 N 
HETATM   10  O   UNL     1      -8.174   2.474 -30.762  1.00  0.00    -0.247 OA
HETATM   11  H   UNL     1      -7.509   0.414 -33.031  1.00  0.00     0.164 HD
HETATM   12  H   UNL     1      -5.899   1.893 -30.392  1.00  0.00     0.172 HD
BRANCH   9  13
HETATM   13  C   UNL     1      -9.532   1.116 -32.871  1.00  0.00     0.082 C 
HETATM   14  C   UNL     1     -10.287  -0.209 -32.791  1.00  0.00     0.032 C 
BRANCH  13  15
HETATM   15  C   UNL     1      -9.622   1.770 -34.264  1.00  0.00     0.029 C 
BRANCH  15  16
HETATM   16  C   UNL     1     -10.440   3.034 -34.300  1.00  0.00    -0.013 A 
HETATM   17  C   UNL     1     -11.768   3.084 -35.012  1.00  0.00     0.005 A 
HETATM   18  C   UNL     1     -11.722   3.104 -33.510  1.00  0.00     0.005 A 
ENDBRANCH  15  16
ENDBRANCH  13  15
ENDBRANCH   9  13
ENDBRANCH   3   7
BRANCH   5  19
HETATM   19  C   UNL     1      -4.615  -2.499 -33.402  1.00  0.00     0.079 A 
HETATM   20  C   UNL     1      -3.774  -3.544 -32.988  1.00  0.00     0.062 A 
HETATM   21 CL   UNL     1      -2.686  -3.491 -31.645  1.00  0.00    -0.082 Cl
HETATM   22  C   UNL     1      -3.854  -4.797 -33.621  1.00  0.00     0.026 A 
HETATM   23  C   UNL     1      -4.768  -5.030 -34.648  1.00  0.00     0.002 A 
HETATM   24  C   UNL     1      -5.625  -4.013 -35.045  1.00  0.00     0.002 A 
HETATM   25  C   UNL     1      -5.554  -2.763 -34.426  1.00  0.00     0.033 A 
ENDBRANCH   5  19
TORSDOF 5
ENDMDL
MODEL 4
REMARK VINA RESULT:      -7.3      3.799      6.366
REMARK  5 active torsions:
REMARK  status: ('A' for Active; 'I' for Inactive)
REMARK    1  A    between atoms: C_3  and  N_4 
REMARK       I    between atoms: N_4  and  C_5 
REMARK       I    between atoms: C_5  and  N_6 
REMARK    2  A    between atoms: N_6  and  C_7 
REMARK    3  A    between atoms: C_7  and  C_8 
REMARK    4  A    between atoms: C_8  and  C_9 
REMARK    5  A    between atoms: N_15  and  C_16 
ROOT
HETATM    1  C   UNL     1      -7.373   2.545 -30.542  1.00  0.00     0.054 C 
HETATM    2  C   UNL     1      -6.989   1.732 -31.721  1.00  0.00     0.003 A 
HETATM    3  C   UNL     1      -6.874   2.133 -33.073  1.00  0.00     0.159 A 
HETATM    4  N   UNL     1      -6.481   1.122 -33.850  1.00  0.00    -0.149 NA
HETATM    5  N   UNL     1      -6.376   0.038 -33.031  1.00  0.00    -0.241 N 
HETATM    6  C   UNL     1      -6.637   0.398 -31.730  1.00  0.00     0.129 A 
ENDROOT
BRANCH   3   7
HETATM    7  N   UNL     1      -7.107   3.412 -33.531  1.00  0.00    -0.291 N 
HETATM    8  C   UNL     1      -8.289   3.989 -33.890  1.00  0.00     0.322 C 
HETATM    9  N   UNL     1      -9.417   3.258 -33.690  1.00  0.00    -0.339 N 
HETATM   10  O   UNL     1      -8.295   5.137 -34.330  1.00  0.00    -0.247 OA
HETATM   11  H   UNL     1      -9.255   2.273 -33.487  1.00  0.00     0.164 HD
HETATM   12  H   UNL     1      -6.315   4.028 -33.624  1.00  0.00     0.172 HD
BRANCH   9  13
HETATM   13  C   UNL     1     -10.748   3.705 -34.063  1.00  0.00     0.082 C 
HETATM   14  C   UNL     1     -11.474   4.251 -32.837  1.00  0.00     0.032 C 
BRANCH  13  15
HETATM   15  C   UNL     1     -11.550   2.610 -34.792  1.00  0.00     0.029 C 
BRANCH  15  16
HETATM   16  C   UNL     1     -12.603   1.949 -33.942  1.00  0.00    -0.013 A 
HETATM   17  C   UNL     1     -13.645   1.046 -34.553  1.00  0.00     0.005 A 
HETATM   18  C   UNL     1     -12.541   0.459 -33.720  1.00  0.00     0.005 A 
ENDBRANCH  15  16
ENDBRANCH  13  15
ENDBRANCH   9  13
ENDBRANCH   3   7
BRANCH   5  19
HETATM   19  C   UNL     1      -5.978  -1.219 -33.579  1.00  0.00     0.079 A 
HETATM   20  C   UNL     1      -4.667  -1.723 -33.567  1.00  0.00     0.062 A 
HETATM   21 CL   UNL     1      -3.324  -1.019 -32.737  1.00  0.00    -0.082 Cl
HETATM   22  C   UNL     1      -4.387  -2.957 -34.182  1.00  0.00     0.026 A 
HETATM   23  C   UNL     1      -5.394  -3.702 -34.795  1.00  0.00     0.002 A 
HETATM   24  C   UNL     1      -6.698  -3.228 -34.787  1.00  0.00     0.002 A 
HETATM   25  C   UNL     1      -6.989  -2.004 -34.182  1.00  0.00     0.033 A 
ENDBRANCH   5  19
TORSDOF 5
ENDMDL
MODEL 5
REMARK VINA RESULT:      -7.2      3.508      6.286
REMARK  5 active torsions:
REMARK  status: ('A' for Active; 'I' for Inactive)
REMARK    1  A    between atoms: C_3  and  N_4 
REMARK       I    between atoms: N_4  and  C_5 
REMARK       I    between atoms: C_5  and  N_6 
REMARK    2  A    between atoms: N_6  and  C_7 
REMARK    3  A    between atoms: C_7  and  C_8 
REMARK    4  A    between atoms: C_8  and  C_9 
REMARK    5  A    between atoms: N_15  and  C_16 
ROOT
HETATM    1  C   UNL     1      -4.951   3.305 -31.351  1.00  0.00     0.054 C 
HETATM    2  C   UNL     1      -5.469   1.975 -31.749  1.00  0.00     0.003 A 
HETATM    3  C   UNL     1      -6.728   1.394 -31.467  1.00  0.00     0.159 A 
HETATM    4  N   UNL     1      -6.840   0.182 -32.015  1.00  0.00    -0.149 NA
HETATM    5  N   UNL     1      -5.647  -0.066 -32.624  1.00  0.00    -0.241 N 
HETATM    6  C   UNL     1      -4.819   1.025 -32.510  1.00  0.00     0.129 A 
ENDROOT
BRANCH   3   7
HETATM    7  N   UNL     1      -7.728   2.009 -30.745  1.00  0.00    -0.291 N 
HETATM    8  C   UNL     1      -8.998   2.315 -31.134  1.00  0.00     0.322 C 
HETATM    9  N   UNL     1      -9.387   1.884 -32.362  1.00  0.00    -0.339 N 
HETATM   10  O   UNL     1      -9.741   2.918 -30.362  1.00  0.00    -0.247 OA
HETATM   11  H   UNL     1      -8.628   1.556 -32.957  1.00  0.00     0.164 HD
HETATM   12  H   UNL     1      -7.522   2.280 -29.796  1.00  0.00     0.172 HD
BRANCH   9  13
HETATM   13  C   UNL     1     -10.686   2.170 -32.946  1.00  0.00     0.082 C 
HETATM   14  C   UNL     1     -11.314   0.880 -33.468  1.00  0.00     0.032 C 
BRANCH  13  15
HETATM   15  C   UNL     1     -10.615   3.274 -34.019  1.00  0.00     0.029 C 
BRANCH  15  16
HETATM   16  C   UNL     1     -11.958   3.725 -34.528  1.00  0.00    -0.013 A 
HETATM   17  C   UNL     1     -12.074   4.825 -35.554  1.00  0.00     0.005 A 
HETATM   18  C   UNL     1     -12.354   3.402 -35.947  1.00  0.00     0.005 A 
ENDBRANCH  15  16
ENDBRANCH  13  15
ENDBRANCH   9  13
ENDBRANCH   3   7
BRANCH   5  19
HETATM   19  C   UNL     1      -5.450  -1.309 -33.301  1.00  0.00     0.079 A 
HETATM   20  C   UNL     1      -4.326  -2.137 -33.151  1.00  0.00     0.062 A 
HETATM   21 CL   UNL     1      -3.057  -1.914 -31.998  1.00  0.00    -0.082 Cl
HETATM   22  C   UNL     1      -4.222  -3.317 -33.909  1.00  0.00     0.026 A 
HETATM   23  C   UNL     1      -5.226  -3.693 -34.801  1.00  0.00     0.002 A 
HETATM   24  C   UNL     1      -6.355  -2.898 -34.935  1.00  0.00     0.002 A 
HETATM   25  C   UNL     1      -6.470  -1.722 -34.190  1.00  0.00     0.033 A 
ENDBRANCH   5  19
TORSDOF 5
ENDMDL
MODEL 6
REMARK VINA RESULT:      -7.1      2.988      5.077
REMARK  5 active torsions:
REMARK  status: ('A' for Active; 'I' for Inactive)
REMARK    1  A    between atoms: C_3  and  N_4 
REMARK       I    between atoms: N_4  and  C_5 
REMARK       I    between atoms: C_5  and  N_6 
REMARK    2  A    between atoms: N_6  and  C_7 
REMARK    3  A    between atoms: C_7  and  C_8 
REMARK    4  A    between atoms: C_8  and  C_9 
REMARK    5  A    between atoms: N_15  and  C_16 
ROOT
HETATM    1  C   UNL     1      -2.286   5.746 -34.435  1.00  0.00     0.054 C 
HETATM    2  C   UNL     1      -2.564   4.789 -33.339  1.00  0.00     0.003 A 
HETATM    3  C   UNL     1      -1.807   4.536 -32.171  1.00  0.00     0.159 A 
HETATM    4  N   UNL     1      -2.389   3.614 -31.402  1.00  0.00    -0.149 NA
HETATM    5  N   UNL     1      -3.508   3.219 -32.071  1.00  0.00    -0.241 N 
HETATM    6  C   UNL     1      -3.654   3.951 -33.226  1.00  0.00     0.129 A 
ENDROOT
BRANCH   3   7
HETATM    7  N   UNL     1      -0.631   5.179 -31.847  1.00  0.00    -0.291 N 
HETATM    8  C   UNL     1      -0.364   5.986 -30.781  1.00  0.00     0.322 C 
HETATM    9  N   UNL     1      -1.342   6.115 -29.846  1.00  0.00    -0.339 N 
HETATM   10  O   UNL     1       0.739   6.519 -30.685  1.00  0.00    -0.247 OA
HETATM   11  H   UNL     1      -2.254   5.765 -30.134  1.00  0.00     0.164 HD
HETATM   12  H   UNL     1       0.156   5.055 -32.465  1.00  0.00     0.172 HD
BRANCH   9  13
HETATM   13  C   UNL     1      -1.237   6.974 -28.680  1.00  0.00     0.082 C 
HETATM   14  C   UNL     1      -1.430   8.431 -29.091  1.00  0.00     0.032 C 
BRANCH  13  15
HETATM   15  C   UNL     1       0.072   6.744 -27.899  1.00  0.00     0.029 C 
BRANCH  15  16
HETATM   16  C   UNL     1       0.532   7.936 -27.102  1.00  0.00    -0.013 A 
HETATM   17  C   UNL     1       1.815   7.896 -26.310  1.00  0.00     0.005 A 
HETATM   18  C   UNL     1       1.738   8.712 -27.570  1.00  0.00     0.005 A 
ENDBRANCH  15  16
ENDBRANCH  13  15
ENDBRANCH   9  13
ENDBRANCH   3   7
BRANCH   5  19
HETATM   19  C   UNL     1      -4.351   2.218 -31.499  1.00  0.00     0.079 A 
HETATM   20  C   UNL     1      -4.322   0.855 -31.835  1.00  0.00     0.062 A 
HETATM   21 CL   UNL     1      -3.156   0.094 -32.859  1.00  0.00    -0.082 Cl
HETATM   22  C   UNL     1      -5.237  -0.031 -31.238  1.00  0.00     0.026 A 
HETATM   23  C   UNL     1      -6.167   0.416 -30.300  1.00  0.00     0.002 A 
HETATM   24  C   UNL     1      -6.184   1.755 -29.937  1.00  0.00     0.002 A 
HETATM   25  C   UNL     1      -5.284   2.646 -30.526  1.00  0.00     0.033 A 
ENDBRANCH   5  19
TORSDOF 5
ENDMDL
MODEL 7
REMARK VINA RESULT:      -7.1      3.172      5.135
REMARK  5 active torsions:
REMARK  status: ('A' for Active; 'I' for Inactive)
REMARK    1  A    between atoms: C_3  and  N_4 
REMARK       I    between atoms: N_4  and  C_5 
REMARK       I    between atoms: C_5  and  N_6 
REMARK    2  A    between atoms: N_6  and  C_7 
REMARK    3  A    between atoms: C_7  and  C_8 
REMARK    4  A    between atoms: C_8  and  C_9 
REMARK    5  A    between atoms: N_15  and  C_16 
ROOT
HETATM    1  C   UNL     1      -2.396   5.442 -34.708  1.00  0.00     0.054 C 
HETATM    2  C   UNL     1      -2.678   4.590 -33.529  1.00  0.00     0.003 A 
HETATM    3  C   UNL     1      -1.918   4.433 -32.347  1.00  0.00     0.159 A 
HETATM    4  N   UNL     1      -2.506   3.591 -31.496  1.00  0.00    -0.149 NA
HETATM    5  N   UNL     1      -3.632   3.150 -32.122  1.00  0.00    -0.241 N 
HETATM    6  C   UNL     1      -3.776   3.777 -33.338  1.00  0.00     0.129 A 
ENDROOT
BRANCH   3   7
HETATM    7  N   UNL     1      -0.734   5.090 -32.087  1.00  0.00    -0.291 N 
HETATM    8  C   UNL     1      -0.425   5.915 -31.046  1.00  0.00     0.322 C 
HETATM    9  N   UNL     1      -1.360   6.051 -30.070  1.00  0.00    -0.339 N 
HETATM   10  O   UNL     1       0.677   6.458 -31.009  1.00  0.00    -0.247 OA
HETATM   11  H   UNL     1      -2.281   5.690 -30.310  1.00  0.00     0.164 HD
HETATM   12  H   UNL     1       0.026   4.963 -32.738  1.00  0.00     0.172 HD
BRANCH   9  13
HETATM   13  C   UNL     1      -1.209   6.928 -28.922  1.00  0.00     0.082 C 
HETATM   14  C   UNL     1      -1.526   8.366 -29.324  1.00  0.00     0.032 C 
BRANCH  13  15
HETATM   15  C   UNL     1       0.174   6.788 -28.256  1.00  0.00     0.029 C 
BRANCH  15  16
HETATM   16  C   UNL     1       0.527   7.917 -27.325  1.00  0.00    -0.013 A 
HETATM   17  C   UNL     1       1.715   7.823 -26.399  1.00  0.00     0.005 A 
HETATM   18  C   UNL     1       1.766   8.733 -27.595  1.00  0.00     0.005 A 
ENDBRANCH  15  16
ENDBRANCH  13  15
ENDBRANCH   9  13
ENDBRANCH   3   7
BRANCH   5  19
HETATM   19  C   UNL     1      -4.482   2.212 -31.460  1.00  0.00     0.079 A 
HETATM   20  C   UNL     1      -5.299   2.508 -30.356  1.00  0.00     0.062 A 
HETATM   21 CL   UNL     1      -5.575   4.083 -29.700  1.00  0.00    -0.082 Cl
HETATM   22  C   UNL     1      -6.058   1.487 -29.756  1.00  0.00     0.026 A 
HETATM   23  C   UNL     1      -6.030   0.183 -30.248  1.00  0.00     0.002 A 
HETATM   24  C   UNL     1      -5.250  -0.114 -31.357  1.00  0.00     0.002 A 
HETATM   25  C   UNL     1      -4.489   0.889 -31.960  1.00  0.00     0.033 A 
ENDBRANCH   5  19
TORSDOF 5
ENDMDL
MODEL 8
REMARK VINA RESULT:      -7.1      4.319      7.361
REMARK  5 active torsions:
REMARK  status: ('A' for Active; 'I' for Inactive)
REMARK    1  A    between atoms: C_3  and  N_4 
REMARK       I    between atoms: N_4  and  C_5 
REMARK       I    between atoms: C_5  and  N_6 
REMARK    2  A    between atoms: N_6  and  C_7 
REMARK    3  A    between atoms: C_7  and  C_8 
REMARK    4  A    between atoms: C_8  and  C_9 
REMARK    5  A    between atoms: N_15  and  C_16 
ROOT
HETATM    1  C   UNL     1      -6.439   3.086 -33.964  1.00  0.00     0.054 C 
HETATM    2  C   UNL     1      -6.665   1.634 -33.774  1.00  0.00     0.003 A 
HETATM    3  C   UNL     1      -7.712   0.985 -33.078  1.00  0.00     0.159 A 
HETATM    4  N   UNL     1      -7.591  -0.342 -33.142  1.00  0.00    -0.149 NA
HETATM    5  N   UNL     1      -6.446  -0.582 -33.840  1.00  0.00    -0.241 N 
HETATM    6  C   UNL     1      -5.894   0.603 -34.268  1.00  0.00     0.129 A 
ENDROOT
BRANCH   3   7
HETATM    7  N   UNL     1      -8.746   1.635 -32.439  1.00  0.00    -0.291 N 
HETATM    8  C   UNL     1     -10.016   1.860 -32.880  1.00  0.00     0.322 C 
HETATM    9  N   UNL     1     -10.365   1.297 -34.067  1.00  0.00    -0.339 N 
HETATM   10  O   UNL     1     -10.794   2.511 -32.185  1.00  0.00    -0.247 OA
HETATM   11  H   UNL     1      -9.584   0.937 -34.612  1.00  0.00     0.164 HD
HETATM   12  H   UNL     1      -8.569   2.005 -31.518  1.00  0.00     0.172 HD
BRANCH   9  13
HETATM   13  C   UNL     1     -11.659   1.481 -34.700  1.00  0.00     0.082 C 
HETATM   14  C   UNL     1     -11.829   2.941 -35.115  1.00  0.00     0.032 C 
BRANCH  13  15
HETATM   15  C   UNL     1     -12.818   0.974 -33.821  1.00  0.00     0.029 C 
BRANCH  15  16
HETATM   16  C   UNL     1     -13.993   1.913 -33.747  1.00  0.00    -0.013 A 
HETATM   17  C   UNL     1     -15.334   1.447 -33.236  1.00  0.00     0.005 A 
HETATM   18  C   UNL     1     -14.490   2.365 -32.397  1.00  0.00     0.005 A 
ENDBRANCH  15  16
ENDBRANCH  13  15
ENDBRANCH   9  13
ENDBRANCH   3   7
BRANCH   5  19
HETATM   19  C   UNL     1      -6.033  -1.930 -34.070  1.00  0.00     0.079 A 
HETATM   20  C   UNL     1      -4.755  -2.438 -33.789  1.00  0.00     0.062 A 
HETATM   21 CL   UNL     1      -3.498  -1.598 -32.951  1.00  0.00    -0.082 Cl
HETATM   22  C   UNL     1      -4.450  -3.775 -34.104  1.00  0.00     0.026 A 
HETATM   23  C   UNL     1      -5.403  -4.615 -34.679  1.00  0.00     0.002 A 
HETATM   24  C   UNL     1      -6.678  -4.132 -34.934  1.00  0.00     0.002 A 
HETATM   25  C   UNL     1      -6.993  -2.806 -34.628  1.00  0.00     0.033 A 
ENDBRANCH   5  19
TORSDOF 5
ENDMDL
MODEL 9
REMARK VINA RESULT:      -7.0      2.379      3.322
REMARK  5 active torsions:
REMARK  status: ('A' for Active; 'I' for Inactive)
REMARK    1  A    between atoms: C_3  and  N_4 
REMARK       I    between atoms: N_4  and  C_5 
REMARK       I    between atoms: C_5  and  N_6 
REMARK    2  A    between atoms: N_6  and  C_7 
REMARK    3  A    between atoms: C_7  and  C_8 
REMARK    4  A    between atoms: C_8  and  C_9 
REMARK    5  A    between atoms: N_15  and  C_16 
ROOT
HETATM    1  C   UNL     1     -10.214   1.829 -33.491  1.00  0.00     0.054 C 
HETATM    2  C   UNL     1      -9.043   0.961 -33.225  1.00  0.00     0.003 A 
HETATM    3  C   UNL     1      -8.213   0.920 -32.080  1.00  0.00     0.159 A 
HETATM    4  N   UNL     1      -7.267  -0.013 -32.196  1.00  0.00    -0.149 NA
HETATM    5  N   UNL     1      -7.434  -0.566 -33.430  1.00  0.00    -0.241 N 
HETATM    6  C   UNL     1      -8.532  -0.019 -34.051  1.00  0.00     0.129 A 
ENDROOT
BRANCH   3   7
HETATM    7  N   UNL     1      -8.375   1.720 -30.969  1.00  0.00    -0.291 N 
HETATM    8  C   UNL     1      -7.839   2.948 -30.715  1.00  0.00     0.322 C 
HETATM    9  N   UNL     1      -7.121   3.525 -31.713  1.00  0.00    -0.339 N 
HETATM   10  O   UNL     1      -8.056   3.493 -29.634  1.00  0.00    -0.247 OA
HETATM   11  H   UNL     1      -6.876   2.899 -32.478  1.00  0.00     0.164 HD
HETATM   12  H   UNL     1      -8.964   1.377 -30.226  1.00  0.00     0.172 HD
BRANCH   9  13
HETATM   13  C   UNL     1      -6.444   4.804 -31.587  1.00  0.00     0.082 C 
HETATM   14  C   UNL     1      -6.642   5.623 -32.860  1.00  0.00     0.032 C 
BRANCH  13  15
HETATM   15  C   UNL     1      -4.959   4.645 -31.207  1.00  0.00     0.029 C 
BRANCH  15  16
HETATM   16  C   UNL     1      -4.239   3.565 -31.971  1.00  0.00    -0.013 A 
HETATM   17  C   UNL     1      -3.016   3.878 -32.798  1.00  0.00     0.005 A 
HETATM   18  C   UNL     1      -2.875   3.120 -31.507  1.00  0.00     0.005 A 
ENDBRANCH  15  16
ENDBRANCH  13  15
ENDBRANCH   9  13
ENDBRANCH   3   7
BRANCH   5  19
HETATM   19  C   UNL     1      -6.552  -1.604 -33.859  1.00  0.00     0.079 A 
HETATM   20  C   UNL     1      -5.150  -1.527 -33.840  1.00  0.00     0.062 A 
HETATM   21 CL   UNL     1      -4.220  -0.252 -33.135  1.00  0.00    -0.082 Cl
HETATM   22  C   UNL     1      -4.385  -2.599 -34.335  1.00  0.00     0.026 A 
HETATM   23  C   UNL     1      -4.994  -3.751 -34.831  1.00  0.00     0.002 A 
HETATM   24  C   UNL     1      -6.378  -3.851 -34.827  1.00  0.00     0.002 A 
HETATM   25  C   UNL     1      -7.149  -2.792 -34.341  1.00  0.00     0.033 A 
ENDBRANCH   5  19
TORSDOF 5
ENDMDL
MODEL 10
REMARK VINA RESULT:      -7.0     16.269     17.692
REMARK  5 active torsions:
REMARK  status: ('A' for Active; 'I' for Inactive)
REMARK    1  A    between atoms: C_3  and  N_4 
REMARK       I    between atoms: N_4  and  C_5 
REMARK       I    between atoms: C_5  and  N_6 
REMARK    2  A    between atoms: N_6  and  C_7 
REMARK    3  A    between atoms: C_7  and  C_8 
REMARK    4  A    between atoms: C_8  and  C_9 
REMARK    5  A    between atoms: N_15  and  C_16 
ROOT
HETATM    1  C   UNL     1      -3.675 -14.225 -41.961  1.00  0.00     0.054 C 
HETATM    2  C   UNL     1      -4.879 -13.722 -41.260  1.00  0.00     0.003 A 
HETATM    3  C   UNL     1      -4.960 -12.802 -40.188  1.00  0.00     0.159 A 
HETATM    4  N   UNL     1      -6.227 -12.575 -39.834  1.00  0.00    -0.149 NA
HETATM    5  N   UNL     1      -6.988 -13.371 -40.634  1.00  0.00    -0.241 N 
HETATM    6  C   UNL     1      -6.193 -14.042 -41.534  1.00  0.00     0.129 A 
ENDROOT
BRANCH   3   7
HETATM    7  N   UNL     1      -3.874 -12.190 -39.600  1.00  0.00    -0.291 N 
HETATM    8  C   UNL     1      -3.384 -12.348 -38.338  1.00  0.00     0.322 C 
HETATM    9  N   UNL     1      -3.970 -13.300 -37.564  1.00  0.00    -0.339 N 
HETATM   10  O   UNL     1      -2.427 -11.671 -37.969  1.00  0.00    -0.247 OA
HETATM   11  H   UNL     1      -4.851 -13.659 -37.927  1.00  0.00     0.164 HD
HETATM   12  H   UNL     1      -3.350 -11.531 -40.155  1.00  0.00     0.172 HD
BRANCH   9  13
HETATM   13  C   UNL     1      -3.602 -13.559 -36.183  1.00  0.00     0.082 C 
HETATM   14  C   UNL     1      -2.938 -14.929 -36.073  1.00  0.00     0.032 C 
BRANCH  13  15
HETATM   15  C   UNL     1      -4.793 -13.395 -35.220  1.00  0.00     0.029 C 
BRANCH  15  16
HETATM   16  C   UNL     1      -5.997 -14.225 -35.580  1.00  0.00    -0.013 A 
HETATM   17  C   UNL     1      -7.111 -14.456 -34.590  1.00  0.00     0.005 A 
HETATM   18  C   UNL     1      -7.330 -13.545 -35.765  1.00  0.00     0.005 A 
ENDBRANCH  15  16
ENDBRANCH  13  15
ENDBRANCH   9  13
ENDBRANCH   3   7
BRANCH   5  19
HETATM   19  C   UNL     1      -8.409 -13.360 -40.487  1.00  0.00     0.079 A 
HETATM   20  C   UNL     1      -9.230 -14.500 -40.521  1.00  0.00     0.062 A 
HETATM   21 CL   UNL     1      -8.679 -16.138 -40.564  1.00  0.00    -0.082 Cl
HETATM   22  C   UNL     1     -10.625 -14.358 -40.412  1.00  0.00     0.026 A 
HETATM   23  C   UNL     1     -11.213 -13.104 -40.254  1.00  0.00     0.002 A 
HETATM   24  C   UNL     1     -10.410 -11.974 -40.189  1.00  0.00     0.002 A 
HETATM   25  C   UNL     1      -9.024 -12.101 -40.299  1.00  0.00     0.033 A 
ENDBRANCH   5  19
TORSDOF 5
ENDMDL
