MODEL 1
REMARK VINA RESULT:      -8.2      0.000      0.000
REMARK  3 active torsions:
REMARK  status: ('A' for Active; 'I' for Inactive)
REMARK    1  A    between atoms: C_6  and  N_7 
REMARK       I    between atoms: N_7  and  C_8 
REMARK    2  A    between atoms: C_8  and  C_9 
REMARK    3  A    between atoms: C_9  and  C_10 
ROOT
HETATM    1  C   UNL     1      -5.732   2.489 -31.623  1.00  0.00     0.286 C 
HETATM    2  N   UNL     1      -5.618   2.741 -33.125  1.00  0.00    -0.056 N 
HETATM    3  H   UNL     1      -5.499   3.754 -33.246  1.00  0.00     0.278 HD
HETATM    4  H   UNL     1      -4.704   2.358 -33.452  1.00  0.00     0.278 HD
HETATM    5  C   UNL     1      -6.745   2.297 -34.002  1.00  0.00     0.209 C 
HETATM    6  C   UNL     1      -8.076   2.800 -33.403  1.00  0.00     0.115 C 
HETATM    7  N   UNL     1      -8.207   2.441 -31.994  1.00  0.00    -0.353 N 
HETATM    8  C   UNL     1      -7.177   2.479 -31.091  1.00  0.00     0.249 C 
HETATM    9  O   UNL     1      -7.421   2.439 -29.889  1.00  0.00    -0.271 OA
HETATM   10  C   UNL     1      -6.714   0.783 -34.209  1.00  0.00     0.035 C 
HETATM   11  C   UNL     1      -7.902   0.331 -35.056  1.00  0.00     0.002 C 
HETATM   12  C   UNL     1      -9.228   0.780 -34.445  1.00  0.00     0.002 C 
HETATM   13  C   UNL     1      -9.269   2.292 -34.219  1.00  0.00     0.027 C 
HETATM   14  H   UNL     1      -9.125   2.507 -31.555  1.00  0.00     0.163 HD
ENDROOT
BRANCH   1  15
HETATM   15  C   UNL     1      -5.018   1.210 -31.145  1.00  0.00     0.146 C 
BRANCH  15  16
HETATM   16  C   UNL     1      -3.542   1.209 -31.427  1.00  0.00     0.224 C 
HETATM   17  N   UNL     1      -2.895   0.159 -31.988  1.00  0.00    -0.327 N 
HETATM   18  H   UNL     1      -1.897   0.345 -32.064  1.00  0.00     0.169 HD
HETATM   19  O   UNL     1      -2.889   2.232 -31.174  1.00  0.00    -0.273 OA
BRANCH  17  20
HETATM   20  C   UNL     1      -3.286  -1.106 -32.474  1.00  0.00     0.035 A 
HETATM   21  C   UNL     1      -4.112  -1.350 -33.570  1.00  0.00     0.037 A 
HETATM   22  C   UNL     1      -4.450  -2.665 -33.956  1.00  0.00    -0.054 A 
HETATM   23  C   UNL     1      -3.911  -3.759 -33.256  1.00  0.00    -0.056 A 
HETATM   24  C   UNL     1      -5.354  -2.870 -35.146  1.00  0.00     0.049 C 
HETATM   25  C   UNL     1      -4.229  -5.180 -33.634  1.00  0.00     0.049 C 
HETATM   26  C   UNL     1      -3.079  -3.515 -32.160  1.00  0.00     0.009 A 
HETATM   27  C   UNL     1      -2.772  -2.207 -31.777  1.00  0.00     0.030 A 
ENDBRANCH  17  20
ENDBRANCH  15  16
ENDBRANCH   1  15
TORSDOF 3
ENDMDL
MODEL 2
REMARK VINA RESULT:      -8.0      2.479      3.651
REMARK  3 active torsions:
REMARK  status: ('A' for Active; 'I' for Inactive)
REMARK    1  A    between atoms: C_6  and  N_7 
REMARK       I    between atoms: N_7  and  C_8 
REMARK    2  A    between atoms: C_8  and  C_9 
REMARK    3  A    between atoms: C_9  and  C_10 
ROOT
HETATM    1  C   UNL     1      -9.163   1.211 -32.852  1.00  0.00     0.286 C 
HETATM    2  N   UNL     1      -9.259   2.733 -32.775  1.00  0.00    -0.056 N 
HETATM    3  H   UNL     1      -9.244   2.979 -31.777  1.00  0.00     0.278 HD
HETATM    4  H   UNL     1      -8.365   3.136 -33.129  1.00  0.00     0.278 HD
HETATM    5  C   UNL     1     -10.446   3.397 -33.398  1.00  0.00     0.209 C 
HETATM    6  C   UNL     1     -11.729   2.684 -32.922  1.00  0.00     0.115 C 
HETATM    7  N   UNL     1     -11.652   1.239 -33.117  1.00  0.00    -0.353 N 
HETATM    8  C   UNL     1     -10.524   0.492 -32.900  1.00  0.00     0.249 C 
HETATM    9  O   UNL     1     -10.611  -0.729 -32.812  1.00  0.00    -0.271 OA
HETATM   10  C   UNL     1     -10.312   3.439 -34.920  1.00  0.00     0.035 C 
HETATM   11  C   UNL     1     -11.554   4.064 -35.553  1.00  0.00     0.002 C 
HETATM   12  C   UNL     1     -12.826   3.333 -35.128  1.00  0.00     0.002 C 
HETATM   13  C   UNL     1     -12.968   3.271 -33.606  1.00  0.00     0.027 C 
HETATM   14  H   UNL     1     -12.510   0.690 -33.064  1.00  0.00     0.163 HD
ENDROOT
BRANCH   1  15
HETATM   15  C   UNL     1      -8.288   0.695 -34.011  1.00  0.00     0.146 C 
BRANCH  15  16
HETATM   16  C   UNL     1      -6.913   1.301 -34.037  1.00  0.00     0.224 C 
HETATM   17  N   UNL     1      -5.777   0.561 -34.054  1.00  0.00    -0.327 N 
HETATM   18  H   UNL     1      -4.953   1.158 -34.036  1.00  0.00     0.169 HD
HETATM   19  O   UNL     1      -6.809   2.535 -34.088  1.00  0.00    -0.273 OA
BRANCH  17  20
HETATM   20  C   UNL     1      -5.490  -0.819 -34.082  1.00  0.00     0.035 A 
HETATM   21  C   UNL     1      -6.251  -1.807 -34.706  1.00  0.00     0.037 A 
HETATM   22  C   UNL     1      -5.871  -3.167 -34.656  1.00  0.00    -0.054 A 
HETATM   23  C   UNL     1      -4.681  -3.536 -34.006  1.00  0.00    -0.056 A 
HETATM   24  C   UNL     1      -6.736  -4.194 -35.341  1.00  0.00     0.049 C 
HETATM   25  C   UNL     1      -4.225  -4.968 -33.933  1.00  0.00     0.049 C 
HETATM   26  C   UNL     1      -3.916  -2.545 -33.384  1.00  0.00     0.009 A 
HETATM   27  C   UNL     1      -4.316  -1.207 -33.424  1.00  0.00     0.030 A 
ENDBRANCH  17  20
ENDBRANCH  15  16
ENDBRANCH   1  15
TORSDOF 3
ENDMDL
MODEL 3
REMARK VINA RESULT:      -7.9      3.569      5.791
REMARK  3 active torsions:
REMARK  status: ('A' for Active; 'I' for Inactive)
REMARK    1  A    between atoms: C_6  and  N_7 
REMARK       I    between atoms: N_7  and  C_8 
REMARK    2  A    between atoms: C_8  and  C_9 
REMARK    3  A    between atoms: C_9  and  C_10 
ROOT
HETATM    1  C   UNL     1      -4.942   5.349 -33.529  1.00  0.00     0.286 C 
HETATM    2  N   UNL     1      -4.662   6.056 -32.205  1.00  0.00    -0.056 N 
HETATM    3  H   UNL     1      -5.127   6.971 -32.255  1.00  0.00     0.278 HD
HETATM    4  H   UNL     1      -5.192   5.564 -31.454  1.00  0.00     0.278 HD
HETATM    5  C   UNL     1      -3.235   6.280 -31.815  1.00  0.00     0.209 C 
HETATM    6  C   UNL     1      -2.480   6.905 -33.007  1.00  0.00     0.115 C 
HETATM    7  N   UNL     1      -2.674   6.139 -34.235  1.00  0.00    -0.353 N 
HETATM    8  C   UNL     1      -3.864   5.570 -34.606  1.00  0.00     0.249 C 
HETATM    9  O   UNL     1      -4.022   5.192 -35.763  1.00  0.00    -0.271 OA
HETATM   10  C   UNL     1      -2.596   4.987 -31.310  1.00  0.00     0.035 C 
HETATM   11  C   UNL     1      -1.124   5.211 -30.970  1.00  0.00     0.002 C 
HETATM   12  C   UNL     1      -0.355   5.781 -32.161  1.00  0.00     0.002 C 
HETATM   13  C   UNL     1      -0.991   7.069 -32.685  1.00  0.00     0.027 C 
HETATM   14  H   UNL     1      -2.050   6.309 -35.023  1.00  0.00     0.163 HD
ENDROOT
BRANCH   1  15
HETATM   15  C   UNL     1      -5.203   3.836 -33.391  1.00  0.00     0.146 C 
BRANCH  15  16
HETATM   16  C   UNL     1      -6.573   3.512 -32.863  1.00  0.00     0.224 C 
HETATM   17  N   UNL     1      -7.107   2.268 -32.903  1.00  0.00    -0.327 N 
HETATM   18  H   UNL     1      -8.053   2.265 -32.528  1.00  0.00     0.169 HD
HETATM   19  O   UNL     1      -7.230   4.416 -32.327  1.00  0.00    -0.273 OA
BRANCH  17  20
HETATM   20  C   UNL     1      -6.658   1.006 -33.345  1.00  0.00     0.035 A 
HETATM   21  C   UNL     1      -5.613   0.264 -32.797  1.00  0.00     0.037 A 
HETATM   22  C   UNL     1      -5.240  -0.987 -33.335  1.00  0.00    -0.054 A 
HETATM   23  C   UNL     1      -5.960  -1.525 -34.416  1.00  0.00    -0.056 A 
HETATM   24  C   UNL     1      -4.097  -1.743 -32.707  1.00  0.00     0.049 C 
HETATM   25  C   UNL     1      -5.611  -2.859 -35.020  1.00  0.00     0.049 C 
HETATM   26  C   UNL     1      -7.010  -0.783 -34.963  1.00  0.00     0.009 A 
HETATM   27  C   UNL     1      -7.353   0.464 -34.433  1.00  0.00     0.030 A 
ENDBRANCH  17  20
ENDBRANCH  15  16
ENDBRANCH   1  15
TORSDOF 3
ENDMDL
MODEL 4
REMARK VINA RESULT:      -7.9      3.262      5.057
REMARK  3 active torsions:
REMARK  status: ('A' for Active; 'I' for Inactive)
REMARK    1  A    between atoms: C_6  and  N_7 
REMARK       I    between atoms: N_7  and  C_8 
REMARK    2  A    between atoms: C_8  and  C_9 
REMARK    3  A    between atoms: C_9  and  C_10 
ROOT
HETATM    1  C   UNL     1      -4.436   4.154 -30.882  1.00  0.00     0.286 C 
HETATM    2  N   UNL     1      -3.007   3.684 -31.142  1.00  0.00    -0.056 N 
HETATM    3  H   UNL     1      -2.533   3.663 -30.231  1.00  0.00     0.278 HD
HETATM    4  H   UNL     1      -3.039   2.677 -31.413  1.00  0.00     0.278 HD
HETATM    5  C   UNL     1      -2.164   4.481 -32.087  1.00  0.00     0.209 C 
HETATM    6  C   UNL     1      -2.250   5.973 -31.701  1.00  0.00     0.115 C 
HETATM    7  N   UNL     1      -3.633   6.422 -31.573  1.00  0.00    -0.353 N 
HETATM    8  C   UNL     1      -4.636   5.676 -31.012  1.00  0.00     0.249 C 
HETATM    9  O   UNL     1      -5.688   6.218 -30.687  1.00  0.00    -0.271 OA
HETATM   10  C   UNL     1      -2.564   4.212 -33.537  1.00  0.00     0.035 C 
HETATM   11  C   UNL     1      -1.740   5.073 -34.492  1.00  0.00     0.002 C 
HETATM   12  C   UNL     1      -1.859   6.557 -34.150  1.00  0.00     0.002 C 
HETATM   13  C   UNL     1      -1.474   6.840 -32.697  1.00  0.00     0.027 C 
HETATM   14  H   UNL     1      -3.823   7.424 -31.555  1.00  0.00     0.163 HD
ENDROOT
BRANCH   1  15
HETATM   15  C   UNL     1      -5.499   3.439 -31.737  1.00  0.00     0.146 C 
BRANCH  15  16
HETATM   16  C   UNL     1      -6.561   2.754 -30.922  1.00  0.00     0.224 C 
HETATM   17  N   UNL     1      -6.934   1.467 -31.122  1.00  0.00    -0.327 N 
HETATM   18  H   UNL     1      -7.688   1.204 -30.491  1.00  0.00     0.169 HD
HETATM   19  O   UNL     1      -7.092   3.381 -29.994  1.00  0.00    -0.273 OA
BRANCH  17  20
HETATM   20  C   UNL     1      -6.524   0.437 -31.994  1.00  0.00     0.035 A 
HETATM   21  C   UNL     1      -5.343  -0.298 -31.905  1.00  0.00     0.037 A 
HETATM   22  C   UNL     1      -5.029  -1.301 -32.848  1.00  0.00    -0.054 A 
HETATM   23  C   UNL     1      -5.941  -1.604 -33.875  1.00  0.00    -0.056 A 
HETATM   24  C   UNL     1      -3.734  -2.060 -32.708  1.00  0.00     0.049 C 
HETATM   25  C   UNL     1      -5.661  -2.670 -34.899  1.00  0.00     0.049 C 
HETATM   26  C   UNL     1      -7.127  -0.870 -33.962  1.00  0.00     0.009 A 
HETATM   27  C   UNL     1      -7.413   0.135 -33.033  1.00  0.00     0.030 A 
ENDBRANCH  17  20
ENDBRANCH  15  16
ENDBRANCH   1  15
TORSDOF 3
ENDMDL
MODEL 5
REMARK VINA RESULT:      -7.8      3.431      4.919
REMARK  3 active torsions:
REMARK  status: ('A' for Active; 'I' for Inactive)
REMARK    1  A    between atoms: C_6  and  N_7 
REMARK       I    between atoms: N_7  and  C_8 
REMARK    2  A    between atoms: C_8  and  C_9 
REMARK    3  A    between atoms: C_9  and  C_10 
ROOT
HETATM    1  C   UNL     1      -4.966   4.467 -32.173  1.00  0.00     0.286 C 
HETATM    2  N   UNL     1      -4.264   5.248 -31.064  1.00  0.00    -0.056 N 
HETATM    3  H   UNL     1      -4.943   5.935 -30.712  1.00  0.00     0.278 HD
HETATM    4  H   UNL     1      -4.130   4.611 -30.250  1.00  0.00     0.278 HD
HETATM    5  C   UNL     1      -3.002   5.976 -31.405  1.00  0.00     0.209 C 
HETATM    6  C   UNL     1      -3.233   6.811 -32.683  1.00  0.00     0.115 C 
HETATM    7  N   UNL     1      -3.798   6.007 -33.763  1.00  0.00    -0.353 N 
HETATM    8  C   UNL     1      -4.755   5.043 -33.585  1.00  0.00     0.249 C 
HETATM    9  O   UNL     1      -5.374   4.616 -34.554  1.00  0.00    -0.271 OA
HETATM   10  C   UNL     1      -1.827   5.006 -31.527  1.00  0.00     0.035 C 
HETATM   11  C   UNL     1      -0.556   5.749 -31.933  1.00  0.00     0.002 C 
HETATM   12  C   UNL     1      -0.758   6.538 -33.225  1.00  0.00     0.002 C 
HETATM   13  C   UNL     1      -1.940   7.504 -33.124  1.00  0.00     0.027 C 
HETATM   14  H   UNL     1      -3.776   6.377 -34.713  1.00  0.00     0.163 HD
ENDROOT
BRANCH   1  15
HETATM   15  C   UNL     1      -4.626   2.964 -32.194  1.00  0.00     0.146 C 
BRANCH  15  16
HETATM   16  C   UNL     1      -5.055   2.237 -30.950  1.00  0.00     0.224 C 
HETATM   17  N   UNL     1      -5.239   0.895 -30.901  1.00  0.00    -0.327 N 
HETATM   18  H   UNL     1      -5.559   0.605 -29.980  1.00  0.00     0.169 HD
HETATM   19  O   UNL     1      -5.206   2.888 -29.906  1.00  0.00    -0.273 OA
BRANCH  17  20
HETATM   20  C   UNL     1      -5.095  -0.162 -31.823  1.00  0.00     0.035 A 
HETATM   21  C   UNL     1      -6.003  -0.517 -32.820  1.00  0.00     0.037 A 
HETATM   22  C   UNL     1      -5.758  -1.610 -33.680  1.00  0.00    -0.054 A 
HETATM   23  C   UNL     1      -4.557  -2.333 -33.567  1.00  0.00    -0.056 A 
HETATM   24  C   UNL     1      -6.779  -1.954 -34.735  1.00  0.00     0.049 C 
HETATM   25  C   UNL     1      -4.243  -3.498 -34.466  1.00  0.00     0.049 C 
HETATM   26  C   UNL     1      -3.646  -1.974 -32.571  1.00  0.00     0.009 A 
HETATM   27  C   UNL     1      -3.912  -0.903 -31.714  1.00  0.00     0.030 A 
ENDBRANCH  17  20
ENDBRANCH  15  16
ENDBRANCH   1  15
TORSDOF 3
ENDMDL
MODEL 6
REMARK VINA RESULT:      -7.8      2.599      4.356
REMARK  3 active torsions:
REMARK  status: ('A' for Active; 'I' for Inactive)
REMARK    1  A    between atoms: C_6  and  N_7 
REMARK       I    between atoms: N_7  and  C_8 
REMARK    2  A    between atoms: C_8  and  C_9 
REMARK    3  A    between atoms: C_9  and  C_10 
ROOT
HETATM    1  C   UNL     1      -9.532   4.210 -32.399  1.00  0.00     0.286 C 
HETATM    2  N   UNL     1     -10.217   4.435 -33.745  1.00  0.00    -0.056 N 
HETATM    3  H   UNL     1     -10.517   5.418 -33.762  1.00  0.00     0.278 HD
HETATM    4  H   UNL     1      -9.489   4.400 -34.491  1.00  0.00     0.278 HD
HETATM    5  C   UNL     1     -11.397   3.582 -34.087  1.00  0.00     0.209 C 
HETATM    6  C   UNL     1     -12.381   3.586 -32.897  1.00  0.00     0.115 C 
HETATM    7  N   UNL     1     -11.717   3.253 -31.641  1.00  0.00    -0.353 N 
HETATM    8  C   UNL     1     -10.468   3.693 -31.291  1.00  0.00     0.249 C 
HETATM    9  O   UNL     1     -10.099   3.608 -30.123  1.00  0.00    -0.271 OA
HETATM   10  C   UNL     1     -10.956   2.177 -34.496  1.00  0.00     0.035 C 
HETATM   11  C   UNL     1     -12.170   1.296 -34.786  1.00  0.00     0.002 C 
HETATM   12  C   UNL     1     -13.126   1.252 -33.595  1.00  0.00     0.002 C 
HETATM   13  C   UNL     1     -13.566   2.652 -33.165  1.00  0.00     0.027 C 
HETATM   14  H   UNL     1     -12.289   2.995 -30.838  1.00  0.00     0.163 HD
ENDROOT
BRANCH   1  15
HETATM   15  C   UNL     1      -8.293   3.295 -32.469  1.00  0.00     0.146 C 
BRANCH  15  16
HETATM   16  C   UNL     1      -7.337   3.668 -33.567  1.00  0.00     0.224 C 
HETATM   17  N   UNL     1      -6.627   2.756 -34.274  1.00  0.00    -0.327 N 
HETATM   18  H   UNL     1      -6.015   3.212 -34.946  1.00  0.00     0.169 HD
HETATM   19  O   UNL     1      -7.222   4.864 -33.872  1.00  0.00    -0.273 OA
BRANCH  17  20
HETATM   20  C   UNL     1      -6.545   1.348 -34.280  1.00  0.00     0.035 A 
HETATM   21  C   UNL     1      -5.609   0.573 -33.596  1.00  0.00     0.037 A 
HETATM   22  C   UNL     1      -5.614  -0.836 -33.688  1.00  0.00    -0.054 A 
HETATM   23  C   UNL     1      -6.606  -1.482 -34.447  1.00  0.00    -0.056 A 
HETATM   24  C   UNL     1      -4.574  -1.623 -32.933  1.00  0.00     0.049 C 
HETATM   25  C   UNL     1      -6.663  -2.981 -34.569  1.00  0.00     0.049 C 
HETATM   26  C   UNL     1      -7.546  -0.706 -35.129  1.00  0.00     0.009 A 
HETATM   27  C   UNL     1      -7.515   0.688 -35.045  1.00  0.00     0.030 A 
ENDBRANCH  17  20
ENDBRANCH  15  16
ENDBRANCH   1  15
TORSDOF 3
ENDMDL
MODEL 7
REMARK VINA RESULT:      -7.7      2.175      3.393
REMARK  3 active torsions:
REMARK  status: ('A' for Active; 'I' for Inactive)
REMARK    1  A    between atoms: C_6  and  N_7 
REMARK       I    between atoms: N_7  and  C_8 
REMARK    2  A    between atoms: C_8  and  C_9 
REMARK    3  A    between atoms: C_9  and  C_10 
ROOT
HETATM    1  C   UNL     1      -7.522   1.195 -31.667  1.00  0.00     0.286 C 
HETATM    2  N   UNL     1      -7.289   2.123 -30.477  1.00  0.00    -0.056 N 
HETATM    3  H   UNL     1      -7.390   1.549 -29.630  1.00  0.00     0.278 HD
HETATM    4  H   UNL     1      -6.280   2.387 -30.461  1.00  0.00     0.278 HD
HETATM    5  C   UNL     1      -8.173   3.321 -30.334  1.00  0.00     0.209 C 
HETATM    6  C   UNL     1      -9.645   2.879 -30.479  1.00  0.00     0.115 C 
HETATM    7  N   UNL     1      -9.859   2.090 -31.689  1.00  0.00    -0.353 N 
HETATM    8  C   UNL     1      -8.979   1.151 -32.160  1.00  0.00     0.249 C 
HETATM    9  O   UNL     1      -9.350   0.343 -33.006  1.00  0.00    -0.271 OA
HETATM   10  C   UNL     1      -7.775   4.416 -31.323  1.00  0.00     0.035 C 
HETATM   11  C   UNL     1      -8.719   5.611 -31.212  1.00  0.00     0.002 C 
HETATM   12  C   UNL     1     -10.175   5.193 -31.406  1.00  0.00     0.002 C 
HETATM   13  C   UNL     1     -10.586   4.088 -30.431  1.00  0.00     0.027 C 
HETATM   14  H   UNL     1     -10.813   1.943 -32.016  1.00  0.00     0.163 HD
ENDROOT
BRANCH   1  15
HETATM   15  C   UNL     1      -6.598   1.470 -32.869  1.00  0.00     0.146 C 
BRANCH  15  16
HETATM   16  C   UNL     1      -5.141   1.263 -32.563  1.00  0.00     0.224 C 
HETATM   17  N   UNL     1      -4.481   0.114 -32.844  1.00  0.00    -0.327 N 
HETATM   18  H   UNL     1      -3.514   0.162 -32.530  1.00  0.00     0.169 HD
HETATM   19  O   UNL     1      -4.500   2.201 -32.069  1.00  0.00    -0.273 OA
BRANCH  17  20
HETATM   20  C   UNL     1      -4.829  -1.109 -33.455  1.00  0.00     0.035 A 
HETATM   21  C   UNL     1      -4.117  -2.305 -33.371  1.00  0.00     0.037 A 
HETATM   22  C   UNL     1      -4.555  -3.469 -34.041  1.00  0.00    -0.054 A 
HETATM   23  C   UNL     1      -5.756  -3.443 -34.772  1.00  0.00    -0.056 A 
HETATM   24  C   UNL     1      -3.742  -4.732 -33.922  1.00  0.00     0.049 C 
HETATM   25  C   UNL     1      -6.273  -4.658 -35.494  1.00  0.00     0.049 C 
HETATM   26  C   UNL     1      -6.471  -2.246 -34.853  1.00  0.00     0.009 A 
HETATM   27  C   UNL     1      -6.013  -1.097 -34.202  1.00  0.00     0.030 A 
ENDBRANCH  17  20
ENDBRANCH  15  16
ENDBRANCH   1  15
TORSDOF 3
ENDMDL
MODEL 8
REMARK VINA RESULT:      -7.6      3.226      5.332
REMARK  3 active torsions:
REMARK  status: ('A' for Active; 'I' for Inactive)
REMARK    1  A    between atoms: C_6  and  N_7 
REMARK       I    between atoms: N_7  and  C_8 
REMARK    2  A    between atoms: C_8  and  C_9 
REMARK    3  A    between atoms: C_9  and  C_10 
ROOT
HETATM    1  C   UNL     1      -3.561   3.262 -31.264  1.00  0.00     0.286 C 
HETATM    2  N   UNL     1      -2.248   3.969 -30.934  1.00  0.00    -0.056 N 
HETATM    3  H   UNL     1      -2.297   4.236 -29.943  1.00  0.00     0.278 HD
HETATM    4  H   UNL     1      -1.483   3.260 -30.949  1.00  0.00     0.278 HD
HETATM    5  C   UNL     1      -1.885   5.186 -31.725  1.00  0.00     0.209 C 
HETATM    6  C   UNL     1      -3.096   6.142 -31.760  1.00  0.00     0.115 C 
HETATM    7  N   UNL     1      -4.313   5.462 -32.191  1.00  0.00    -0.353 N 
HETATM    8  C   UNL     1      -4.659   4.190 -31.815  1.00  0.00     0.249 C 
HETATM    9  O   UNL     1      -5.810   3.799 -31.983  1.00  0.00    -0.271 OA
HETATM   10  C   UNL     1      -1.381   4.804 -33.117  1.00  0.00     0.035 C 
HETATM   11  C   UNL     1      -1.070   6.053 -33.938  1.00  0.00     0.002 C 
HETATM   12  C   UNL     1      -2.278   6.983 -34.022  1.00  0.00     0.002 C 
HETATM   13  C   UNL     1      -2.802   7.364 -32.637  1.00  0.00     0.027 C 
HETATM   14  H   UNL     1      -5.114   6.024 -32.479  1.00  0.00     0.163 HD
ENDROOT
BRANCH   1  15
HETATM   15  C   UNL     1      -3.406   2.058 -32.213  1.00  0.00     0.146 C 
BRANCH  15  16
HETATM   16  C   UNL     1      -3.477   0.731 -31.511  1.00  0.00     0.224 C 
HETATM   17  N   UNL     1      -4.593  -0.037 -31.488  1.00  0.00    -0.327 N 
HETATM   18  H   UNL     1      -4.446  -0.878 -30.935  1.00  0.00     0.169 HD
HETATM   19  O   UNL     1      -2.455   0.295 -30.962  1.00  0.00    -0.273 OA
BRANCH  17  20
HETATM   20  C   UNL     1      -5.886   0.071 -32.043  1.00  0.00     0.035 A 
HETATM   21  C   UNL     1      -6.221  -0.073 -33.389  1.00  0.00     0.037 A 
HETATM   22  C   UNL     1      -7.553   0.072 -33.833  1.00  0.00    -0.054 A 
HETATM   23  C   UNL     1      -8.577   0.321 -32.901  1.00  0.00    -0.056 A 
HETATM   24  C   UNL     1      -7.857  -0.086 -35.301  1.00  0.00     0.049 C 
HETATM   25  C   UNL     1     -10.014   0.472 -33.321  1.00  0.00     0.049 C 
HETATM   26  C   UNL     1      -8.242   0.461 -31.552  1.00  0.00     0.009 A 
HETATM   27  C   UNL     1      -6.915   0.336 -31.131  1.00  0.00     0.030 A 
ENDBRANCH  17  20
ENDBRANCH  15  16
ENDBRANCH   1  15
TORSDOF 3
ENDMDL
MODEL 9
REMARK VINA RESULT:      -7.5      2.057      2.865
REMARK  3 active torsions:
REMARK  status: ('A' for Active; 'I' for Inactive)
REMARK    1  A    between atoms: C_6  and  N_7 
REMARK       I    between atoms: N_7  and  C_8 
REMARK    2  A    between atoms: C_8  and  C_9 
REMARK    3  A    between atoms: C_9  and  C_10 
ROOT
HETATM    1  C   UNL     1      -5.960   1.436 -30.573  1.00  0.00     0.286 C 
HETATM    2  N   UNL     1      -5.586   2.626 -29.692  1.00  0.00    -0.056 N 
HETATM    3  H   UNL     1      -5.651   2.304 -28.718  1.00  0.00     0.278 HD
HETATM    4  H   UNL     1      -4.567   2.813 -29.811  1.00  0.00     0.278 HD
HETATM    5  C   UNL     1      -6.393   3.879 -29.821  1.00  0.00     0.209 C 
HETATM    6  C   UNL     1      -7.893   3.521 -29.752  1.00  0.00     0.115 C 
HETATM    7  N   UNL     1      -8.242   2.458 -30.690  1.00  0.00    -0.353 N 
HETATM    8  C   UNL     1      -7.452   1.368 -30.946  1.00  0.00     0.249 C 
HETATM    9  O   UNL     1      -7.929   0.393 -31.520  1.00  0.00    -0.271 OA
HETATM   10  C   UNL     1      -6.017   4.644 -31.090  1.00  0.00     0.035 C 
HETATM   11  C   UNL     1      -6.887   5.890 -31.246  1.00  0.00     0.002 C 
HETATM   12  C   UNL     1      -8.374   5.540 -31.230  1.00  0.00     0.002 C 
HETATM   13  C   UNL     1      -8.763   4.763 -29.971  1.00  0.00     0.027 C 
HETATM   14  H   UNL     1      -9.225   2.298 -30.906  1.00  0.00     0.163 HD
ENDROOT
BRANCH   1  15
HETATM   15  C   UNL     1      -5.121   1.319 -31.860  1.00  0.00     0.146 C 
BRANCH  15  16
HETATM   16  C   UNL     1      -3.653   1.125 -31.600  1.00  0.00     0.224 C 
HETATM   17  N   UNL     1      -2.998  -0.030 -31.872  1.00  0.00    -0.327 N 
HETATM   18  H   UNL     1      -2.021   0.031 -31.594  1.00  0.00     0.169 HD
HETATM   19  O   UNL     1      -2.998   2.079 -31.156  1.00  0.00    -0.273 OA
BRANCH  17  20
HETATM   20  C   UNL     1      -3.362  -1.271 -32.435  1.00  0.00     0.035 A 
HETATM   21  C   UNL     1      -4.163  -1.463 -33.560  1.00  0.00     0.037 A 
HETATM   22  C   UNL     1      -4.474  -2.759 -34.026  1.00  0.00    -0.054 A 
HETATM   23  C   UNL     1      -3.935  -3.884 -33.377  1.00  0.00    -0.056 A 
HETATM   24  C   UNL     1      -5.352  -2.908 -35.244  1.00  0.00     0.049 C 
HETATM   25  C   UNL     1      -4.226  -5.286 -33.840  1.00  0.00     0.049 C 
HETATM   26  C   UNL     1      -3.129  -3.691 -32.252  1.00  0.00     0.009 A 
HETATM   27  C   UNL     1      -2.847  -2.402 -31.790  1.00  0.00     0.030 A 
ENDBRANCH  17  20
ENDBRANCH  15  16
ENDBRANCH   1  15
TORSDOF 3
ENDMDL
MODEL 10
REMARK VINA RESULT:      -7.4     14.298     16.294
REMARK  3 active torsions:
REMARK  status: ('A' for Active; 'I' for Inactive)
REMARK    1  A    between atoms: C_6  and  N_7 
REMARK       I    between atoms: N_7  and  C_8 
REMARK    2  A    between atoms: C_8  and  C_9 
REMARK    3  A    between atoms: C_9  and  C_10 
ROOT
HETATM    1  C   UNL     1      -4.122 -13.680 -37.812  1.00  0.00     0.286 C 
HETATM    2  N   UNL     1      -4.491 -15.037 -38.407  1.00  0.00    -0.056 N 
HETATM    3  H   UNL     1      -3.771 -15.701 -38.096  1.00  0.00     0.278 HD
HETATM    4  H   UNL     1      -5.350 -15.381 -37.926  1.00  0.00     0.278 HD
HETATM    5  C   UNL     1      -4.612 -15.145 -39.894  1.00  0.00     0.209 C 
HETATM    6  C   UNL     1      -3.362 -14.517 -40.547  1.00  0.00     0.115 C 
HETATM    7  N   UNL     1      -3.102 -13.172 -40.040  1.00  0.00    -0.353 N 
HETATM    8  C   UNL     1      -3.254 -12.801 -38.730  1.00  0.00     0.249 C 
HETATM    9  O   UNL     1      -2.755 -11.751 -38.335  1.00  0.00    -0.271 OA
HETATM   10  C   UNL     1      -5.920 -14.525 -40.383  1.00  0.00     0.035 C 
HETATM   11  C   UNL     1      -6.008 -14.585 -41.907  1.00  0.00     0.002 C 
HETATM   12  C   UNL     1      -4.800 -13.920 -42.563  1.00  0.00     0.002 C 
HETATM   13  C   UNL     1      -3.482 -14.522 -42.074  1.00  0.00     0.027 C 
HETATM   14  H   UNL     1      -2.458 -12.571 -40.554  1.00  0.00     0.163 HD
ENDROOT
BRANCH   1  15
HETATM   15  C   UNL     1      -5.331 -12.855 -37.331  1.00  0.00     0.146 C 
BRANCH  15  16
HETATM   16  C   UNL     1      -6.151 -13.552 -36.282  1.00  0.00     0.224 C 
HETATM   17  N   UNL     1      -7.389 -14.051 -36.520  1.00  0.00    -0.327 N 
HETATM   18  H   UNL     1      -7.788 -14.453 -35.674  1.00  0.00     0.169 HD
HETATM   19  O   UNL     1      -5.658 -13.719 -35.158  1.00  0.00    -0.273 OA
BRANCH  17  20
HETATM   20  C   UNL     1      -8.230 -14.127 -37.649  1.00  0.00     0.035 A 
HETATM   21  C   UNL     1      -8.746 -13.050 -38.368  1.00  0.00     0.037 A 
HETATM   22  C   UNL     1      -9.595 -13.248 -39.479  1.00  0.00    -0.054 A 
HETATM   23  C   UNL     1      -9.895 -14.554 -39.904  1.00  0.00    -0.056 A 
HETATM   24  C   UNL     1     -10.131 -12.047 -40.215  1.00  0.00     0.049 C 
HETATM   25  C   UNL     1     -10.785 -14.821 -41.088  1.00  0.00     0.049 C 
HETATM   26  C   UNL     1      -9.375 -15.634 -39.186  1.00  0.00     0.009 A 
HETATM   27  C   UNL     1      -8.554 -15.421 -38.075  1.00  0.00     0.030 A 
ENDBRANCH  17  20
ENDBRANCH  15  16
ENDBRANCH   1  15
TORSDOF 3
ENDMDL
