MODEL 1
REMARK VINA RESULT:      -9.0      0.000      0.000
REMARK  5 active torsions:
REMARK  status: ('A' for Active; 'I' for Inactive)
REMARK    1  A    between atoms: C_5  and  C_6 
REMARK    2  A    between atoms: C_10  and  C_11 
REMARK       I    between atoms: C_11  and  N_12 
REMARK    3  A    between atoms: N_12  and  C_13 
REMARK    4  A    between atoms: C_14  and  C_15 
REMARK       I    between atoms: C_15  and  N_16 
REMARK    5  A    between atoms: N_16  and  C_17 
ROOT
HETATM    1  C   UNL     1      -3.541   2.871 -31.298  1.00  0.00     0.274 C 
HETATM    2  N   UNL     1      -4.701   3.583 -31.079  1.00  0.00    -0.321 N 
HETATM    3  O   UNL     1      -2.408   3.323 -31.224  1.00  0.00    -0.266 OA
HETATM    4  H   UNL     1      -5.496   3.036 -30.784  1.00  0.00     0.169 HD
ENDROOT
BRANCH   1   5
HETATM    5  C   UNL     1      -3.781   1.489 -31.632  1.00  0.00     0.120 A 
HETATM    6  N   UNL     1      -3.012   0.472 -31.135  1.00  0.00    -0.272 N 
HETATM    7  N   UNL     1      -3.283  -0.731 -31.671  1.00  0.00    -0.174 NA
HETATM    8  H   UNL     1      -2.252   0.555 -30.466  1.00  0.00     0.189 HD
HETATM    9  C   UNL     1      -4.294  -0.501 -32.521  1.00  0.00     0.089 A 
HETATM   10  C   UNL     1      -4.656   0.873 -32.503  1.00  0.00     0.071 A 
BRANCH   9  11
HETATM   11  C   UNL     1      -4.857  -1.535 -33.385  1.00  0.00    -0.006 A 
HETATM   12  C   UNL     1      -4.119  -2.688 -33.689  1.00  0.00     0.014 A 
HETATM   13  C   UNL     1      -4.694  -3.723 -34.431  1.00  0.00     0.007 A 
HETATM   14  C   UNL     1      -6.013  -3.620 -34.887  1.00  0.00    -0.062 A 
HETATM   15  C   UNL     1      -6.652  -4.763 -35.620  1.00  0.00     0.048 C 
HETATM   16  C   UNL     1      -6.748  -2.466 -34.591  1.00  0.00     0.007 A 
HETATM   17  C   UNL     1      -6.171  -1.427 -33.855  1.00  0.00     0.014 A 
ENDBRANCH   9  11
ENDBRANCH   1   5
BRANCH   2  18
HETATM   18  C   UNL     1      -4.883   4.983 -31.078  1.00  0.00     0.050 A 
HETATM   19  C   UNL     1      -4.976   5.831 -32.194  1.00  0.00     0.058 A 
HETATM   20  C   UNL     1      -5.133   7.220 -32.004  1.00  0.00     0.019 A 
HETATM   21  C   UNL     1      -5.249   7.764 -30.726  1.00  0.00     0.001 A 
HETATM   22  C   UNL     1      -5.212   6.925 -29.621  1.00  0.00     0.002 A 
HETATM   23  C   UNL     1      -5.034   5.550 -29.797  1.00  0.00     0.030 A 
BRANCH  19  24
HETATM   24  C   UNL     1      -5.019   5.421 -33.616  1.00  0.00     0.254 C 
HETATM   25  N   UNL     1      -3.852   5.216 -34.318  1.00  0.00    -0.352 N 
HETATM   26  H   UNL     1      -4.025   4.923 -35.274  1.00  0.00     0.163 HD
HETATM   27  O   UNL     1      -6.102   5.141 -34.129  1.00  0.00    -0.268 OA
BRANCH  25  28
HETATM   28  C   UNL     1      -2.501   5.353 -33.891  1.00  0.00     0.084 A 
HETATM   29  C   UNL     1      -1.337   5.432 -34.838  1.00  0.00     0.027 A 
HETATM   30  C   UNL     1      -1.790   6.663 -34.112  1.00  0.00     0.027 A 
ENDBRANCH  25  28
ENDBRANCH  19  24
ENDBRANCH   2  18
TORSDOF 5
ENDMDL
MODEL 2
REMARK VINA RESULT:      -8.9      2.234      3.380
REMARK  5 active torsions:
REMARK  status: ('A' for Active; 'I' for Inactive)
REMARK    1  A    between atoms: C_5  and  C_6 
REMARK    2  A    between atoms: C_10  and  C_11 
REMARK       I    between atoms: C_11  and  N_12 
REMARK    3  A    between atoms: N_12  and  C_13 
REMARK    4  A    between atoms: C_14  and  C_15 
REMARK       I    between atoms: C_15  and  N_16 
REMARK    5  A    between atoms: N_16  and  C_17 
ROOT
HETATM    1  C   UNL     1      -3.165   2.856 -31.702  1.00  0.00     0.274 C 
HETATM    2  N   UNL     1      -3.518   3.901 -32.529  1.00  0.00    -0.321 N 
HETATM    3  O   UNL     1      -2.259   2.877 -30.881  1.00  0.00    -0.266 OA
HETATM    4  H   UNL     1      -4.477   3.900 -32.844  1.00  0.00     0.169 HD
ENDROOT
BRANCH   1   5
HETATM    5  C   UNL     1      -3.987   1.686 -31.888  1.00  0.00     0.120 A 
HETATM    6  N   UNL     1      -4.671   1.102 -30.857  1.00  0.00    -0.272 N 
HETATM    7  N   UNL     1      -5.259  -0.063 -31.181  1.00  0.00    -0.174 NA
HETATM    8  H   UNL     1      -4.723   1.430 -29.897  1.00  0.00     0.189 HD
HETATM    9  C   UNL     1      -4.986  -0.227 -32.484  1.00  0.00     0.089 A 
HETATM   10  C   UNL     1      -4.216   0.863 -32.972  1.00  0.00     0.071 A 
BRANCH   9  11
HETATM   11  C   UNL     1      -5.376  -1.418 -33.234  1.00  0.00    -0.006 A 
HETATM   12  C   UNL     1      -6.692  -1.572 -33.693  1.00  0.00     0.014 A 
HETATM   13  C   UNL     1      -7.040  -2.661 -34.496  1.00  0.00     0.007 A 
HETATM   14  C   UNL     1      -6.081  -3.618 -34.847  1.00  0.00    -0.062 A 
HETATM   15  C   UNL     1      -6.440  -4.745 -35.770  1.00  0.00     0.048 C 
HETATM   16  C   UNL     1      -4.770  -3.470 -34.383  1.00  0.00     0.007 A 
HETATM   17  C   UNL     1      -4.422  -2.384 -33.573  1.00  0.00     0.014 A 
ENDBRANCH   9  11
ENDBRANCH   1   5
BRANCH   2  18
HETATM   18  C   UNL     1      -2.757   5.039 -32.877  1.00  0.00     0.050 A 
HETATM   19  C   UNL     1      -2.547   6.193 -32.104  1.00  0.00     0.058 A 
HETATM   20  C   UNL     1      -1.774   7.251 -32.625  1.00  0.00     0.019 A 
HETATM   21  C   UNL     1      -1.171   7.153 -33.878  1.00  0.00     0.001 A 
HETATM   22  C   UNL     1      -1.331   5.995 -34.624  1.00  0.00     0.002 A 
HETATM   23  C   UNL     1      -2.113   4.949 -34.127  1.00  0.00     0.030 A 
BRANCH  19  24
HETATM   24  C   UNL     1      -2.983   6.412 -30.706  1.00  0.00     0.254 C 
HETATM   25  N   UNL     1      -2.074   6.345 -29.673  1.00  0.00    -0.352 N 
HETATM   26  H   UNL     1      -2.502   6.532 -28.772  1.00  0.00     0.163 HD
HETATM   27  O   UNL     1      -4.136   6.782 -30.486  1.00  0.00    -0.268 OA
BRANCH  25  28
HETATM   28  C   UNL     1      -0.679   6.065 -29.710  1.00  0.00     0.084 A 
HETATM   29  C   UNL     1       0.382   7.121 -29.579  1.00  0.00     0.027 A 
HETATM   30  C   UNL     1       0.127   6.178 -28.442  1.00  0.00     0.027 A 
ENDBRANCH  25  28
ENDBRANCH  19  24
ENDBRANCH   2  18
TORSDOF 5
ENDMDL
MODEL 3
REMARK VINA RESULT:      -8.8      1.915      2.993
REMARK  5 active torsions:
REMARK  status: ('A' for Active; 'I' for Inactive)
REMARK    1  A    between atoms: C_5  and  C_6 
REMARK    2  A    between atoms: C_10  and  C_11 
REMARK       I    between atoms: C_11  and  N_12 
REMARK    3  A    between atoms: N_12  and  C_13 
REMARK    4  A    between atoms: C_14  and  C_15 
REMARK       I    between atoms: C_15  and  N_16 
REMARK    5  A    between atoms: N_16  and  C_17 
ROOT
HETATM    1  C   UNL     1      -3.508   3.310 -31.457  1.00  0.00     0.274 C 
HETATM    2  N   UNL     1      -2.352   3.748 -32.066  1.00  0.00    -0.321 N 
HETATM    3  O   UNL     1      -4.250   3.995 -30.767  1.00  0.00    -0.266 OA
HETATM    4  H   UNL     1      -2.072   3.233 -32.888  1.00  0.00     0.169 HD
ENDROOT
BRANCH   1   5
HETATM    5  C   UNL     1      -3.789   1.918 -31.713  1.00  0.00     0.120 A 
HETATM    6  N   UNL     1      -3.104   0.909 -31.094  1.00  0.00    -0.272 N 
HETATM    7  N   UNL     1      -3.393  -0.318 -31.565  1.00  0.00    -0.174 NA
HETATM    8  H   UNL     1      -2.389   1.007 -30.379  1.00  0.00     0.189 HD
HETATM    9  C   UNL     1      -4.332  -0.106 -32.499  1.00  0.00     0.089 A 
HETATM   10  C   UNL     1      -4.630   1.280 -32.601  1.00  0.00     0.071 A 
BRANCH   9  11
HETATM   11  C   UNL     1      -4.881  -1.175 -33.329  1.00  0.00    -0.006 A 
HETATM   12  C   UNL     1      -4.148  -2.349 -33.556  1.00  0.00     0.014 A 
HETATM   13  C   UNL     1      -4.715  -3.412 -34.264  1.00  0.00     0.007 A 
HETATM   14  C   UNL     1      -6.018  -3.318 -34.764  1.00  0.00    -0.062 A 
HETATM   15  C   UNL     1      -6.649  -4.487 -35.460  1.00  0.00     0.048 C 
HETATM   16  C   UNL     1      -6.747  -2.143 -34.545  1.00  0.00     0.007 A 
HETATM   17  C   UNL     1      -6.179  -1.076 -33.843  1.00  0.00     0.014 A 
ENDBRANCH   9  11
ENDBRANCH   1   5
BRANCH   2  18
HETATM   18  C   UNL     1      -1.590   4.901 -31.774  1.00  0.00     0.050 A 
HETATM   19  C   UNL     1      -1.787   6.201 -32.270  1.00  0.00     0.058 A 
HETATM   20  C   UNL     1      -0.906   7.234 -31.887  1.00  0.00     0.019 A 
HETATM   21  C   UNL     1       0.129   7.001 -30.984  1.00  0.00     0.001 A 
HETATM   22  C   UNL     1       0.296   5.731 -30.450  1.00  0.00     0.002 A 
HETATM   23  C   UNL     1      -0.557   4.695 -30.838  1.00  0.00     0.030 A 
BRANCH  19  24
HETATM   24  C   UNL     1      -2.909   6.664 -33.116  1.00  0.00     0.254 C 
HETATM   25  N   UNL     1      -4.061   7.155 -32.540  1.00  0.00    -0.352 N 
HETATM   26  H   UNL     1      -4.740   7.451 -33.233  1.00  0.00     0.163 HD
HETATM   27  O   UNL     1      -2.757   6.728 -34.336  1.00  0.00    -0.268 OA
BRANCH  25  28
HETATM   28  C   UNL     1      -4.398   7.293 -31.164  1.00  0.00     0.084 A 
HETATM   29  C   UNL     1      -4.027   8.491 -30.338  1.00  0.00     0.027 A 
HETATM   30  C   UNL     1      -5.451   8.294 -30.763  1.00  0.00     0.027 A 
ENDBRANCH  25  28
ENDBRANCH  19  24
ENDBRANCH   2  18
TORSDOF 5
ENDMDL
MODEL 4
REMARK VINA RESULT:      -8.7      3.051      3.778
REMARK  5 active torsions:
REMARK  status: ('A' for Active; 'I' for Inactive)
REMARK    1  A    between atoms: C_5  and  C_6 
REMARK    2  A    between atoms: C_10  and  C_11 
REMARK       I    between atoms: C_11  and  N_12 
REMARK    3  A    between atoms: N_12  and  C_13 
REMARK    4  A    between atoms: C_14  and  C_15 
REMARK       I    between atoms: C_15  and  N_16 
REMARK    5  A    between atoms: N_16  and  C_17 
ROOT
HETATM    1  C   UNL     1      -2.823   3.640 -32.360  1.00  0.00     0.274 C 
HETATM    2  N   UNL     1      -2.885   4.364 -31.189  1.00  0.00    -0.321 N 
HETATM    3  O   UNL     1      -2.299   4.015 -33.399  1.00  0.00    -0.266 OA
HETATM    4  H   UNL     1      -2.971   3.818 -30.345  1.00  0.00     0.169 HD
ENDROOT
BRANCH   1   5
HETATM    5  C   UNL     1      -3.452   2.346 -32.258  1.00  0.00     0.120 A 
HETATM    6  N   UNL     1      -3.324   1.556 -31.147  1.00  0.00    -0.272 N 
HETATM    7  N   UNL     1      -3.848   0.326 -31.288  1.00  0.00    -0.174 NA
HETATM    8  H   UNL     1      -2.841   1.791 -30.286  1.00  0.00     0.189 HD
HETATM    9  C   UNL     1      -4.375   0.323 -32.521  1.00  0.00     0.089 A 
HETATM   10  C   UNL     1      -4.174   1.581 -33.151  1.00  0.00     0.071 A 
BRANCH   9  11
HETATM   11  C   UNL     1      -4.987  -0.860 -33.121  1.00  0.00    -0.006 A 
HETATM   12  C   UNL     1      -6.361  -0.890 -33.394  1.00  0.00     0.014 A 
HETATM   13  C   UNL     1      -6.928  -1.980 -34.061  1.00  0.00     0.007 A 
HETATM   14  C   UNL     1      -6.132  -3.060 -34.458  1.00  0.00    -0.062 A 
HETATM   15  C   UNL     1      -6.729  -4.194 -35.238  1.00  0.00     0.048 C 
HETATM   16  C   UNL     1      -4.761  -3.034 -34.179  1.00  0.00     0.007 A 
HETATM   17  C   UNL     1      -4.194  -1.948 -33.506  1.00  0.00     0.014 A 
ENDBRANCH   9  11
ENDBRANCH   1   5
BRANCH   2  18
HETATM   18  C   UNL     1      -2.703   5.753 -31.007  1.00  0.00     0.050 A 
HETATM   19  C   UNL     1      -1.527   6.414 -30.613  1.00  0.00     0.058 A 
HETATM   20  C   UNL     1      -1.535   7.815 -30.455  1.00  0.00     0.019 A 
HETATM   21  C   UNL     1      -2.676   8.565 -30.732  1.00  0.00     0.001 A 
HETATM   22  C   UNL     1      -3.825   7.924 -31.172  1.00  0.00     0.002 A 
HETATM   23  C   UNL     1      -3.836   6.534 -31.311  1.00  0.00     0.030 A 
BRANCH  19  24
HETATM   24  C   UNL     1      -0.193   5.804 -30.417  1.00  0.00     0.254 C 
HETATM   25  N   UNL     1       0.570   6.133 -29.318  1.00  0.00    -0.352 N 
HETATM   26  H   UNL     1       1.452   5.632 -29.299  1.00  0.00     0.163 HD
HETATM   27  O   UNL     1       0.176   4.906 -31.174  1.00  0.00    -0.268 OA
BRANCH  25  28
HETATM   28  C   UNL     1       0.288   7.039 -28.257  1.00  0.00     0.084 A 
HETATM   29  C   UNL     1       1.114   7.133 -27.006  1.00  0.00     0.027 A 
HETATM   30  C   UNL     1       1.200   8.218 -28.036  1.00  0.00     0.027 A 
ENDBRANCH  25  28
ENDBRANCH  19  24
ENDBRANCH   2  18
TORSDOF 5
ENDMDL
MODEL 5
REMARK VINA RESULT:      -8.5      2.279      2.901
REMARK  5 active torsions:
REMARK  status: ('A' for Active; 'I' for Inactive)
REMARK    1  A    between atoms: C_5  and  C_6 
REMARK    2  A    between atoms: C_10  and  C_11 
REMARK       I    between atoms: C_11  and  N_12 
REMARK    3  A    between atoms: N_12  and  C_13 
REMARK    4  A    between atoms: C_14  and  C_15 
REMARK       I    between atoms: C_15  and  N_16 
REMARK    5  A    between atoms: N_16  and  C_17 
ROOT
HETATM    1  C   UNL     1      -4.874   4.675 -32.907  1.00  0.00     0.274 C 
HETATM    2  N   UNL     1      -3.923   5.302 -32.132  1.00  0.00    -0.321 N 
HETATM    3  O   UNL     1      -5.698   5.238 -33.613  1.00  0.00    -0.266 OA
HETATM    4  H   UNL     1      -3.096   4.758 -31.935  1.00  0.00     0.169 HD
ENDROOT
BRANCH   1   5
HETATM    5  C   UNL     1      -4.815   3.236 -32.819  1.00  0.00     0.120 A 
HETATM    6  N   UNL     1      -3.762   2.581 -32.241  1.00  0.00    -0.272 N 
HETATM    7  N   UNL     1      -3.804   1.244 -32.384  1.00  0.00    -0.174 NA
HETATM    8  H   UNL     1      -2.961   3.003 -31.781  1.00  0.00     0.189 HD
HETATM    9  C   UNL     1      -4.948   1.013 -33.045  1.00  0.00     0.089 A 
HETATM   10  C   UNL     1      -5.626   2.233 -33.310  1.00  0.00     0.071 A 
BRANCH   9  11
HETATM   11  C   UNL     1      -5.356  -0.319 -33.483  1.00  0.00    -0.006 A 
HETATM   12  C   UNL     1      -6.690  -0.577 -33.831  1.00  0.00     0.014 A 
HETATM   13  C   UNL     1      -7.060  -1.823 -34.347  1.00  0.00     0.007 A 
HETATM   14  C   UNL     1      -6.106  -2.832 -34.516  1.00  0.00    -0.062 A 
HETATM   15  C   UNL     1      -6.491  -4.141 -35.138  1.00  0.00     0.048 C 
HETATM   16  C   UNL     1      -4.776  -2.578 -34.162  1.00  0.00     0.007 A 
HETATM   17  C   UNL     1      -4.406  -1.335 -33.639  1.00  0.00     0.014 A 
ENDBRANCH   9  11
ENDBRANCH   1   5
BRANCH   2  18
HETATM   18  C   UNL     1      -3.893   6.646 -31.698  1.00  0.00     0.050 A 
HETATM   19  C   UNL     1      -2.893   7.600 -31.947  1.00  0.00     0.058 A 
HETATM   20  C   UNL     1      -3.018   8.898 -31.409  1.00  0.00     0.019 A 
HETATM   21  C   UNL     1      -4.142   9.268 -30.673  1.00  0.00     0.001 A 
HETATM   22  C   UNL     1      -5.158   8.346 -30.468  1.00  0.00     0.002 A 
HETATM   23  C   UNL     1      -5.035   7.051 -30.978  1.00  0.00     0.030 A 
BRANCH  19  24
HETATM   24  C   UNL     1      -1.709   7.433 -32.820  1.00  0.00     0.254 C 
HETATM   25  N   UNL     1      -0.640   6.669 -32.406  1.00  0.00    -0.352 N 
HETATM   26  H   UNL     1       0.094   6.626 -33.106  1.00  0.00     0.163 HD
HETATM   27  O   UNL     1      -1.741   7.875 -33.968  1.00  0.00    -0.268 OA
BRANCH  25  28
HETATM   28  C   UNL     1      -0.447   5.966 -31.184  1.00  0.00     0.084 A 
HETATM   29  C   UNL     1       0.839   5.284 -30.814  1.00  0.00     0.027 A 
HETATM   30  C   UNL     1       0.450   6.559 -30.129  1.00  0.00     0.027 A 
ENDBRANCH  25  28
ENDBRANCH  19  24
ENDBRANCH   2  18
TORSDOF 5
ENDMDL
MODEL 6
REMARK VINA RESULT:      -8.5      5.562      6.913
REMARK  5 active torsions:
REMARK  status: ('A' for Active; 'I' for Inactive)
REMARK    1  A    between atoms: C_5  and  C_6 
REMARK    2  A    between atoms: C_10  and  C_11 
REMARK       I    between atoms: C_11  and  N_12 
REMARK    3  A    between atoms: N_12  and  C_13 
REMARK    4  A    between atoms: C_14  and  C_15 
REMARK       I    between atoms: C_15  and  N_16 
REMARK    5  A    between atoms: N_16  and  C_17 
ROOT
HETATM    1  C   UNL     1      -8.649   2.845 -33.418  1.00  0.00     0.274 C 
HETATM    2  N   UNL     1      -9.897   2.590 -32.892  1.00  0.00    -0.321 N 
HETATM    3  O   UNL     1      -8.096   3.935 -33.436  1.00  0.00    -0.266 OA
HETATM    4  H   UNL     1     -10.054   1.641 -32.587  1.00  0.00     0.169 HD
ENDROOT
BRANCH   1   5
HETATM    5  C   UNL     1      -8.017   1.671 -33.967  1.00  0.00     0.120 A 
HETATM    6  N   UNL     1      -8.545   0.983 -35.026  1.00  0.00    -0.272 N 
HETATM    7  N   UNL     1      -7.906  -0.167 -35.304  1.00  0.00    -0.174 NA
HETATM    8  H   UNL     1      -9.373   1.229 -35.560  1.00  0.00     0.189 HD
HETATM    9  C   UNL     1      -6.898  -0.214 -34.421  1.00  0.00     0.089 A 
HETATM   10  C   UNL     1      -6.914   0.934 -33.585  1.00  0.00     0.071 A 
BRANCH   9  11
HETATM   11  C   UNL     1      -5.985  -1.350 -34.318  1.00  0.00    -0.006 A 
HETATM   12  C   UNL     1      -4.823  -1.261 -33.539  1.00  0.00     0.014 A 
HETATM   13  C   UNL     1      -4.003  -2.379 -33.358  1.00  0.00     0.007 A 
HETATM   14  C   UNL     1      -4.328  -3.601 -33.957  1.00  0.00    -0.062 A 
HETATM   15  C   UNL     1      -3.488  -4.816 -33.701  1.00  0.00     0.048 C 
HETATM   16  C   UNL     1      -5.484  -3.688 -34.741  1.00  0.00     0.007 A 
HETATM   17  C   UNL     1      -6.300  -2.569 -34.929  1.00  0.00     0.014 A 
ENDBRANCH   9  11
ENDBRANCH   1   5
BRANCH   2  18
HETATM   18  C   UNL     1     -10.929   3.509 -32.598  1.00  0.00     0.050 A 
HETATM   19  C   UNL     1     -11.970   3.922 -33.446  1.00  0.00     0.058 A 
HETATM   20  C   UNL     1     -12.905   4.874 -32.989  1.00  0.00     0.019 A 
HETATM   21  C   UNL     1     -12.844   5.379 -31.691  1.00  0.00     0.001 A 
HETATM   22  C   UNL     1     -11.850   4.935 -30.832  1.00  0.00     0.002 A 
HETATM   23  C   UNL     1     -10.906   4.008 -31.280  1.00  0.00     0.030 A 
BRANCH  19  24
HETATM   24  C   UNL     1     -12.276   3.391 -34.793  1.00  0.00     0.254 C 
HETATM   25  N   UNL     1     -13.123   2.315 -34.943  1.00  0.00    -0.352 N 
HETATM   26  H   UNL     1     -13.259   2.066 -35.918  1.00  0.00     0.163 HD
HETATM   27  O   UNL     1     -11.873   3.998 -35.785  1.00  0.00    -0.268 OA
BRANCH  25  28
HETATM   28  C   UNL     1     -13.800   1.549 -33.953  1.00  0.00     0.084 A 
HETATM   29  C   UNL     1     -14.931   0.610 -34.261  1.00  0.00     0.027 A 
HETATM   30  C   UNL     1     -13.585   0.058 -33.903  1.00  0.00     0.027 A 
ENDBRANCH  25  28
ENDBRANCH  19  24
ENDBRANCH   2  18
TORSDOF 5
ENDMDL
MODEL 7
REMARK VINA RESULT:      -8.5      5.413      6.915
REMARK  5 active torsions:
REMARK  status: ('A' for Active; 'I' for Inactive)
REMARK    1  A    between atoms: C_5  and  C_6 
REMARK    2  A    between atoms: C_10  and  C_11 
REMARK       I    between atoms: C_11  and  N_12 
REMARK    3  A    between atoms: N_12  and  C_13 
REMARK    4  A    between atoms: C_14  and  C_15 
REMARK       I    between atoms: C_15  and  N_16 
REMARK    5  A    between atoms: N_16  and  C_17 
ROOT
HETATM    1  C   UNL     1      -8.907   2.571 -33.427  1.00  0.00     0.274 C 
HETATM    2  N   UNL     1      -9.975   2.928 -34.222  1.00  0.00    -0.321 N 
HETATM    3  O   UNL     1      -8.581   3.125 -32.386  1.00  0.00    -0.266 OA
HETATM    4  H   UNL     1     -10.358   2.188 -34.792  1.00  0.00     0.169 HD
ENDROOT
BRANCH   1   5
HETATM    5  C   UNL     1      -8.174   1.440 -33.940  1.00  0.00     0.120 A 
HETATM    6  N   UNL     1      -8.476   0.856 -35.139  1.00  0.00    -0.272 N 
HETATM    7  N   UNL     1      -7.791  -0.276 -35.385  1.00  0.00    -0.174 NA
HETATM    8  H   UNL     1      -9.181   1.159 -35.804  1.00  0.00     0.189 HD
HETATM    9  C   UNL     1      -6.980  -0.414 -34.326  1.00  0.00     0.089 A 
HETATM   10  C   UNL     1      -7.168   0.658 -33.411  1.00  0.00     0.071 A 
BRANCH   9  11
HETATM   11  C   UNL     1      -6.103  -1.567 -34.143  1.00  0.00    -0.006 A 
HETATM   12  C   UNL     1      -6.375  -2.780 -34.792  1.00  0.00     0.014 A 
HETATM   13  C   UNL     1      -5.482  -3.851 -34.699  1.00  0.00     0.007 A 
HETATM   14  C   UNL     1      -4.308  -3.731 -33.948  1.00  0.00    -0.062 A 
HETATM   15  C   UNL     1      -3.316  -4.856 -33.909  1.00  0.00     0.048 C 
HETATM   16  C   UNL     1      -4.039  -2.524 -33.293  1.00  0.00     0.007 A 
HETATM   17  C   UNL     1      -4.935  -1.454 -33.380  1.00  0.00     0.014 A 
ENDBRANCH   9  11
ENDBRANCH   1   5
BRANCH   2  18
HETATM   18  C   UNL     1     -10.686   4.148 -34.239  1.00  0.00     0.050 A 
HETATM   19  C   UNL     1     -11.776   4.510 -33.430  1.00  0.00     0.058 A 
HETATM   20  C   UNL     1     -12.384   5.771 -33.604  1.00  0.00     0.019 A 
HETATM   21  C   UNL     1     -11.891   6.688 -34.531  1.00  0.00     0.001 A 
HETATM   22  C   UNL     1     -10.782   6.356 -35.295  1.00  0.00     0.002 A 
HETATM   23  C   UNL     1     -10.185   5.102 -35.147  1.00  0.00     0.030 A 
BRANCH  19  24
HETATM   24  C   UNL     1     -12.340   3.732 -32.304  1.00  0.00     0.254 C 
HETATM   25  N   UNL     1     -13.171   2.660 -32.545  1.00  0.00    -0.352 N 
HETATM   26  H   UNL     1     -13.472   2.207 -31.688  1.00  0.00     0.163 HD
HETATM   27  O   UNL     1     -11.959   3.969 -31.158  1.00  0.00    -0.268 OA
BRANCH  25  28
HETATM   28  C   UNL     1     -13.635   2.132 -33.783  1.00  0.00     0.084 A 
HETATM   29  C   UNL     1     -13.151   0.834 -34.363  1.00  0.00     0.027 A 
HETATM   30  C   UNL     1     -14.527   0.918 -33.776  1.00  0.00     0.027 A 
ENDBRANCH  25  28
ENDBRANCH  19  24
ENDBRANCH   2  18
TORSDOF 5
ENDMDL
MODEL 8
REMARK VINA RESULT:      -8.5      1.298      2.254
REMARK  5 active torsions:
REMARK  status: ('A' for Active; 'I' for Inactive)
REMARK    1  A    between atoms: C_5  and  C_6 
REMARK    2  A    between atoms: C_10  and  C_11 
REMARK       I    between atoms: C_11  and  N_12 
REMARK    3  A    between atoms: N_12  and  C_13 
REMARK    4  A    between atoms: C_14  and  C_15 
REMARK       I    between atoms: C_15  and  N_16 
REMARK    5  A    between atoms: N_16  and  C_17 
ROOT
HETATM    1  C   UNL     1      -3.437   3.041 -31.277  1.00  0.00     0.274 C 
HETATM    2  N   UNL     1      -4.545   3.741 -30.853  1.00  0.00    -0.321 N 
HETATM    3  O   UNL     1      -2.308   3.498 -31.390  1.00  0.00    -0.266 OA
HETATM    4  H   UNL     1      -5.276   3.185 -30.436  1.00  0.00     0.169 HD
ENDROOT
BRANCH   1   5
HETATM    5  C   UNL     1      -3.725   1.662 -31.588  1.00  0.00     0.120 A 
HETATM    6  N   UNL     1      -3.028   0.625 -31.030  1.00  0.00    -0.272 N 
HETATM    7  N   UNL     1      -3.329  -0.578 -31.549  1.00  0.00    -0.174 NA
HETATM    8  H   UNL     1      -2.297   0.691 -30.328  1.00  0.00     0.189 HD
HETATM    9  C   UNL     1      -4.288  -0.325 -32.451  1.00  0.00     0.089 A 
HETATM   10  C   UNL     1      -4.587   1.064 -32.485  1.00  0.00     0.071 A 
BRANCH   9  11
HETATM   11  C   UNL     1      -4.858  -1.356 -33.316  1.00  0.00    -0.006 A 
HETATM   12  C   UNL     1      -4.127  -2.512 -33.622  1.00  0.00     0.014 A 
HETATM   13  C   UNL     1      -4.710  -3.544 -34.364  1.00  0.00     0.007 A 
HETATM   14  C   UNL     1      -6.028  -3.433 -34.818  1.00  0.00    -0.062 A 
HETATM   15  C   UNL     1      -6.674  -4.571 -35.551  1.00  0.00     0.048 C 
HETATM   16  C   UNL     1      -6.756  -2.275 -34.521  1.00  0.00     0.007 A 
HETATM   17  C   UNL     1      -6.172  -1.240 -33.784  1.00  0.00     0.014 A 
ENDBRANCH   9  11
ENDBRANCH   1   5
BRANCH   2  18
HETATM   18  C   UNL     1      -4.729   5.141 -30.798  1.00  0.00     0.050 A 
HETATM   19  C   UNL     1      -4.857   6.027 -31.881  1.00  0.00     0.058 A 
HETATM   20  C   UNL     1      -5.010   7.407 -31.638  1.00  0.00     0.019 A 
HETATM   21  C   UNL     1      -5.088   7.906 -30.339  1.00  0.00     0.001 A 
HETATM   22  C   UNL     1      -5.016   7.030 -29.266  1.00  0.00     0.002 A 
HETATM   23  C   UNL     1      -4.842   5.663 -29.494  1.00  0.00     0.030 A 
BRANCH  19  24
HETATM   24  C   UNL     1      -4.943   5.665 -33.314  1.00  0.00     0.254 C 
HETATM   25  N   UNL     1      -6.104   5.131 -33.830  1.00  0.00    -0.352 N 
HETATM   26  H   UNL     1      -6.032   4.946 -34.825  1.00  0.00     0.163 HD
HETATM   27  O   UNL     1      -4.017   5.965 -34.067  1.00  0.00    -0.268 OA
BRANCH  25  28
HETATM   28  C   UNL     1      -7.330   4.825 -33.175  1.00  0.00     0.084 A 
HETATM   29  C   UNL     1      -8.516   4.228 -33.877  1.00  0.00     0.027 A 
HETATM   30  C   UNL     1      -7.700   3.382 -32.947  1.00  0.00     0.027 A 
ENDBRANCH  25  28
ENDBRANCH  19  24
ENDBRANCH   2  18
TORSDOF 5
ENDMDL
MODEL 9
REMARK VINA RESULT:      -8.3      2.108      2.802
REMARK  5 active torsions:
REMARK  status: ('A' for Active; 'I' for Inactive)
REMARK    1  A    between atoms: C_5  and  C_6 
REMARK    2  A    between atoms: C_10  and  C_11 
REMARK       I    between atoms: C_11  and  N_12 
REMARK    3  A    between atoms: N_12  and  C_13 
REMARK    4  A    between atoms: C_14  and  C_15 
REMARK       I    between atoms: C_15  and  N_16 
REMARK    5  A    between atoms: N_16  and  C_17 
ROOT
HETATM    1  C   UNL     1      -5.316   4.249 -30.040  1.00  0.00     0.274 C 
HETATM    2  N   UNL     1      -4.451   4.901 -30.892  1.00  0.00    -0.321 N 
HETATM    3  O   UNL     1      -5.796   4.721 -29.019  1.00  0.00    -0.266 OA
HETATM    4  H   UNL     1      -4.455   4.574 -31.847  1.00  0.00     0.169 HD
ENDROOT
BRANCH   1   5
HETATM    5  C   UNL     1      -5.626   2.907 -30.467  1.00  0.00     0.120 A 
HETATM    6  N   UNL     1      -5.854   1.891 -29.580  1.00  0.00    -0.272 N 
HETATM    7  N   UNL     1      -5.977   0.681 -30.153  1.00  0.00    -0.174 NA
HETATM    8  H   UNL     1      -5.882   1.962 -28.567  1.00  0.00     0.189 HD
HETATM    9  C   UNL     1      -5.867   0.919 -31.468  1.00  0.00     0.089 A 
HETATM   10  C   UNL     1      -5.676   2.307 -31.709  1.00  0.00     0.071 A 
BRANCH   9  11
HETATM   11  C   UNL     1      -5.865  -0.143 -32.470  1.00  0.00    -0.006 A 
HETATM   12  C   UNL     1      -4.696  -0.869 -32.737  1.00  0.00     0.014 A 
HETATM   13  C   UNL     1      -4.719  -1.952 -33.621  1.00  0.00     0.007 A 
HETATM   14  C   UNL     1      -5.908  -2.322 -34.258  1.00  0.00    -0.062 A 
HETATM   15  C   UNL     1      -5.947  -3.528 -35.148  1.00  0.00     0.048 C 
HETATM   16  C   UNL     1      -7.075  -1.592 -33.999  1.00  0.00     0.007 A 
HETATM   17  C   UNL     1      -7.051  -0.505 -33.120  1.00  0.00     0.014 A 
ENDBRANCH   9  11
ENDBRANCH   1   5
BRANCH   2  18
HETATM   18  C   UNL     1      -3.669   6.050 -30.639  1.00  0.00     0.050 A 
HETATM   19  C   UNL     1      -2.270   6.157 -30.693  1.00  0.00     0.058 A 
HETATM   20  C   UNL     1      -1.652   7.386 -30.382  1.00  0.00     0.019 A 
HETATM   21  C   UNL     1      -2.409   8.514 -30.068  1.00  0.00     0.001 A 
HETATM   22  C   UNL     1      -3.793   8.428 -30.064  1.00  0.00     0.002 A 
HETATM   23  C   UNL     1      -4.415   7.210 -30.350  1.00  0.00     0.030 A 
BRANCH  19  24
HETATM   24  C   UNL     1      -1.319   5.115 -31.144  1.00  0.00     0.254 C 
HETATM   25  N   UNL     1      -1.257   4.756 -32.473  1.00  0.00    -0.352 N 
HETATM   26  H   UNL     1      -0.554   4.045 -32.646  1.00  0.00     0.163 HD
HETATM   27  O   UNL     1      -0.497   4.665 -30.347  1.00  0.00    -0.268 OA
BRANCH  25  28
HETATM   28  C   UNL     1      -2.015   5.236 -33.578  1.00  0.00     0.084 A 
HETATM   29  C   UNL     1      -1.831   6.599 -34.180  1.00  0.00     0.027 A 
HETATM   30  C   UNL     1      -1.344   5.390 -34.918  1.00  0.00     0.027 A 
ENDBRANCH  25  28
ENDBRANCH  19  24
ENDBRANCH   2  18
TORSDOF 5
ENDMDL
MODEL 10
REMARK VINA RESULT:      -8.3      3.060      8.503
REMARK  5 active torsions:
REMARK  status: ('A' for Active; 'I' for Inactive)
REMARK    1  A    between atoms: C_5  and  C_6 
REMARK    2  A    between atoms: C_10  and  C_11 
REMARK       I    between atoms: C_11  and  N_12 
REMARK    3  A    between atoms: N_12  and  C_13 
REMARK    4  A    between atoms: C_14  and  C_15 
REMARK       I    between atoms: C_15  and  N_16 
REMARK    5  A    between atoms: N_16  and  C_17 
ROOT
HETATM    1  C   UNL     1      -5.203   1.490 -32.290  1.00  0.00     0.274 C 
HETATM    2  N   UNL     1      -4.565   0.577 -33.101  1.00  0.00    -0.321 N 
HETATM    3  O   UNL     1      -6.249   1.295 -31.688  1.00  0.00    -0.266 OA
HETATM    4  H   UNL     1      -3.569   0.707 -33.201  1.00  0.00     0.169 HD
ENDROOT
BRANCH   1   5
HETATM    5  C   UNL     1      -4.506   2.750 -32.199  1.00  0.00     0.120 A 
HETATM    6  N   UNL     1      -4.452   3.632 -33.244  1.00  0.00    -0.272 N 
HETATM    7  N   UNL     1      -3.635   4.680 -33.033  1.00  0.00    -0.174 NA
HETATM    8  H   UNL     1      -4.913   3.539 -34.144  1.00  0.00     0.189 HD
HETATM    9  C   UNL     1      -3.169   4.498 -31.789  1.00  0.00     0.089 A 
HETATM   10  C   UNL     1      -3.714   3.315 -31.220  1.00  0.00     0.071 A 
BRANCH   9  11
HETATM   11  C   UNL     1      -2.175   5.375 -31.177  1.00  0.00    -0.006 A 
HETATM   12  C   UNL     1      -2.574   6.450 -30.370  1.00  0.00     0.014 A 
HETATM   13  C   UNL     1      -1.623   7.228 -29.703  1.00  0.00     0.007 A 
HETATM   14  C   UNL     1      -0.259   6.949 -29.837  1.00  0.00    -0.062 A 
HETATM   15  C   UNL     1       0.755   7.737 -29.063  1.00  0.00     0.048 C 
HETATM   16  C   UNL     1       0.141   5.881 -30.649  1.00  0.00     0.007 A 
HETATM   17  C   UNL     1      -0.809   5.107 -31.323  1.00  0.00     0.014 A 
ENDBRANCH   9  11
ENDBRANCH   1   5
BRANCH   2  18
HETATM   18  C   UNL     1      -5.096  -0.589 -33.695  1.00  0.00     0.050 A 
HETATM   19  C   UNL     1      -6.282  -0.703 -34.440  1.00  0.00     0.058 A 
HETATM   20  C   UNL     1      -6.673  -1.962 -34.939  1.00  0.00     0.019 A 
HETATM   21  C   UNL     1      -5.879  -3.091 -34.751  1.00  0.00     0.001 A 
HETATM   22  C   UNL     1      -4.680  -2.975 -34.062  1.00  0.00     0.002 A 
HETATM   23  C   UNL     1      -4.293  -1.737 -33.544  1.00  0.00     0.030 A 
BRANCH  19  24
HETATM   24  C   UNL     1      -7.171   0.403 -34.861  1.00  0.00     0.254 C 
HETATM   25  N   UNL     1      -8.380   0.605 -34.231  1.00  0.00    -0.352 N 
HETATM   26  H   UNL     1      -8.880   1.404 -34.606  1.00  0.00     0.163 HD
HETATM   27  O   UNL     1      -6.767   1.218 -35.690  1.00  0.00    -0.268 OA
BRANCH  25  28
HETATM   28  C   UNL     1      -8.983  -0.128 -33.170  1.00  0.00     0.084 A 
HETATM   29  C   UNL     1      -9.433   0.498 -31.882  1.00  0.00     0.027 A 
HETATM   30  C   UNL     1     -10.452   0.059 -32.890  1.00  0.00     0.027 A 
ENDBRANCH  25  28
ENDBRANCH  19  24
ENDBRANCH   2  18
TORSDOF 5
ENDMDL
