MODEL 1
REMARK VINA RESULT:      -9.1      0.000      0.000
REMARK  10 active torsions:
REMARK  status: ('A' for Active; 'I' for Inactive)
REMARK    1  A    between atoms: O_2  and  C_3 
REMARK    2  A    between atoms: C_6  and  N_7 
REMARK       I    between atoms: N_7  and  C_8 
REMARK    3  A    between atoms: C_8  and  C_9 
REMARK    4  A    between atoms: C_9  and  C_10 
REMARK    5  A    between atoms: N_11  and  C_12 
REMARK    6  A    between atoms: C_12  and  C_13 
REMARK    7  A    between atoms: C_13  and  C_14 
REMARK    8  A    between atoms: C_16  and  O_17 
REMARK    9  A    between atoms: C_19  and  O_20 
REMARK   10  A    between atoms: N_26  and  C_27 
ROOT
HETATM    1  C   UNL     1      -7.039   1.772 -33.488  1.00  0.00     0.190 C 
HETATM    2  N   UNL     1      -6.479   1.318 -32.229  1.00  0.00    -0.319 N 
HETATM    3  C   UNL     1      -6.212  -0.049 -32.257  1.00  0.00     0.332 C 
HETATM    4  O   UNL     1      -5.983  -0.688 -31.239  1.00  0.00    -0.246 OA
HETATM    5  N   UNL     1      -6.313  -0.494 -33.560  1.00  0.00    -0.232 N 
HETATM    6  C   UNL     1      -6.801   0.529 -34.349  1.00  0.00     0.256 C 
HETATM    7  O   UNL     1      -7.087   0.506 -35.542  1.00  0.00    -0.270 OA
ENDROOT
BRANCH   1   8
HETATM    8  C   UNL     1      -8.540   2.053 -33.409  1.00  0.00     0.138 C 
BRANCH   8   9
HETATM    9  C   UNL     1      -8.883   3.402 -33.990  1.00  0.00     0.224 C 
HETATM   10  N   UNL     1     -10.174   3.725 -34.296  1.00  0.00    -0.327 N 
HETATM   11  H   UNL     1     -10.205   4.594 -34.818  1.00  0.00     0.169 HD
HETATM   12  O   UNL     1      -8.012   4.251 -34.199  1.00  0.00    -0.273 OA
BRANCH  10  13
HETATM   13  C   UNL     1     -11.421   3.144 -33.999  1.00  0.00     0.034 A 
HETATM   14  C   UNL     1     -12.240   3.491 -32.927  1.00  0.00     0.032 A 
HETATM   15  C   UNL     1     -13.496   2.891 -32.767  1.00  0.00     0.039 A 
HETATM   16  C   UNL     1     -13.962   1.945 -33.679  1.00  0.00     0.068 A 
HETATM   17  C   UNL     1     -13.147   1.583 -34.746  1.00  0.00     0.039 A 
HETATM   18  C   UNL     1     -11.892   2.185 -34.907  1.00  0.00     0.032 A 
BRANCH  16  19
HETATM   19  O   UNL     1     -15.212   1.461 -33.416  1.00  0.00    -0.356 OA
HETATM   20  C   UNL     1     -15.955   2.131 -32.404  1.00  0.00     0.210 C 
ENDBRANCH  16  19
ENDBRANCH  10  13
ENDBRANCH   8   9
ENDBRANCH   1   8
BRANCH   2  21
HETATM   21  C   UNL     1      -6.646   2.063 -30.986  1.00  0.00     0.133 C 
BRANCH  21  22
HETATM   22  C   UNL     1      -5.330   2.475 -30.316  1.00  0.00     0.058 C 
BRANCH  22  23
HETATM   23  C   UNL     1      -4.534   3.375 -31.233  1.00  0.00    -0.054 A 
HETATM   24  C   UNL     1      -4.888   4.721 -31.408  1.00  0.00     0.046 A 
HETATM   25  C   UNL     1      -4.105   5.566 -32.208  1.00  0.00     0.102 A 
HETATM   26  C   UNL     1      -2.947   5.061 -32.833  1.00  0.00     0.101 A 
HETATM   27  C   UNL     1      -2.602   3.717 -32.661  1.00  0.00     0.040 A 
HETATM   28  C   UNL     1      -3.389   2.883 -31.865  1.00  0.00     0.010 A 
BRANCH  25  29
HETATM   29  O   UNL     1      -4.373   6.896 -32.423  1.00  0.00    -0.353 OA
HETATM   30  C   UNL     1      -4.408   7.754 -31.293  1.00  0.00     0.210 C 
ENDBRANCH  25  29
BRANCH  26  31
HETATM   31  O   UNL     1      -2.228   5.955 -33.587  1.00  0.00    -0.353 OA
HETATM   32  C   UNL     1      -1.468   5.439 -34.671  1.00  0.00     0.210 C 
ENDBRANCH  26  31
ENDBRANCH  22  23
ENDBRANCH  21  22
ENDBRANCH   2  21
BRANCH   5  33
HETATM   33  C   UNL     1      -6.025  -1.827 -34.004  1.00  0.00     0.047 A 
HETATM   34  C   UNL     1      -7.046  -2.703 -34.414  1.00  0.00     0.030 A 
HETATM   35  C   UNL     1      -6.771  -4.008 -34.846  1.00  0.00     0.002 A 
HETATM   36  C   UNL     1      -5.464  -4.475 -34.875  1.00  0.00     0.000 A 
HETATM   37  C   UNL     1      -4.435  -3.637 -34.469  1.00  0.00     0.002 A 
HETATM   38  C   UNL     1      -4.714  -2.333 -34.039  1.00  0.00     0.030 A 
ENDBRANCH   5  33
TORSDOF 10
ENDMDL
MODEL 2
REMARK VINA RESULT:      -9.0      1.553      2.366
REMARK  10 active torsions:
REMARK  status: ('A' for Active; 'I' for Inactive)
REMARK    1  A    between atoms: O_2  and  C_3 
REMARK    2  A    between atoms: C_6  and  N_7 
REMARK       I    between atoms: N_7  and  C_8 
REMARK    3  A    between atoms: C_8  and  C_9 
REMARK    4  A    between atoms: C_9  and  C_10 
REMARK    5  A    between atoms: N_11  and  C_12 
REMARK    6  A    between atoms: C_12  and  C_13 
REMARK    7  A    between atoms: C_13  and  C_14 
REMARK    8  A    between atoms: C_16  and  O_17 
REMARK    9  A    between atoms: C_19  and  O_20 
REMARK   10  A    between atoms: N_26  and  C_27 
ROOT
HETATM    1  C   UNL     1      -6.218   2.091 -33.898  1.00  0.00     0.190 C 
HETATM    2  N   UNL     1      -5.160   1.733 -32.971  1.00  0.00    -0.319 N 
HETATM    3  C   UNL     1      -5.012   0.351 -32.882  1.00  0.00     0.332 C 
HETATM    4  O   UNL     1      -4.369  -0.179 -31.986  1.00  0.00    -0.246 OA
HETATM    5  N   UNL     1      -5.734  -0.240 -33.901  1.00  0.00    -0.232 N 
HETATM    6  C   UNL     1      -6.478   0.729 -34.546  1.00  0.00     0.256 C 
HETATM    7  O   UNL     1      -7.288   0.593 -35.456  1.00  0.00    -0.270 OA
ENDROOT
BRANCH   1   8
HETATM    8  C   UNL     1      -7.490   2.569 -33.198  1.00  0.00     0.138 C 
BRANCH   8   9
HETATM    9  C   UNL     1      -8.102   3.753 -33.905  1.00  0.00     0.224 C 
HETATM   10  N   UNL     1      -9.339   3.664 -34.475  1.00  0.00    -0.327 N 
HETATM   11  H   UNL     1      -9.527   4.487 -35.038  1.00  0.00     0.169 HD
HETATM   12  O   UNL     1      -7.507   4.831 -33.984  1.00  0.00    -0.273 OA
BRANCH  10  13
HETATM   13  C   UNL     1     -10.384   2.725 -34.398  1.00  0.00     0.034 A 
HETATM   14  C   UNL     1     -10.393   1.588 -33.592  1.00  0.00     0.032 A 
HETATM   15  C   UNL     1     -11.519   0.757 -33.547  1.00  0.00     0.039 A 
HETATM   16  C   UNL     1     -12.659   1.049 -34.293  1.00  0.00     0.068 A 
HETATM   17  C   UNL     1     -12.657   2.173 -35.111  1.00  0.00     0.039 A 
HETATM   18  C   UNL     1     -11.531   3.006 -35.154  1.00  0.00     0.032 A 
BRANCH  16  19
HETATM   19  O   UNL     1     -13.691   0.167 -34.135  1.00  0.00    -0.356 OA
HETATM   20  C   UNL     1     -15.005   0.697 -34.260  1.00  0.00     0.210 C 
ENDBRANCH  16  19
ENDBRANCH  10  13
ENDBRANCH   8   9
ENDBRANCH   1   8
BRANCH   2  21
HETATM   21  C   UNL     1      -4.687   2.644 -31.936  1.00  0.00     0.133 C 
BRANCH  21  22
HETATM   22  C   UNL     1      -3.180   2.922 -31.981  1.00  0.00     0.058 C 
BRANCH  22  23
HETATM   23  C   UNL     1      -2.922   4.410 -32.019  1.00  0.00    -0.054 A 
HETATM   24  C   UNL     1      -1.618   4.919 -31.934  1.00  0.00     0.046 A 
HETATM   25  C   UNL     1      -1.382   6.297 -32.037  1.00  0.00     0.102 A 
HETATM   26  C   UNL     1      -2.464   7.179 -32.238  1.00  0.00     0.101 A 
HETATM   27  C   UNL     1      -3.763   6.667 -32.315  1.00  0.00     0.040 A 
HETATM   28  C   UNL     1      -3.989   5.294 -32.209  1.00  0.00     0.010 A 
BRANCH  25  29
HETATM   29  O   UNL     1      -0.138   6.877 -31.976  1.00  0.00    -0.353 OA
HETATM   30  C   UNL     1       0.564   6.808 -30.745  1.00  0.00     0.210 C 
ENDBRANCH  25  29
BRANCH  26  31
HETATM   31  O   UNL     1      -2.148   8.511 -32.343  1.00  0.00    -0.353 OA
HETATM   32  C   UNL     1      -2.495   9.355 -31.255  1.00  0.00     0.210 C 
ENDBRANCH  26  31
ENDBRANCH  22  23
ENDBRANCH  21  22
ENDBRANCH   2  21
BRANCH   5  33
HETATM   33  C   UNL     1      -5.760  -1.644 -34.192  1.00  0.00     0.047 A 
HETATM   34  C   UNL     1      -4.575  -2.388 -34.330  1.00  0.00     0.030 A 
HETATM   35  C   UNL     1      -4.593  -3.761 -34.617  1.00  0.00     0.002 A 
HETATM   36  C   UNL     1      -5.799  -4.426 -34.779  1.00  0.00     0.000 A 
HETATM   37  C   UNL     1      -6.987  -3.717 -34.656  1.00  0.00     0.002 A 
HETATM   38  C   UNL     1      -6.964  -2.345 -34.368  1.00  0.00     0.030 A 
ENDBRANCH   5  33
TORSDOF 10
ENDMDL
MODEL 3
REMARK VINA RESULT:      -8.9      2.348      8.045
REMARK  10 active torsions:
REMARK  status: ('A' for Active; 'I' for Inactive)
REMARK    1  A    between atoms: O_2  and  C_3 
REMARK    2  A    between atoms: C_6  and  N_7 
REMARK       I    between atoms: N_7  and  C_8 
REMARK    3  A    between atoms: C_8  and  C_9 
REMARK    4  A    between atoms: C_9  and  C_10 
REMARK    5  A    between atoms: N_11  and  C_12 
REMARK    6  A    between atoms: C_12  and  C_13 
REMARK    7  A    between atoms: C_13  and  C_14 
REMARK    8  A    between atoms: C_16  and  O_17 
REMARK    9  A    between atoms: C_19  and  O_20 
REMARK   10  A    between atoms: N_26  and  C_27 
ROOT
HETATM    1  C   UNL     1      -9.477   2.921 -34.325  1.00  0.00     0.190 C 
HETATM    2  N   UNL     1      -9.432   1.511 -33.987  1.00  0.00    -0.319 N 
HETATM    3  C   UNL     1     -10.676   1.052 -33.560  1.00  0.00     0.332 C 
HETATM    4  O   UNL     1     -10.813  -0.020 -32.988  1.00  0.00    -0.246 OA
HETATM    5  N   UNL     1     -11.625   2.015 -33.845  1.00  0.00    -0.232 N 
HETATM    6  C   UNL     1     -10.990   3.154 -34.299  1.00  0.00     0.256 C 
HETATM    7  O   UNL     1     -11.481   4.239 -34.593  1.00  0.00    -0.270 OA
ENDROOT
BRANCH   1   8
HETATM    8  C   UNL     1      -8.811   3.811 -33.274  1.00  0.00     0.138 C 
BRANCH   8   9
HETATM    9  C   UNL     1      -8.087   4.972 -33.908  1.00  0.00     0.224 C 
HETATM   10  N   UNL     1      -6.752   5.163 -33.698  1.00  0.00    -0.327 N 
HETATM   11  H   UNL     1      -6.464   6.066 -34.061  1.00  0.00     0.169 HD
HETATM   12  O   UNL     1      -8.677   5.775 -34.636  1.00  0.00    -0.273 OA
BRANCH  10  13
HETATM   13  C   UNL     1      -5.727   4.370 -33.149  1.00  0.00     0.034 A 
HETATM   14  C   UNL     1      -4.372   4.474 -33.454  1.00  0.00     0.032 A 
HETATM   15  C   UNL     1      -3.430   3.675 -32.794  1.00  0.00     0.039 A 
HETATM   16  C   UNL     1      -3.820   2.767 -31.811  1.00  0.00     0.068 A 
HETATM   17  C   UNL     1      -5.172   2.646 -31.507  1.00  0.00     0.039 A 
HETATM   18  C   UNL     1      -6.113   3.448 -32.166  1.00  0.00     0.032 A 
BRANCH  16  19
HETATM   19  O   UNL     1      -2.797   2.071 -31.232  1.00  0.00    -0.356 OA
HETATM   20  C   UNL     1      -3.072   0.726 -30.861  1.00  0.00     0.210 C 
ENDBRANCH  16  19
ENDBRANCH  10  13
ENDBRANCH   8   9
ENDBRANCH   1   8
BRANCH   2  21
HETATM   21  C   UNL     1      -8.186   0.825 -33.665  1.00  0.00     0.133 C 
BRANCH  21  22
HETATM   22  C   UNL     1      -7.471   0.214 -34.875  1.00  0.00     0.058 C 
BRANCH  22  23
HETATM   23  C   UNL     1      -6.438  -0.791 -34.422  1.00  0.00    -0.054 A 
HETATM   24  C   UNL     1      -6.528  -2.138 -34.802  1.00  0.00     0.046 A 
HETATM   25  C   UNL     1      -5.529  -3.052 -34.433  1.00  0.00     0.102 A 
HETATM   26  C   UNL     1      -4.421  -2.610 -33.681  1.00  0.00     0.101 A 
HETATM   27  C   UNL     1      -4.340  -1.267 -33.299  1.00  0.00     0.040 A 
HETATM   28  C   UNL     1      -5.340  -0.366 -33.669  1.00  0.00     0.010 A 
BRANCH  25  29
HETATM   29  O   UNL     1      -5.533  -4.382 -34.772  1.00  0.00    -0.353 OA
HETATM   30  C   UNL     1      -6.520  -4.828 -35.690  1.00  0.00     0.210 C 
ENDBRANCH  25  29
BRANCH  26  31
HETATM   31  O   UNL     1      -3.482  -3.562 -33.372  1.00  0.00    -0.353 OA
HETATM   32  C   UNL     1      -2.984  -3.586 -32.042  1.00  0.00     0.210 C 
ENDBRANCH  26  31
ENDBRANCH  22  23
ENDBRANCH  21  22
ENDBRANCH   2  21
BRANCH   5  33
HETATM   33  C   UNL     1     -13.036   1.873 -33.632  1.00  0.00     0.047 A 
HETATM   34  C   UNL     1     -13.699   2.565 -32.603  1.00  0.00     0.030 A 
HETATM   35  C   UNL     1     -15.078   2.429 -32.388  1.00  0.00     0.002 A 
HETATM   36  C   UNL     1     -15.832   1.591 -33.197  1.00  0.00     0.000 A 
HETATM   37  C   UNL     1     -15.206   0.888 -34.217  1.00  0.00     0.002 A 
HETATM   38  C   UNL     1     -13.827   1.028 -34.429  1.00  0.00     0.030 A 
ENDBRANCH   5  33
TORSDOF 10
ENDMDL
MODEL 4
REMARK VINA RESULT:      -8.7      4.074     10.026
REMARK  10 active torsions:
REMARK  status: ('A' for Active; 'I' for Inactive)
REMARK    1  A    between atoms: O_2  and  C_3 
REMARK    2  A    between atoms: C_6  and  N_7 
REMARK       I    between atoms: N_7  and  C_8 
REMARK    3  A    between atoms: C_8  and  C_9 
REMARK    4  A    between atoms: C_9  and  C_10 
REMARK    5  A    between atoms: N_11  and  C_12 
REMARK    6  A    between atoms: C_12  and  C_13 
REMARK    7  A    between atoms: C_13  and  C_14 
REMARK    8  A    between atoms: C_16  and  O_17 
REMARK    9  A    between atoms: C_19  and  O_20 
REMARK   10  A    between atoms: N_26  and  C_27 
ROOT
HETATM    1  C   UNL     1      -4.144   4.516 -32.903  1.00  0.00     0.190 C 
HETATM    2  N   UNL     1      -5.056   3.563 -32.299  1.00  0.00    -0.319 N 
HETATM    3  C   UNL     1      -5.598   4.061 -31.116  1.00  0.00     0.332 C 
HETATM    4  O   UNL     1      -6.181   3.344 -30.315  1.00  0.00    -0.246 OA
HETATM    5  N   UNL     1      -5.307   5.408 -31.027  1.00  0.00    -0.232 N 
HETATM    6  C   UNL     1      -4.445   5.751 -32.051  1.00  0.00     0.256 C 
HETATM    7  O   UNL     1      -3.912   6.833 -32.272  1.00  0.00    -0.270 OA
ENDROOT
BRANCH   1   8
HETATM    8  C   UNL     1      -2.674   4.130 -32.732  1.00  0.00     0.138 C 
BRANCH   8   9
HETATM    9  C   UNL     1      -1.771   4.996 -33.575  1.00  0.00     0.224 C 
HETATM   10  N   UNL     1      -0.922   5.894 -32.995  1.00  0.00    -0.327 N 
HETATM   11  H   UNL     1      -0.512   6.497 -33.701  1.00  0.00     0.169 HD
HETATM   12  O   UNL     1      -1.769   4.913 -34.806  1.00  0.00    -0.273 OA
BRANCH  10  13
HETATM   13  C   UNL     1      -0.481   6.109 -31.677  1.00  0.00     0.034 A 
HETATM   14  C   UNL     1      -0.760   7.233 -30.902  1.00  0.00     0.032 A 
HETATM   15  C   UNL     1      -0.323   7.309 -29.574  1.00  0.00     0.039 A 
HETATM   16  C   UNL     1       0.389   6.263 -28.990  1.00  0.00     0.068 A 
HETATM   17  C   UNL     1       0.685   5.142 -29.757  1.00  0.00     0.039 A 
HETATM   18  C   UNL     1       0.244   5.065 -31.085  1.00  0.00     0.032 A 
BRANCH  16  19
HETATM   19  O   UNL     1       0.731   6.460 -27.682  1.00  0.00    -0.356 OA
HETATM   20  C   UNL     1      -0.316   6.343 -26.726  1.00  0.00     0.210 C 
ENDBRANCH  16  19
ENDBRANCH  10  13
ENDBRANCH   8   9
ENDBRANCH   1   8
BRANCH   2  21
HETATM   21  C   UNL     1      -5.013   2.139 -32.607  1.00  0.00     0.133 C 
BRANCH  21  22
HETATM   22  C   UNL     1      -6.140   1.660 -33.530  1.00  0.00     0.058 C 
BRANCH  22  23
HETATM   23  C   UNL     1      -5.946   0.203 -33.883  1.00  0.00    -0.054 A 
HETATM   24  C   UNL     1      -4.910  -0.546 -33.309  1.00  0.00     0.046 A 
HETATM   25  C   UNL     1      -4.778  -1.914 -33.590  1.00  0.00     0.102 A 
HETATM   26  C   UNL     1      -5.701  -2.543 -34.450  1.00  0.00     0.101 A 
HETATM   27  C   UNL     1      -6.729  -1.789 -35.025  1.00  0.00     0.040 A 
HETATM   28  C   UNL     1      -6.851  -0.429 -34.741  1.00  0.00     0.010 A 
BRANCH  25  29
HETATM   29  O   UNL     1      -3.801  -2.723 -33.062  1.00  0.00    -0.353 OA
HETATM   30  C   UNL     1      -3.073  -2.237 -31.944  1.00  0.00     0.210 C 
ENDBRANCH  25  29
BRANCH  26  31
HETATM   31  O   UNL     1      -5.511  -3.886 -34.663  1.00  0.00    -0.353 OA
HETATM   32  C   UNL     1      -6.520  -4.586 -35.376  1.00  0.00     0.210 C 
ENDBRANCH  26  31
ENDBRANCH  22  23
ENDBRANCH  21  22
ENDBRANCH   2  21
BRANCH   5  33
HETATM   33  C   UNL     1      -5.769   6.288 -29.994  1.00  0.00     0.047 A 
HETATM   34  C   UNL     1      -6.928   7.069 -30.155  1.00  0.00     0.030 A 
HETATM   35  C   UNL     1      -7.384   7.933 -29.150  1.00  0.00     0.002 A 
HETATM   36  C   UNL     1      -6.688   8.044 -27.954  1.00  0.00     0.000 A 
HETATM   37  C   UNL     1      -5.536   7.293 -27.767  1.00  0.00     0.002 A 
HETATM   38  C   UNL     1      -5.084   6.429 -28.775  1.00  0.00     0.030 A 
ENDBRANCH   5  33
TORSDOF 10
ENDMDL
MODEL 5
REMARK VINA RESULT:      -8.7      1.674      8.261
REMARK  10 active torsions:
REMARK  status: ('A' for Active; 'I' for Inactive)
REMARK    1  A    between atoms: O_2  and  C_3 
REMARK    2  A    between atoms: C_6  and  N_7 
REMARK       I    between atoms: N_7  and  C_8 
REMARK    3  A    between atoms: C_8  and  C_9 
REMARK    4  A    between atoms: C_9  and  C_10 
REMARK    5  A    between atoms: N_11  and  C_12 
REMARK    6  A    between atoms: C_12  and  C_13 
REMARK    7  A    between atoms: C_13  and  C_14 
REMARK    8  A    between atoms: C_16  and  O_17 
REMARK    9  A    between atoms: C_19  and  O_20 
REMARK   10  A    between atoms: N_26  and  C_27 
ROOT
HETATM    1  C   UNL     1      -8.650   1.408 -32.228  1.00  0.00     0.190 C 
HETATM    2  N   UNL     1      -9.155   1.229 -33.577  1.00  0.00    -0.319 N 
HETATM    3  C   UNL     1      -8.356   0.350 -34.304  1.00  0.00     0.332 C 
HETATM    4  O   UNL     1      -8.438   0.250 -35.520  1.00  0.00    -0.246 OA
HETATM    5  N   UNL     1      -7.489  -0.284 -33.435  1.00  0.00    -0.232 N 
HETATM    6  C   UNL     1      -7.603   0.293 -32.185  1.00  0.00     0.256 C 
HETATM    7  O   UNL     1      -6.960   0.051 -31.169  1.00  0.00    -0.270 OA
ENDROOT
BRANCH   1   8
HETATM    8  C   UNL     1      -7.961   2.757 -32.020  1.00  0.00     0.138 C 
BRANCH   8   9
HETATM    9  C   UNL     1      -7.867   3.113 -30.557  1.00  0.00     0.224 C 
HETATM   10  N   UNL     1      -6.657   3.340 -29.969  1.00  0.00    -0.327 N 
HETATM   11  H   UNL     1      -6.762   3.408 -28.962  1.00  0.00     0.169 HD
HETATM   12  O   UNL     1      -8.877   3.215 -29.856  1.00  0.00    -0.273 OA
BRANCH  10  13
HETATM   13  C   UNL     1      -5.354   3.543 -30.462  1.00  0.00     0.034 A 
HETATM   14  C   UNL     1      -4.480   2.540 -30.875  1.00  0.00     0.032 A 
HETATM   15  C   UNL     1      -3.228   2.863 -31.413  1.00  0.00     0.039 A 
HETATM   16  C   UNL     1      -2.831   4.191 -31.561  1.00  0.00     0.068 A 
HETATM   17  C   UNL     1      -3.690   5.200 -31.140  1.00  0.00     0.039 A 
HETATM   18  C   UNL     1      -4.943   4.876 -30.604  1.00  0.00     0.032 A 
BRANCH  16  19
HETATM   19  O   UNL     1      -1.597   4.362 -32.122  1.00  0.00    -0.356 OA
HETATM   20  C   UNL     1      -1.566   4.887 -33.444  1.00  0.00     0.210 C 
ENDBRANCH  16  19
ENDBRANCH  10  13
ENDBRANCH   8   9
ENDBRANCH   1   8
BRANCH   2  21
HETATM   21  C   UNL     1     -10.042   2.195 -34.213  1.00  0.00     0.133 C 
BRANCH  21  22
HETATM   22  C   UNL     1     -11.265   1.573 -34.897  1.00  0.00     0.058 C 
BRANCH  22  23
HETATM   23  C   UNL     1     -12.489   1.727 -34.025  1.00  0.00    -0.054 A 
HETATM   24  C   UNL     1     -12.567   2.744 -33.063  1.00  0.00     0.046 A 
HETATM   25  C   UNL     1     -13.733   2.922 -32.304  1.00  0.00     0.102 A 
HETATM   26  C   UNL     1     -14.841   2.077 -32.518  1.00  0.00     0.101 A 
HETATM   27  C   UNL     1     -14.757   1.060 -33.474  1.00  0.00     0.040 A 
HETATM   28  C   UNL     1     -13.591   0.889 -34.223  1.00  0.00     0.010 A 
BRANCH  25  29
HETATM   29  O   UNL     1     -13.896   3.898 -31.352  1.00  0.00    -0.353 OA
HETATM   30  C   UNL     1     -13.960   5.246 -31.791  1.00  0.00     0.210 C 
ENDBRANCH  25  29
BRANCH  26  31
HETATM   31  O   UNL     1     -15.948   2.324 -31.745  1.00  0.00    -0.353 OA
HETATM   32  C   UNL     1     -17.163   2.628 -32.416  1.00  0.00     0.210 C 
ENDBRANCH  26  31
ENDBRANCH  22  23
ENDBRANCH  21  22
ENDBRANCH   2  21
BRANCH   5  33
HETATM   33  C   UNL     1      -6.569  -1.323 -33.795  1.00  0.00     0.047 A 
HETATM   34  C   UNL     1      -5.182  -1.172 -33.618  1.00  0.00     0.030 A 
HETATM   35  C   UNL     1      -4.277  -2.183 -33.971  1.00  0.00     0.002 A 
HETATM   36  C   UNL     1      -4.736  -3.374 -34.516  1.00  0.00     0.000 A 
HETATM   37  C   UNL     1      -6.099  -3.551 -34.710  1.00  0.00     0.002 A 
HETATM   38  C   UNL     1      -7.000  -2.537 -34.355  1.00  0.00     0.030 A 
ENDBRANCH   5  33
TORSDOF 10
ENDMDL
MODEL 6
REMARK VINA RESULT:      -8.5      2.072      7.921
REMARK  10 active torsions:
REMARK  status: ('A' for Active; 'I' for Inactive)
REMARK    1  A    between atoms: O_2  and  C_3 
REMARK    2  A    between atoms: C_6  and  N_7 
REMARK       I    between atoms: N_7  and  C_8 
REMARK    3  A    between atoms: C_8  and  C_9 
REMARK    4  A    between atoms: C_9  and  C_10 
REMARK    5  A    between atoms: N_11  and  C_12 
REMARK    6  A    between atoms: C_12  and  C_13 
REMARK    7  A    between atoms: C_13  and  C_14 
REMARK    8  A    between atoms: C_16  and  O_17 
REMARK    9  A    between atoms: C_19  and  O_20 
REMARK   10  A    between atoms: N_26  and  C_27 
ROOT
HETATM    1  C   UNL     1      -6.774   3.235 -32.892  1.00  0.00     0.190 C 
HETATM    2  N   UNL     1      -7.040   4.634 -33.168  1.00  0.00    -0.319 N 
HETATM    3  C   UNL     1      -5.864   5.381 -33.175  1.00  0.00     0.332 C 
HETATM    4  O   UNL     1      -5.869   6.603 -33.130  1.00  0.00    -0.246 OA
HETATM    5  N   UNL     1      -4.788   4.515 -33.182  1.00  0.00    -0.232 N 
HETATM    6  C   UNL     1      -5.249   3.223 -33.014  1.00  0.00     0.256 C 
HETATM    7  O   UNL     1      -4.601   2.188 -32.905  1.00  0.00    -0.270 OA
ENDROOT
BRANCH   1   8
HETATM    8  C   UNL     1      -7.171   2.818 -31.474  1.00  0.00     0.138 C 
BRANCH   8   9
HETATM    9  C   UNL     1      -8.427   1.984 -31.472  1.00  0.00     0.224 C 
HETATM   10  N   UNL     1      -8.496   0.821 -32.184  1.00  0.00    -0.327 N 
HETATM   11  H   UNL     1      -9.450   0.475 -32.201  1.00  0.00     0.169 HD
HETATM   12  O   UNL     1      -9.421   2.323 -30.825  1.00  0.00    -0.273 OA
BRANCH  10  13
HETATM   13  C   UNL     1      -7.541   0.013 -32.827  1.00  0.00     0.034 A 
HETATM   14  C   UNL     1      -6.418  -0.550 -32.224  1.00  0.00     0.032 A 
HETATM   15  C   UNL     1      -5.569  -1.396 -32.948  1.00  0.00     0.039 A 
HETATM   16  C   UNL     1      -5.830  -1.706 -34.281  1.00  0.00     0.068 A 
HETATM   17  C   UNL     1      -6.940  -1.140 -34.898  1.00  0.00     0.039 A 
HETATM   18  C   UNL     1      -7.791  -0.296 -34.172  1.00  0.00     0.032 A 
BRANCH  16  19
HETATM   19  O   UNL     1      -4.934  -2.562 -34.858  1.00  0.00    -0.356 OA
HETATM   20  C   UNL     1      -4.155  -3.359 -33.974  1.00  0.00     0.210 C 
ENDBRANCH  16  19
ENDBRANCH  10  13
ENDBRANCH   8   9
ENDBRANCH   1   8
BRANCH   2  21
HETATM   21  C   UNL     1      -8.353   5.235 -32.964  1.00  0.00     0.133 C 
BRANCH  21  22
HETATM   22  C   UNL     1      -9.303   5.092 -34.159  1.00  0.00     0.058 C 
BRANCH  22  23
HETATM   23  C   UNL     1     -10.340   4.029 -33.881  1.00  0.00    -0.054 A 
HETATM   24  C   UNL     1     -11.413   4.277 -33.013  1.00  0.00     0.046 A 
HETATM   25  C   UNL     1     -12.408   3.309 -32.812  1.00  0.00     0.102 A 
HETATM   26  C   UNL     1     -12.333   2.078 -33.497  1.00  0.00     0.101 A 
HETATM   27  C   UNL     1     -11.257   1.833 -34.356  1.00  0.00     0.040 A 
HETATM   28  C   UNL     1     -10.271   2.802 -34.548  1.00  0.00     0.010 A 
BRANCH  25  29
HETATM   29  O   UNL     1     -13.496   3.475 -31.991  1.00  0.00    -0.353 OA
HETATM   30  C   UNL     1     -13.276   4.040 -30.708  1.00  0.00     0.210 C 
ENDBRANCH  25  29
BRANCH  26  31
HETATM   31  O   UNL     1     -13.351   1.190 -33.257  1.00  0.00    -0.353 OA
HETATM   32  C   UNL     1     -14.290   0.970 -34.299  1.00  0.00     0.210 C 
ENDBRANCH  26  31
ENDBRANCH  22  23
ENDBRANCH  21  22
ENDBRANCH   2  21
BRANCH   5  33
HETATM   33  C   UNL     1      -3.412   4.905 -33.277  1.00  0.00     0.047 A 
HETATM   34  C   UNL     1      -2.625   5.113 -32.130  1.00  0.00     0.030 A 
HETATM   35  C   UNL     1      -1.280   5.499 -32.216  1.00  0.00     0.002 A 
HETATM   36  C   UNL     1      -0.684   5.691 -33.455  1.00  0.00     0.000 A 
HETATM   37  C   UNL     1      -1.437   5.502 -34.606  1.00  0.00     0.002 A 
HETATM   38  C   UNL     1      -2.781   5.116 -34.515  1.00  0.00     0.030 A 
ENDBRANCH   5  33
TORSDOF 10
ENDMDL
MODEL 7
REMARK VINA RESULT:      -8.4      2.327      3.516
REMARK  10 active torsions:
REMARK  status: ('A' for Active; 'I' for Inactive)
REMARK    1  A    between atoms: O_2  and  C_3 
REMARK    2  A    between atoms: C_6  and  N_7 
REMARK       I    between atoms: N_7  and  C_8 
REMARK    3  A    between atoms: C_8  and  C_9 
REMARK    4  A    between atoms: C_9  and  C_10 
REMARK    5  A    between atoms: N_11  and  C_12 
REMARK    6  A    between atoms: C_12  and  C_13 
REMARK    7  A    between atoms: C_13  and  C_14 
REMARK    8  A    between atoms: C_16  and  O_17 
REMARK    9  A    between atoms: C_19  and  O_20 
REMARK   10  A    between atoms: N_26  and  C_27 
ROOT
HETATM    1  C   UNL     1      -6.997   2.074 -32.966  1.00  0.00     0.190 C 
HETATM    2  N   UNL     1      -6.510   1.486 -31.732  1.00  0.00    -0.319 N 
HETATM    3  C   UNL     1      -6.270   0.122 -31.882  1.00  0.00     0.332 C 
HETATM    4  O   UNL     1      -6.105  -0.619 -30.922  1.00  0.00    -0.246 OA
HETATM    5  N   UNL     1      -6.316  -0.193 -33.226  1.00  0.00    -0.232 N 
HETATM    6  C   UNL     1      -6.743   0.915 -33.933  1.00  0.00     0.256 C 
HETATM    7  O   UNL     1      -6.970   1.015 -35.134  1.00  0.00    -0.270 OA
ENDROOT
BRANCH   1   8
HETATM    8  C   UNL     1      -8.494   2.384 -32.931  1.00  0.00     0.138 C 
BRANCH   8   9
HETATM    9  C   UNL     1      -8.849   3.514 -33.865  1.00  0.00     0.224 C 
HETATM   10  N   UNL     1     -10.115   3.642 -34.359  1.00  0.00    -0.327 N 
HETATM   11  H   UNL     1     -10.139   4.349 -35.086  1.00  0.00     0.169 HD
HETATM   12  O   UNL     1      -8.011   4.354 -34.203  1.00  0.00    -0.273 OA
BRANCH  10  13
HETATM   13  C   UNL     1     -11.352   3.051 -34.040  1.00  0.00     0.034 A 
HETATM   14  C   UNL     1     -12.175   3.420 -32.977  1.00  0.00     0.032 A 
HETATM   15  C   UNL     1     -13.420   2.805 -32.794  1.00  0.00     0.039 A 
HETATM   16  C   UNL     1     -13.872   1.821 -33.672  1.00  0.00     0.068 A 
HETATM   17  C   UNL     1     -13.054   1.436 -34.728  1.00  0.00     0.039 A 
HETATM   18  C   UNL     1     -11.809   2.054 -34.913  1.00  0.00     0.032 A 
BRANCH  16  19
HETATM   19  O   UNL     1     -15.113   1.325 -33.389  1.00  0.00    -0.356 OA
HETATM   20  C   UNL     1     -15.909   2.080 -32.484  1.00  0.00     0.210 C 
ENDBRANCH  16  19
ENDBRANCH  10  13
ENDBRANCH   8   9
ENDBRANCH   1   8
BRANCH   2  21
HETATM   21  C   UNL     1      -6.723   2.110 -30.432  1.00  0.00     0.133 C 
BRANCH  21  22
HETATM   22  C   UNL     1      -5.824   3.321 -30.159  1.00  0.00     0.058 C 
BRANCH  22  23
HETATM   23  C   UNL     1      -6.643   4.471 -29.620  1.00  0.00    -0.054 A 
HETATM   24  C   UNL     1      -7.929   4.735 -30.112  1.00  0.00     0.046 A 
HETATM   25  C   UNL     1      -8.709   5.761 -29.559  1.00  0.00     0.102 A 
HETATM   26  C   UNL     1      -8.197   6.530 -28.493  1.00  0.00     0.101 A 
HETATM   27  C   UNL     1      -6.911   6.268 -28.010  1.00  0.00     0.040 A 
HETATM   28  C   UNL     1      -6.143   5.245 -28.568  1.00  0.00     0.010 A 
BRANCH  25  29
HETATM   29  O   UNL     1      -9.979   6.078 -29.972  1.00  0.00    -0.353 OA
HETATM   30  C   UNL     1     -10.238   6.086 -31.368  1.00  0.00     0.210 C 
ENDBRANCH  25  29
BRANCH  26  31
HETATM   31  O   UNL     1      -9.027   7.506 -27.999  1.00  0.00    -0.353 OA
HETATM   32  C   UNL     1      -8.455   8.778 -27.727  1.00  0.00     0.210 C 
ENDBRANCH  26  31
ENDBRANCH  22  23
ENDBRANCH  21  22
ENDBRANCH   2  21
BRANCH   5  33
HETATM   33  C   UNL     1      -6.033  -1.483 -33.785  1.00  0.00     0.047 A 
HETATM   34  C   UNL     1      -4.717  -1.964 -33.898  1.00  0.00     0.030 A 
HETATM   35  C   UNL     1      -4.434  -3.223 -34.445  1.00  0.00     0.002 A 
HETATM   36  C   UNL     1      -5.462  -4.035 -34.901  1.00  0.00     0.000 A 
HETATM   37  C   UNL     1      -6.773  -3.586 -34.811  1.00  0.00     0.002 A 
HETATM   38  C   UNL     1      -7.051  -2.326 -34.261  1.00  0.00     0.030 A 
ENDBRANCH   5  33
TORSDOF 10
ENDMDL
MODEL 8
REMARK VINA RESULT:      -8.4      1.658      7.989
REMARK  10 active torsions:
REMARK  status: ('A' for Active; 'I' for Inactive)
REMARK    1  A    between atoms: O_2  and  C_3 
REMARK    2  A    between atoms: C_6  and  N_7 
REMARK       I    between atoms: N_7  and  C_8 
REMARK    3  A    between atoms: C_8  and  C_9 
REMARK    4  A    between atoms: C_9  and  C_10 
REMARK    5  A    between atoms: N_11  and  C_12 
REMARK    6  A    between atoms: C_12  and  C_13 
REMARK    7  A    between atoms: C_13  and  C_14 
REMARK    8  A    between atoms: C_16  and  O_17 
REMARK    9  A    between atoms: C_19  and  O_20 
REMARK   10  A    between atoms: N_26  and  C_27 
ROOT
HETATM    1  C   UNL     1      -7.432   1.125 -32.137  1.00  0.00     0.190 C 
HETATM    2  N   UNL     1      -8.193   1.095 -33.373  1.00  0.00    -0.319 N 
HETATM    3  C   UNL     1      -7.765   0.064 -34.206  1.00  0.00     0.332 C 
HETATM    4  O   UNL     1      -8.080   0.008 -35.387  1.00  0.00    -0.246 OA
HETATM    5  N   UNL     1      -6.934  -0.773 -33.486  1.00  0.00    -0.232 N 
HETATM    6  C   UNL     1      -6.688  -0.208 -32.250  1.00  0.00     0.256 C 
HETATM    7  O   UNL     1      -5.952  -0.613 -31.356  1.00  0.00    -0.270 OA
ENDROOT
BRANCH   1   8
HETATM    8  C   UNL     1      -6.418   2.268 -32.086  1.00  0.00     0.138 C 
BRANCH   8   9
HETATM    9  C   UNL     1      -6.052   2.622 -30.666  1.00  0.00     0.224 C 
HETATM   10  N   UNL     1      -4.896   3.292 -30.388  1.00  0.00    -0.327 N 
HETATM   11  H   UNL     1      -4.730   3.307 -29.387  1.00  0.00     0.169 HD
HETATM   12  O   UNL     1      -6.787   2.324 -29.721  1.00  0.00    -0.273 OA
BRANCH  10  13
HETATM   13  C   UNL     1      -3.955   3.983 -31.174  1.00  0.00     0.034 A 
HETATM   14  C   UNL     1      -3.151   3.414 -32.159  1.00  0.00     0.032 A 
HETATM   15  C   UNL     1      -2.295   4.213 -32.928  1.00  0.00     0.039 A 
HETATM   16  C   UNL     1      -2.234   5.592 -32.738  1.00  0.00     0.068 A 
HETATM   17  C   UNL     1      -3.023   6.169 -31.748  1.00  0.00     0.039 A 
HETATM   18  C   UNL     1      -3.881   5.370 -30.981  1.00  0.00     0.032 A 
BRANCH  16  19
HETATM   19  O   UNL     1      -1.376   6.251 -33.572  1.00  0.00    -0.356 OA
HETATM   20  C   UNL     1      -1.089   5.621 -34.815  1.00  0.00     0.210 C 
ENDBRANCH  16  19
ENDBRANCH  10  13
ENDBRANCH   8   9
ENDBRANCH   1   8
BRANCH   2  21
HETATM   21  C   UNL     1      -8.925   2.255 -33.867  1.00  0.00     0.133 C 
BRANCH  21  22
HETATM   22  C   UNL     1     -10.413   1.996 -34.130  1.00  0.00     0.058 C 
BRANCH  22  23
HETATM   23  C   UNL     1     -11.262   2.772 -33.150  1.00  0.00    -0.054 A 
HETATM   24  C   UNL     1     -12.660   2.670 -33.168  1.00  0.00     0.046 A 
HETATM   25  C   UNL     1     -13.437   3.340 -32.212  1.00  0.00     0.102 A 
HETATM   26  C   UNL     1     -12.806   4.117 -31.219  1.00  0.00     0.101 A 
HETATM   27  C   UNL     1     -11.411   4.221 -31.209  1.00  0.00     0.040 A 
HETATM   28  C   UNL     1     -10.647   3.551 -32.166  1.00  0.00     0.010 A 
BRANCH  25  29
HETATM   29  O   UNL     1     -14.808   3.285 -32.151  1.00  0.00    -0.353 OA
HETATM   30  C   UNL     1     -15.430   2.031 -32.382  1.00  0.00     0.210 C 
ENDBRANCH  25  29
BRANCH  26  31
HETATM   31  O   UNL     1     -13.635   4.730 -30.312  1.00  0.00    -0.353 OA
HETATM   32  C   UNL     1     -13.404   6.104 -30.036  1.00  0.00     0.210 C 
ENDBRANCH  26  31
ENDBRANCH  22  23
ENDBRANCH  21  22
ENDBRANCH   2  21
BRANCH   5  33
HETATM   33  C   UNL     1      -6.363  -1.994 -33.976  1.00  0.00     0.047 A 
HETATM   34  C   UNL     1      -4.973  -2.154 -34.112  1.00  0.00     0.030 A 
HETATM   35  C   UNL     1      -4.409  -3.344 -34.593  1.00  0.00     0.002 A 
HETATM   36  C   UNL     1      -5.223  -4.407 -34.957  1.00  0.00     0.000 A 
HETATM   37  C   UNL     1      -6.601  -4.277 -34.842  1.00  0.00     0.002 A 
HETATM   38  C   UNL     1      -7.160  -3.086 -34.360  1.00  0.00     0.030 A 
ENDBRANCH   5  33
TORSDOF 10
ENDMDL
MODEL 9
REMARK VINA RESULT:      -8.3      3.500      9.852
REMARK  10 active torsions:
REMARK  status: ('A' for Active; 'I' for Inactive)
REMARK    1  A    between atoms: O_2  and  C_3 
REMARK    2  A    between atoms: C_6  and  N_7 
REMARK       I    between atoms: N_7  and  C_8 
REMARK    3  A    between atoms: C_8  and  C_9 
REMARK    4  A    between atoms: C_9  and  C_10 
REMARK    5  A    between atoms: N_11  and  C_12 
REMARK    6  A    between atoms: C_12  and  C_13 
REMARK    7  A    between atoms: C_13  and  C_14 
REMARK    8  A    between atoms: C_16  and  O_17 
REMARK    9  A    between atoms: C_19  and  O_20 
REMARK   10  A    between atoms: N_26  and  C_27 
ROOT
HETATM    1  C   UNL     1      -4.172   3.686 -32.142  1.00  0.00     0.190 C 
HETATM    2  N   UNL     1      -4.783   2.556 -31.467  1.00  0.00    -0.319 N 
HETATM    3  C   UNL     1      -5.843   2.961 -30.659  1.00  0.00     0.332 C 
HETATM    4  O   UNL     1      -6.331   2.227 -29.811  1.00  0.00    -0.246 OA
HETATM    5  N   UNL     1      -6.152   4.274 -30.956  1.00  0.00    -0.232 N 
HETATM    6  C   UNL     1      -5.203   4.774 -31.827  1.00  0.00     0.256 C 
HETATM    7  O   UNL     1      -5.096   5.912 -32.272  1.00  0.00    -0.270 OA
ENDROOT
BRANCH   1   8
HETATM    8  C   UNL     1      -2.822   4.082 -31.544  1.00  0.00     0.138 C 
BRANCH   8   9
HETATM    9  C   UNL     1      -1.893   4.641 -32.592  1.00  0.00     0.224 C 
HETATM   10  N   UNL     1      -0.904   5.520 -32.255  1.00  0.00    -0.327 N 
HETATM   11  H   UNL     1      -0.483   5.913 -33.089  1.00  0.00     0.169 HD
HETATM   12  O   UNL     1      -1.995   4.317 -33.778  1.00  0.00    -0.273 OA
BRANCH  10  13
HETATM   13  C   UNL     1      -0.341   5.933 -31.033  1.00  0.00     0.034 A 
HETATM   14  C   UNL     1      -0.394   7.224 -30.512  1.00  0.00     0.032 A 
HETATM   15  C   UNL     1       0.145   7.506 -29.251  1.00  0.00     0.039 A 
HETATM   16  C   UNL     1       0.735   6.505 -28.481  1.00  0.00     0.068 A 
HETATM   17  C   UNL     1       0.804   5.215 -28.995  1.00  0.00     0.039 A 
HETATM   18  C   UNL     1       0.262   4.933 -30.257  1.00  0.00     0.032 A 
BRANCH  16  19
HETATM   19  O   UNL     1       1.196   6.915 -27.262  1.00  0.00    -0.356 OA
HETATM   20  C   UNL     1       1.512   8.296 -27.132  1.00  0.00     0.210 C 
ENDBRANCH  16  19
ENDBRANCH  10  13
ENDBRANCH   8   9
ENDBRANCH   1   8
BRANCH   2  21
HETATM   21  C   UNL     1      -4.084   1.291 -31.275  1.00  0.00     0.133 C 
BRANCH  21  22
HETATM   22  C   UNL     1      -3.469   0.710 -32.553  1.00  0.00     0.058 C 
BRANCH  22  23
HETATM   23  C   UNL     1      -4.381  -0.339 -33.145  1.00  0.00    -0.054 A 
HETATM   24  C   UNL     1      -5.634   0.007 -33.669  1.00  0.00     0.046 A 
HETATM   25  C   UNL     1      -6.446  -0.961 -34.278  1.00  0.00     0.102 A 
HETATM   26  C   UNL     1      -5.994  -2.293 -34.371  1.00  0.00     0.101 A 
HETATM   27  C   UNL     1      -4.746  -2.635 -33.841  1.00  0.00     0.040 A 
HETATM   28  C   UNL     1      -3.946  -1.665 -33.236  1.00  0.00     0.010 A 
BRANCH  25  29
HETATM   29  O   UNL     1      -7.679  -0.705 -34.825  1.00  0.00    -0.353 OA
HETATM   30  C   UNL     1      -8.160   0.630 -34.779  1.00  0.00     0.210 C 
ENDBRANCH  25  29
BRANCH  26  31
HETATM   31  O   UNL     1      -6.841  -3.177 -34.992  1.00  0.00    -0.353 OA
HETATM   32  C   UNL     1      -6.389  -4.514 -35.157  1.00  0.00     0.210 C 
ENDBRANCH  26  31
ENDBRANCH  22  23
ENDBRANCH  21  22
ENDBRANCH   2  21
BRANCH   5  33
HETATM   33  C   UNL     1      -7.242   5.016 -30.393  1.00  0.00     0.047 A 
HETATM   34  C   UNL     1      -7.110   5.708 -29.176  1.00  0.00     0.030 A 
HETATM   35  C   UNL     1      -8.173   6.432 -28.618  1.00  0.00     0.002 A 
HETATM   36  C   UNL     1      -9.402   6.480 -29.262  1.00  0.00     0.000 A 
HETATM   37  C   UNL     1      -9.566   5.800 -30.461  1.00  0.00     0.002 A 
HETATM   38  C   UNL     1      -8.500   5.078 -31.016  1.00  0.00     0.030 A 
ENDBRANCH   5  33
TORSDOF 10
ENDMDL
MODEL 10
REMARK VINA RESULT:      -8.2      2.775      5.815
REMARK  10 active torsions:
REMARK  status: ('A' for Active; 'I' for Inactive)
REMARK    1  A    between atoms: O_2  and  C_3 
REMARK    2  A    between atoms: C_6  and  N_7 
REMARK       I    between atoms: N_7  and  C_8 
REMARK    3  A    between atoms: C_8  and  C_9 
REMARK    4  A    between atoms: C_9  and  C_10 
REMARK    5  A    between atoms: N_11  and  C_12 
REMARK    6  A    between atoms: C_12  and  C_13 
REMARK    7  A    between atoms: C_13  and  C_14 
REMARK    8  A    between atoms: C_16  and  O_17 
REMARK    9  A    between atoms: C_19  and  O_20 
REMARK   10  A    between atoms: N_26  and  C_27 
ROOT
HETATM    1  C   UNL     1      -6.379   2.027 -33.643  1.00  0.00     0.190 C 
HETATM    2  N   UNL     1      -5.481   1.635 -32.573  1.00  0.00    -0.319 N 
HETATM    3  C   UNL     1      -5.313   0.253 -32.534  1.00  0.00     0.332 C 
HETATM    4  O   UNL     1      -4.815  -0.316 -31.573  1.00  0.00    -0.246 OA
HETATM    5  N   UNL     1      -5.841  -0.291 -33.690  1.00  0.00    -0.232 N 
HETATM    6  C   UNL     1      -6.492   0.700 -34.397  1.00  0.00     0.256 C 
HETATM    7  O   UNL     1      -7.136   0.602 -35.436  1.00  0.00    -0.270 OA
ENDROOT
BRANCH   1   8
HETATM    8  C   UNL     1      -7.763   2.443 -33.142  1.00  0.00     0.138 C 
BRANCH   8   9
HETATM    9  C   UNL     1      -8.311   3.608 -33.928  1.00  0.00     0.224 C 
HETATM   10  N   UNL     1      -7.634   4.791 -33.989  1.00  0.00    -0.327 N 
HETATM   11  H   UNL     1      -8.213   5.506 -34.418  1.00  0.00     0.169 HD
HETATM   12  O   UNL     1      -9.379   3.522 -34.540  1.00  0.00    -0.273 OA
BRANCH  10  13
HETATM   13  C   UNL     1      -6.331   5.189 -33.637  1.00  0.00     0.034 A 
HETATM   14  C   UNL     1      -5.169   4.860 -34.332  1.00  0.00     0.032 A 
HETATM   15  C   UNL     1      -3.929   5.369 -33.927  1.00  0.00     0.039 A 
HETATM   16  C   UNL     1      -3.826   6.226 -32.832  1.00  0.00     0.068 A 
HETATM   17  C   UNL     1      -4.977   6.552 -32.124  1.00  0.00     0.039 A 
HETATM   18  C   UNL     1      -6.219   6.044 -32.531  1.00  0.00     0.032 A 
BRANCH  16  19
HETATM   19  O   UNL     1      -2.561   6.667 -32.564  1.00  0.00    -0.356 OA
HETATM   20  C   UNL     1      -1.902   7.380 -33.604  1.00  0.00     0.210 C 
ENDBRANCH  16  19
ENDBRANCH  10  13
ENDBRANCH   8   9
ENDBRANCH   1   8
BRANCH   2  21
HETATM   21  C   UNL     1      -5.211   2.493 -31.426  1.00  0.00     0.133 C 
BRANCH  21  22
HETATM   22  C   UNL     1      -6.174   2.294 -30.249  1.00  0.00     0.058 C 
BRANCH  22  23
HETATM   23  C   UNL     1      -6.655   3.630 -29.733  1.00  0.00    -0.054 A 
HETATM   24  C   UNL     1      -5.772   4.522 -29.106  1.00  0.00     0.046 A 
HETATM   25  C   UNL     1      -6.212   5.787 -28.690  1.00  0.00     0.102 A 
HETATM   26  C   UNL     1      -7.550   6.169 -28.912  1.00  0.00     0.101 A 
HETATM   27  C   UNL     1      -8.428   5.274 -29.532  1.00  0.00     0.040 A 
HETATM   28  C   UNL     1      -7.982   4.017 -29.941  1.00  0.00     0.010 A 
BRANCH  25  29
HETATM   29  O   UNL     1      -5.413   6.723 -28.080  1.00  0.00    -0.353 OA
HETATM   30  C   UNL     1      -4.098   6.900 -28.586  1.00  0.00     0.210 C 
ENDBRANCH  25  29
BRANCH  26  31
HETATM   31  O   UNL     1      -7.898   7.428 -28.488  1.00  0.00    -0.353 OA
HETATM   32  C   UNL     1      -9.138   7.574 -27.811  1.00  0.00     0.210 C 
ENDBRANCH  26  31
ENDBRANCH  22  23
ENDBRANCH  21  22
ENDBRANCH   2  21
BRANCH   5  33
HETATM   33  C   UNL     1      -5.780  -1.677 -34.055  1.00  0.00     0.047 A 
HETATM   34  C   UNL     1      -4.555  -2.362 -34.143  1.00  0.00     0.030 A 
HETATM   35  C   UNL     1      -4.489  -3.715 -34.502  1.00  0.00     0.002 A 
HETATM   36  C   UNL     1      -5.649  -4.421 -34.788  1.00  0.00     0.000 A 
HETATM   37  C   UNL     1      -6.874  -3.771 -34.718  1.00  0.00     0.002 A 
HETATM   38  C   UNL     1      -6.935  -2.417 -34.357  1.00  0.00     0.030 A 
ENDBRANCH   5  33
TORSDOF 10
ENDMDL
