MODEL 1
REMARK VINA RESULT:      -7.8      0.000      0.000
REMARK  11 active torsions:
REMARK  status: ('A' for Active; 'I' for Inactive)
REMARK    1  A    between atoms: C_2  and  N_3 
REMARK    2  A    between atoms: N_3  and  C_5 
REMARK    3  A    between atoms: N_3  and  C_32 
REMARK    4  A    between atoms: C_5  and  C_6 
REMARK    5  A    between atoms: N_7  and  C_8 
REMARK    6  A    between atoms: C_12  and  N_13 
REMARK    7  A    between atoms: C_16  and  C_17 
REMARK       I    between atoms: C_17  and  N_18 
REMARK    8  A    between atoms: N_18  and  N_19 
REMARK    9  A    between atoms: C_20  and  C_21 
REMARK   10  A    between atoms: C_25  and  O_26 
REMARK   11  A    between atoms: C_27  and  O_28 
ROOT
HETATM    1  C   UNL     1      -4.789  -1.270 -32.989  1.00  0.00     0.096 A 
HETATM    2  N   UNL     1      -4.498  -2.588 -33.325  1.00  0.00    -0.215 N 
HETATM    3  N   UNL     1      -3.384  -2.975 -32.649  1.00  0.00     0.012 NA
HETATM    4  N   UNL     1      -3.013  -2.005 -31.827  1.00  0.00    -0.152 NA
HETATM    5  C   UNL     1      -3.860  -0.951 -32.007  1.00  0.00     0.170 A 
ENDROOT
BRANCH   5   6
HETATM    6  C   UNL     1      -3.775   0.297 -31.261  1.00  0.00     0.293 C 
HETATM    7  N   UNL     1      -3.189   1.335 -31.958  1.00  0.00    -0.242 N 
HETATM    8  H   UNL     1      -2.862   1.197 -32.912  1.00  0.00     0.192 HD
HETATM    9  O   UNL     1      -4.183   0.348 -30.103  1.00  0.00    -0.264 OA
BRANCH   7  10
HETATM   10  N   UNL     1      -3.086   2.556 -31.366  1.00  0.00    -0.184 NA
HETATM   11  C   UNL     1      -2.729   3.539 -32.129  1.00  0.00     0.150 C 
BRANCH  11  12
HETATM   12  C   UNL     1      -2.607   4.911 -31.593  1.00  0.00    -0.013 A 
HETATM   13  C   UNL     1      -1.426   5.317 -30.963  1.00  0.00     0.035 A 
HETATM   14  C   UNL     1      -1.334   6.609 -30.452  1.00  0.00     0.047 A 
HETATM   15 BR   UNL     1       0.270   7.139 -29.593  1.00  0.00    -0.048 Br
HETATM   16  C   UNL     1      -2.412   7.490 -30.574  1.00  0.00     0.116 A 
HETATM   17  C   UNL     1      -3.596   7.089 -31.212  1.00  0.00     0.103 A 
HETATM   18  C   UNL     1      -3.691   5.789 -31.719  1.00  0.00     0.052 A 
BRANCH  16  19
HETATM   19  O   UNL     1      -2.335   8.766 -30.075  1.00  0.00    -0.357 OA
HETATM   20  H   UNL     1      -2.708   8.766 -29.175  1.00  0.00     0.218 HD
ENDBRANCH  16  19
BRANCH  17  21
HETATM   21  O   UNL     1      -4.590   8.030 -31.279  1.00  0.00    -0.353 OA
HETATM   22  C   UNL     1      -5.923   7.581 -31.475  1.00  0.00     0.210 C 
ENDBRANCH  17  21
ENDBRANCH  11  12
ENDBRANCH   7  10
ENDBRANCH   5   6
BRANCH   1  23
HETATM   23  C   UNL     1      -5.810  -0.414 -33.644  1.00  0.00     0.296 C 
BRANCH  23  24
HETATM   24  N   UNL     1      -7.220  -0.505 -33.085  1.00  0.00    -0.066 N 
HETATM   25  H   UNL     1      -7.374  -1.494 -32.841  1.00  0.00     0.280 HD
BRANCH  24  26
HETATM   26  C   UNL     1      -8.251  -0.134 -34.145  1.00  0.00     0.231 C 
HETATM   27  C   UNL     1      -7.587   0.401 -35.402  1.00  0.00     0.034 C 
ENDBRANCH  24  26
BRANCH  24  28
HETATM   28  C   UNL     1      -7.402   0.334 -31.828  1.00  0.00     0.231 C 
HETATM   29  C   UNL     1      -8.855   0.749 -31.655  1.00  0.00     0.034 C 
ENDBRANCH  24  28
ENDBRANCH  23  24
ENDBRANCH   1  23
BRANCH   2  30
HETATM   30  C   UNL     1      -5.220  -3.466 -34.169  1.00  0.00     0.225 A 
HETATM   31  N   UNL     1      -6.318  -3.032 -34.795  1.00  0.00    -0.081 NA
HETATM   32  O   UNL     1      -6.758  -4.156 -35.502  1.00  0.00    -0.103 OA
HETATM   33  N   UNL     1      -5.936  -5.248 -35.270  1.00  0.00    -0.083 NA
HETATM   34  C   UNL     1      -4.984  -4.823 -34.442  1.00  0.00     0.201 A 
BRANCH  34  35
HETATM   35  N   UNL     1      -3.983  -5.585 -33.976  1.00  0.00    -0.379 N 
HETATM   36  H   UNL     1      -4.169  -6.525 -33.633  1.00  0.00     0.158 HD
HETATM   37  H   UNL     1      -3.046  -5.239 -33.780  1.00  0.00     0.158 HD
ENDBRANCH  34  35
ENDBRANCH   2  30
TORSDOF 11
ENDMDL
MODEL 2
REMARK VINA RESULT:      -7.7      1.231      2.030
REMARK  11 active torsions:
REMARK  status: ('A' for Active; 'I' for Inactive)
REMARK    1  A    between atoms: C_2  and  N_3 
REMARK    2  A    between atoms: N_3  and  C_5 
REMARK    3  A    between atoms: N_3  and  C_32 
REMARK    4  A    between atoms: C_5  and  C_6 
REMARK    5  A    between atoms: N_7  and  C_8 
REMARK    6  A    between atoms: C_12  and  N_13 
REMARK    7  A    between atoms: C_16  and  C_17 
REMARK       I    between atoms: C_17  and  N_18 
REMARK    8  A    between atoms: N_18  and  N_19 
REMARK    9  A    between atoms: C_20  and  C_21 
REMARK   10  A    between atoms: C_25  and  O_26 
REMARK   11  A    between atoms: C_27  and  O_28 
ROOT
HETATM    1  C   UNL     1      -4.802  -1.273 -32.994  1.00  0.00     0.096 A 
HETATM    2  N   UNL     1      -4.522  -2.586 -33.360  1.00  0.00    -0.215 N 
HETATM    3  N   UNL     1      -3.400  -2.991 -32.708  1.00  0.00     0.012 NA
HETATM    4  N   UNL     1      -3.012  -2.039 -31.874  1.00  0.00    -0.152 NA
HETATM    5  C   UNL     1      -3.857  -0.978 -32.020  1.00  0.00     0.170 A 
ENDROOT
BRANCH   5   6
HETATM    6  C   UNL     1      -3.754   0.255 -31.251  1.00  0.00     0.293 C 
HETATM    7  N   UNL     1      -3.133   1.292 -31.922  1.00  0.00    -0.242 N 
HETATM    8  H   UNL     1      -2.795   1.162 -32.873  1.00  0.00     0.192 HD
HETATM    9  O   UNL     1      -4.179   0.297 -30.099  1.00  0.00    -0.264 OA
BRANCH   7  10
HETATM   10  N   UNL     1      -3.011   2.499 -31.307  1.00  0.00    -0.184 NA
HETATM   11  C   UNL     1      -2.810   3.521 -32.077  1.00  0.00     0.150 C 
BRANCH  11  12
HETATM   12  C   UNL     1      -2.683   4.882 -31.515  1.00  0.00    -0.013 A 
HETATM   13  C   UNL     1      -3.784   5.744 -31.505  1.00  0.00     0.035 A 
HETATM   14  C   UNL     1      -3.643   7.027 -30.983  1.00  0.00     0.047 A 
HETATM   15 BR   UNL     1      -5.142   8.186 -30.988  1.00  0.00    -0.048 Br
HETATM   16  C   UNL     1      -2.411   7.444 -30.470  1.00  0.00     0.116 A 
HETATM   17  C   UNL     1      -1.305   6.579 -30.471  1.00  0.00     0.103 A 
HETATM   18  C   UNL     1      -1.446   5.292 -31.002  1.00  0.00     0.052 A 
BRANCH  16  19
HETATM   19  O   UNL     1      -2.257   8.705 -29.953  1.00  0.00    -0.357 OA
HETATM   20  H   UNL     1      -1.717   9.226 -30.574  1.00  0.00     0.218 HD
ENDBRANCH  16  19
BRANCH  17  21
HETATM   21  O   UNL     1      -0.147   7.086 -29.943  1.00  0.00    -0.353 OA
HETATM   22  C   UNL     1       0.422   6.425 -28.823  1.00  0.00     0.210 C 
ENDBRANCH  17  21
ENDBRANCH  11  12
ENDBRANCH   7  10
ENDBRANCH   5   6
BRANCH   1  23
HETATM   23  C   UNL     1      -5.829  -0.399 -33.616  1.00  0.00     0.296 C 
BRANCH  23  24
HETATM   24  N   UNL     1      -7.222  -0.470 -33.015  1.00  0.00    -0.066 N 
HETATM   25  H   UNL     1      -7.396  -1.462 -32.796  1.00  0.00     0.280 HD
BRANCH  24  26
HETATM   26  C   UNL     1      -8.275  -0.039 -34.030  1.00  0.00     0.231 C 
HETATM   27  C   UNL     1      -7.644   0.336 -35.360  1.00  0.00     0.034 C 
ENDBRANCH  24  26
BRANCH  24  28
HETATM   28  C   UNL     1      -7.342   0.335 -31.729  1.00  0.00     0.231 C 
HETATM   29  C   UNL     1      -7.019   1.801 -31.970  1.00  0.00     0.034 C 
ENDBRANCH  24  28
ENDBRANCH  23  24
ENDBRANCH   1  23
BRANCH   2  30
HETATM   30  C   UNL     1      -5.261  -3.443 -34.210  1.00  0.00     0.225 A 
HETATM   31  N   UNL     1      -6.359  -2.988 -34.821  1.00  0.00    -0.081 NA
HETATM   32  O   UNL     1      -6.818  -4.097 -35.539  1.00  0.00    -0.103 OA
HETATM   33  N   UNL     1      -6.007  -5.202 -35.328  1.00  0.00    -0.083 NA
HETATM   34  C   UNL     1      -5.044  -4.799 -34.503  1.00  0.00     0.201 A 
BRANCH  34  35
HETATM   35  N   UNL     1      -4.048  -5.579 -34.055  1.00  0.00    -0.379 N 
HETATM   36  H   UNL     1      -3.130  -5.543 -34.492  1.00  0.00     0.158 HD
HETATM   37  H   UNL     1      -4.176  -6.347 -33.399  1.00  0.00     0.158 HD
ENDBRANCH  34  35
ENDBRANCH   2  30
TORSDOF 11
ENDMDL
MODEL 3
REMARK VINA RESULT:      -7.6      3.947      9.704
REMARK  11 active torsions:
REMARK  status: ('A' for Active; 'I' for Inactive)
REMARK    1  A    between atoms: C_2  and  N_3 
REMARK    2  A    between atoms: N_3  and  C_5 
REMARK    3  A    between atoms: N_3  and  C_32 
REMARK    4  A    between atoms: C_5  and  C_6 
REMARK    5  A    between atoms: N_7  and  C_8 
REMARK    6  A    between atoms: C_12  and  N_13 
REMARK    7  A    between atoms: C_16  and  C_17 
REMARK       I    between atoms: C_17  and  N_18 
REMARK    8  A    between atoms: N_18  and  N_19 
REMARK    9  A    between atoms: C_20  and  C_21 
REMARK   10  A    between atoms: C_25  and  O_26 
REMARK   11  A    between atoms: C_27  and  O_28 
ROOT
HETATM    1  C   UNL     1      -2.638   5.779 -30.671  1.00  0.00     0.096 A 
HETATM    2  N   UNL     1      -1.598   6.437 -30.019  1.00  0.00    -0.215 N 
HETATM    3  N   UNL     1      -0.437   5.779 -30.276  1.00  0.00     0.012 NA
HETATM    4  N   UNL     1      -0.671   4.801 -31.136  1.00  0.00    -0.152 NA
HETATM    5  C   UNL     1      -2.008   4.782 -31.403  1.00  0.00     0.170 A 
ENDROOT
BRANCH   5   6
HETATM    6  C   UNL     1      -2.640   3.847 -32.324  1.00  0.00     0.293 C 
HETATM    7  N   UNL     1      -3.162   2.719 -31.720  1.00  0.00    -0.242 N 
HETATM    8  H   UNL     1      -3.090   2.594 -30.712  1.00  0.00     0.192 HD
HETATM    9  O   UNL     1      -2.652   4.087 -33.530  1.00  0.00    -0.264 OA
BRANCH   7  10
HETATM   10  N   UNL     1      -3.801   1.794 -32.484  1.00  0.00    -0.184 NA
HETATM   11  C   UNL     1      -3.609   0.553 -32.169  1.00  0.00     0.150 C 
BRANCH  11  12
HETATM   12  C   UNL     1      -4.273  -0.533 -32.920  1.00  0.00    -0.013 A 
HETATM   13  C   UNL     1      -3.718  -1.816 -32.941  1.00  0.00     0.035 A 
HETATM   14  C   UNL     1      -4.350  -2.823 -33.665  1.00  0.00     0.047 A 
HETATM   15 BR   UNL     1      -3.579  -4.553 -33.690  1.00  0.00    -0.048 Br
HETATM   16  C   UNL     1      -5.532  -2.551 -34.360  1.00  0.00     0.116 A 
HETATM   17  C   UNL     1      -6.097  -1.266 -34.336  1.00  0.00     0.103 A 
HETATM   18  C   UNL     1      -5.458  -0.253 -33.614  1.00  0.00     0.052 A 
BRANCH  16  19
HETATM   19  O   UNL     1      -6.166  -3.533 -35.078  1.00  0.00    -0.357 OA
HETATM   20  H   UNL     1      -6.827  -3.956 -34.501  1.00  0.00     0.218 HD
ENDBRANCH  16  19
BRANCH  17  21
HETATM   21  O   UNL     1      -7.256  -1.107 -35.049  1.00  0.00    -0.353 OA
HETATM   22  C   UNL     1      -7.698   0.214 -35.321  1.00  0.00     0.210 C 
ENDBRANCH  17  21
ENDBRANCH  11  12
ENDBRANCH   7  10
ENDBRANCH   5   6
BRANCH   1  23
HETATM   23  C   UNL     1      -4.085   6.062 -30.498  1.00  0.00     0.296 C 
BRANCH  23  24
HETATM   24  N   UNL     1      -4.791   5.293 -29.394  1.00  0.00    -0.066 N 
HETATM   25  H   UNL     1      -4.116   4.596 -29.046  1.00  0.00     0.280 HD
BRANCH  24  26
HETATM   26  C   UNL     1      -5.989   4.527 -29.944  1.00  0.00     0.231 C 
HETATM   27  C   UNL     1      -6.181   4.788 -31.428  1.00  0.00     0.034 C 
ENDBRANCH  24  26
BRANCH  24  28
HETATM   28  C   UNL     1      -5.199   6.187 -28.232  1.00  0.00     0.231 C 
HETATM   29  C   UNL     1      -5.395   7.623 -28.691  1.00  0.00     0.034 C 
ENDBRANCH  24  28
ENDBRANCH  23  24
ENDBRANCH   1  23
BRANCH   2  30
HETATM   30  C   UNL     1      -1.648   7.625 -29.251  1.00  0.00     0.225 A 
HETATM   31  N   UNL     1      -1.556   8.812 -29.857  1.00  0.00    -0.081 NA
HETATM   32  O   UNL     1      -1.621   9.726 -28.800  1.00  0.00    -0.103 OA
HETATM   33  N   UNL     1      -1.723   9.074 -27.580  1.00  0.00    -0.083 NA
HETATM   34  C   UNL     1      -1.737   7.773 -27.857  1.00  0.00     0.201 A 
BRANCH  34  35
HETATM   35  N   UNL     1      -1.829   6.799 -26.939  1.00  0.00    -0.379 N 
HETATM   36  H   UNL     1      -1.301   5.937 -27.048  1.00  0.00     0.158 HD
HETATM   37  H   UNL     1      -2.527   6.778 -26.198  1.00  0.00     0.158 HD
ENDBRANCH  34  35
ENDBRANCH   2  30
TORSDOF 11
ENDMDL
MODEL 4
REMARK VINA RESULT:      -7.5      4.091     10.110
REMARK  11 active torsions:
REMARK  status: ('A' for Active; 'I' for Inactive)
REMARK    1  A    between atoms: C_2  and  N_3 
REMARK    2  A    between atoms: N_3  and  C_5 
REMARK    3  A    between atoms: N_3  and  C_32 
REMARK    4  A    between atoms: C_5  and  C_6 
REMARK    5  A    between atoms: N_7  and  C_8 
REMARK    6  A    between atoms: C_12  and  N_13 
REMARK    7  A    between atoms: C_16  and  C_17 
REMARK       I    between atoms: C_17  and  N_18 
REMARK    8  A    between atoms: N_18  and  N_19 
REMARK    9  A    between atoms: C_20  and  C_21 
REMARK   10  A    between atoms: C_25  and  O_26 
REMARK   11  A    between atoms: C_27  and  O_28 
ROOT
HETATM    1  C   UNL     1      -2.044   6.094 -30.395  1.00  0.00     0.096 A 
HETATM    2  N   UNL     1      -0.948   6.610 -29.710  1.00  0.00    -0.215 N 
HETATM    3  N   UNL     1       0.119   5.793 -29.915  1.00  0.00     0.012 NA
HETATM    4  N   UNL     1      -0.217   4.844 -30.775  1.00  0.00    -0.152 NA
HETATM    5  C   UNL     1      -1.533   5.008 -31.093  1.00  0.00     0.170 A 
ENDROOT
BRANCH   5   6
HETATM    6  C   UNL     1      -2.256   4.157 -32.029  1.00  0.00     0.293 C 
HETATM    7  N   UNL     1      -2.981   3.144 -31.431  1.00  0.00    -0.242 N 
HETATM    8  H   UNL     1      -2.984   3.040 -30.419  1.00  0.00     0.192 HD
HETATM    9  O   UNL     1      -2.165   4.360 -33.238  1.00  0.00    -0.264 OA
BRANCH   7  10
HETATM   10  N   UNL     1      -3.718   2.308 -32.211  1.00  0.00    -0.184 NA
HETATM   11  C   UNL     1      -3.498   1.040 -32.066  1.00  0.00     0.150 C 
BRANCH  11  12
HETATM   12  C   UNL     1      -4.258   0.043 -32.849  1.00  0.00    -0.013 A 
HETATM   13  C   UNL     1      -5.451   0.407 -33.481  1.00  0.00     0.035 A 
HETATM   14  C   UNL     1      -6.161  -0.549 -34.203  1.00  0.00     0.047 A 
HETATM   15 BR   UNL     1      -7.781  -0.042 -35.045  1.00  0.00    -0.048 Br
HETATM   16  C   UNL     1      -5.679  -1.858 -34.297  1.00  0.00     0.116 A 
HETATM   17  C   UNL     1      -4.477  -2.225 -33.671  1.00  0.00     0.103 A 
HETATM   18  C   UNL     1      -3.769  -1.266 -32.939  1.00  0.00     0.052 A 
BRANCH  16  19
HETATM   19  O   UNL     1      -6.368  -2.810 -35.005  1.00  0.00    -0.357 OA
HETATM   20  H   UNL     1      -6.811  -3.402 -34.371  1.00  0.00     0.218 HD
ENDBRANCH  16  19
BRANCH  17  21
HETATM   21  O   UNL     1      -4.094  -3.531 -33.827  1.00  0.00    -0.353 OA
HETATM   22  C   UNL     1      -3.338  -4.135 -32.787  1.00  0.00     0.210 C 
ENDBRANCH  17  21
ENDBRANCH  11  12
ENDBRANCH   7  10
ENDBRANCH   5   6
BRANCH   1  23
HETATM   23  C   UNL     1      -3.443   6.578 -30.281  1.00  0.00     0.296 C 
BRANCH  23  24
HETATM   24  N   UNL     1      -4.249   6.029 -29.117  1.00  0.00    -0.066 N 
HETATM   25  H   UNL     1      -3.637   5.360 -28.627  1.00  0.00     0.280 HD
BRANCH  24  26
HETATM   26  C   UNL     1      -5.463   5.251 -29.614  1.00  0.00     0.231 C 
HETATM   27  C   UNL     1      -5.741   5.535 -31.080  1.00  0.00     0.034 C 
ENDBRANCH  24  26
BRANCH  24  28
HETATM   28  C   UNL     1      -4.661   7.113 -28.131  1.00  0.00     0.231 C 
HETATM   29  C   UNL     1      -3.846   7.024 -26.850  1.00  0.00     0.034 C 
ENDBRANCH  24  28
ENDBRANCH  23  24
ENDBRANCH   1  23
BRANCH   2  30
HETATM   30  C   UNL     1      -0.859   7.805 -28.955  1.00  0.00     0.225 A 
HETATM   31  N   UNL     1      -1.560   8.879 -29.328  1.00  0.00    -0.081 NA
HETATM   32  O   UNL     1      -1.209   9.845 -28.379  1.00  0.00    -0.103 OA
HETATM   33  N   UNL     1      -0.286   9.345 -27.473  1.00  0.00    -0.083 NA
HETATM   34  C   UNL     1      -0.066   8.082 -27.830  1.00  0.00     0.201 A 
BRANCH  34  35
HETATM   35  N   UNL     1       0.769   7.245 -27.196  1.00  0.00    -0.379 N 
HETATM   36  H   UNL     1       1.637   6.952 -27.638  1.00  0.00     0.158 HD
HETATM   37  H   UNL     1       0.530   6.734 -26.349  1.00  0.00     0.158 HD
ENDBRANCH  34  35
ENDBRANCH   2  30
TORSDOF 11
ENDMDL
MODEL 5
REMARK VINA RESULT:      -7.5      4.270     10.308
REMARK  11 active torsions:
REMARK  status: ('A' for Active; 'I' for Inactive)
REMARK    1  A    between atoms: C_2  and  N_3 
REMARK    2  A    between atoms: N_3  and  C_5 
REMARK    3  A    between atoms: N_3  and  C_32 
REMARK    4  A    between atoms: C_5  and  C_6 
REMARK    5  A    between atoms: N_7  and  C_8 
REMARK    6  A    between atoms: C_12  and  N_13 
REMARK    7  A    between atoms: C_16  and  C_17 
REMARK       I    between atoms: C_17  and  N_18 
REMARK    8  A    between atoms: N_18  and  N_19 
REMARK    9  A    between atoms: C_20  and  C_21 
REMARK   10  A    between atoms: C_25  and  O_26 
REMARK   11  A    between atoms: C_27  and  O_28 
ROOT
HETATM    1  C   UNL     1      -3.248   6.608 -29.732  1.00  0.00     0.096 A 
HETATM    2  N   UNL     1      -3.216   7.332 -28.544  1.00  0.00    -0.215 N 
HETATM    3  N   UNL     1      -4.423   7.218 -27.930  1.00  0.00     0.012 NA
HETATM    4  N   UNL     1      -5.184   6.380 -28.616  1.00  0.00    -0.152 NA
HETATM    5  C   UNL     1      -4.488   5.983 -29.720  1.00  0.00     0.170 A 
ENDROOT
BRANCH   5   6
HETATM    6  C   UNL     1      -4.998   5.042 -30.708  1.00  0.00     0.293 C 
HETATM    7  N   UNL     1      -4.607   3.733 -30.499  1.00  0.00    -0.242 N 
HETATM    8  H   UNL     1      -4.016   3.491 -29.708  1.00  0.00     0.192 HD
HETATM    9  O   UNL     1      -5.690   5.446 -31.640  1.00  0.00    -0.264 OA
BRANCH   7  10
HETATM   10  N   UNL     1      -5.052   2.766 -31.347  1.00  0.00    -0.184 NA
HETATM   11  C   UNL     1      -4.306   1.714 -31.464  1.00  0.00     0.150 C 
BRANCH  11  12
HETATM   12  C   UNL     1      -4.705   0.594 -32.341  1.00  0.00    -0.013 A 
HETATM   13  C   UNL     1      -5.767   0.747 -33.239  1.00  0.00     0.035 A 
HETATM   14  C   UNL     1      -6.137  -0.323 -34.048  1.00  0.00     0.047 A 
HETATM   15 BR   UNL     1      -7.585  -0.101 -35.251  1.00  0.00    -0.048 Br
HETATM   16  C   UNL     1      -5.449  -1.536 -33.965  1.00  0.00     0.116 A 
HETATM   17  C   UNL     1      -4.378  -1.692 -33.071  1.00  0.00     0.103 A 
HETATM   18  C   UNL     1      -4.011  -0.619 -32.253  1.00  0.00     0.052 A 
BRANCH  16  19
HETATM   19  O   UNL     1      -5.803  -2.600 -34.757  1.00  0.00    -0.357 OA
HETATM   20  H   UNL     1      -6.204  -2.253 -35.573  1.00  0.00     0.218 HD
ENDBRANCH  16  19
BRANCH  17  21
HETATM   21  O   UNL     1      -3.771  -2.920 -33.071  1.00  0.00    -0.353 OA
HETATM   22  C   UNL     1      -3.008  -3.289 -31.932  1.00  0.00     0.210 C 
ENDBRANCH  17  21
ENDBRANCH  11  12
ENDBRANCH   7  10
ENDBRANCH   5   6
BRANCH   1  23
HETATM   23  C   UNL     1      -2.203   6.624 -30.786  1.00  0.00     0.296 C 
BRANCH  23  24
HETATM   24  N   UNL     1      -1.354   5.370 -30.907  1.00  0.00    -0.066 N 
HETATM   25  H   UNL     1      -1.914   4.599 -30.514  1.00  0.00     0.280 HD
BRANCH  24  26
HETATM   26  C   UNL     1      -0.089   5.485 -30.064  1.00  0.00     0.231 C 
HETATM   27  C   UNL     1       0.555   6.853 -30.213  1.00  0.00     0.034 C 
ENDBRANCH  24  26
BRANCH  24  28
HETATM   28  C   UNL     1      -1.018   5.032 -32.352  1.00  0.00     0.231 C 
HETATM   29  C   UNL     1      -2.228   4.457 -33.073  1.00  0.00     0.034 C 
ENDBRANCH  24  28
ENDBRANCH  23  24
ENDBRANCH   1  23
BRANCH   2  30
HETATM   30  C   UNL     1      -2.134   8.042 -27.971  1.00  0.00     0.225 A 
HETATM   31  N   UNL     1      -1.943   9.328 -28.283  1.00  0.00    -0.081 NA
HETATM   32  O   UNL     1      -0.797   9.674 -27.560  1.00  0.00    -0.103 OA
HETATM   33  N   UNL     1      -0.306   8.590 -26.849  1.00  0.00    -0.083 NA
HETATM   34  C   UNL     1      -1.131   7.577 -27.105  1.00  0.00     0.201 A 
BRANCH  34  35
HETATM   35  N   UNL     1      -1.001   6.342 -26.599  1.00  0.00    -0.379 N 
HETATM   36  H   UNL     1      -0.875   6.207 -25.598  1.00  0.00     0.158 HD
HETATM   37  H   UNL     1      -0.852   5.507 -27.162  1.00  0.00     0.158 HD
ENDBRANCH  34  35
ENDBRANCH   2  30
TORSDOF 11
ENDMDL
MODEL 6
REMARK VINA RESULT:      -7.3      5.999     10.055
REMARK  11 active torsions:
REMARK  status: ('A' for Active; 'I' for Inactive)
REMARK    1  A    between atoms: C_2  and  N_3 
REMARK    2  A    between atoms: N_3  and  C_5 
REMARK    3  A    between atoms: N_3  and  C_32 
REMARK    4  A    between atoms: C_5  and  C_6 
REMARK    5  A    between atoms: N_7  and  C_8 
REMARK    6  A    between atoms: C_12  and  N_13 
REMARK    7  A    between atoms: C_16  and  C_17 
REMARK       I    between atoms: C_17  and  N_18 
REMARK    8  A    between atoms: N_18  and  N_19 
REMARK    9  A    between atoms: C_20  and  C_21 
REMARK   10  A    between atoms: C_25  and  O_26 
REMARK   11  A    between atoms: C_27  and  O_28 
ROOT
HETATM    1  C   UNL     1     -11.481   4.046 -33.954  1.00  0.00     0.096 A 
HETATM    2  N   UNL     1     -12.378   4.832 -34.672  1.00  0.00    -0.215 N 
HETATM    3  N   UNL     1     -12.768   4.147 -35.779  1.00  0.00     0.012 NA
HETATM    4  N   UNL     1     -12.245   2.932 -35.748  1.00  0.00    -0.152 NA
HETATM    5  C   UNL     1     -11.458   2.838 -34.637  1.00  0.00     0.170 A 
ENDROOT
BRANCH   5   6
HETATM    6  C   UNL     1     -10.728   1.636 -34.257  1.00  0.00     0.293 C 
HETATM    7  N   UNL     1      -9.423   1.600 -34.709  1.00  0.00    -0.242 N 
HETATM    8  H   UNL     1      -9.044   2.370 -35.254  1.00  0.00     0.192 HD
HETATM    9  O   UNL     1     -11.291   0.754 -33.612  1.00  0.00    -0.264 OA
BRANCH   7  10
HETATM   10  N   UNL     1      -8.640   0.535 -34.385  1.00  0.00    -0.184 NA
HETATM   11  C   UNL     1      -7.407   0.585 -34.779  1.00  0.00     0.150 C 
BRANCH  11  12
HETATM   12  C   UNL     1      -6.465  -0.509 -34.463  1.00  0.00    -0.013 A 
HETATM   13  C   UNL     1      -6.719  -1.809 -34.912  1.00  0.00     0.035 A 
HETATM   14  C   UNL     1      -5.827  -2.828 -34.593  1.00  0.00     0.047 A 
HETATM   15 BR   UNL     1      -6.193  -4.586 -35.201  1.00  0.00    -0.048 Br
HETATM   16  C   UNL     1      -4.686  -2.551 -33.836  1.00  0.00     0.116 A 
HETATM   17  C   UNL     1      -4.422  -1.246 -33.390  1.00  0.00     0.103 A 
HETATM   18  C   UNL     1      -5.323  -0.223 -33.704  1.00  0.00     0.052 A 
BRANCH  16  19
HETATM   19  O   UNL     1      -3.797  -3.546 -33.514  1.00  0.00    -0.357 OA
HETATM   20  H   UNL     1      -3.900  -3.754 -32.568  1.00  0.00     0.218 HD
ENDBRANCH  16  19
BRANCH  17  21
HETATM   21  O   UNL     1      -3.276  -1.083 -32.657  1.00  0.00    -0.353 OA
HETATM   22  C   UNL     1      -3.356  -0.342 -31.448  1.00  0.00     0.210 C 
ENDBRANCH  17  21
ENDBRANCH  11  12
ENDBRANCH   7  10
ENDBRANCH   5   6
BRANCH   1  23
HETATM   23  C   UNL     1     -10.679   4.493 -32.787  1.00  0.00     0.296 C 
BRANCH  23  24
HETATM   24  N   UNL     1     -11.105   3.949 -31.433  1.00  0.00    -0.066 N 
HETATM   25  H   UNL     1     -11.596   3.061 -31.617  1.00  0.00     0.280 HD
BRANCH  24  26
HETATM   26  C   UNL     1     -12.100   4.886 -30.758  1.00  0.00     0.231 C 
HETATM   27  C   UNL     1     -13.434   4.200 -30.518  1.00  0.00     0.034 C 
ENDBRANCH  24  26
BRANCH  24  28
HETATM   28  C   UNL     1      -9.920   3.662 -30.523  1.00  0.00     0.231 C 
HETATM   29  C   UNL     1      -9.094   2.499 -31.052  1.00  0.00     0.034 C 
ENDBRANCH  24  28
ENDBRANCH  23  24
ENDBRANCH   1  23
BRANCH   2  30
HETATM   30  C   UNL     1     -12.893   6.109 -34.344  1.00  0.00     0.225 A 
HETATM   31  N   UNL     1     -14.028   6.208 -33.645  1.00  0.00    -0.081 NA
HETATM   32  O   UNL     1     -14.227   7.588 -33.537  1.00  0.00    -0.103 OA
HETATM   33  N   UNL     1     -13.227   8.292 -34.192  1.00  0.00    -0.083 NA
HETATM   34  C   UNL     1     -12.402   7.376 -34.695  1.00  0.00     0.201 A 
BRANCH  34  35
HETATM   35  N   UNL     1     -11.296   7.654 -35.402  1.00  0.00    -0.379 N 
HETATM   36  H   UNL     1     -10.467   8.018 -34.939  1.00  0.00     0.158 HD
HETATM   37  H   UNL     1     -11.263   7.685 -36.419  1.00  0.00     0.158 HD
ENDBRANCH  34  35
ENDBRANCH   2  30
TORSDOF 11
ENDMDL
MODEL 7
REMARK VINA RESULT:      -7.3      5.890     10.006
REMARK  11 active torsions:
REMARK  status: ('A' for Active; 'I' for Inactive)
REMARK    1  A    between atoms: C_2  and  N_3 
REMARK    2  A    between atoms: N_3  and  C_5 
REMARK    3  A    between atoms: N_3  and  C_32 
REMARK    4  A    between atoms: C_5  and  C_6 
REMARK    5  A    between atoms: N_7  and  C_8 
REMARK    6  A    between atoms: C_12  and  N_13 
REMARK    7  A    between atoms: C_16  and  C_17 
REMARK       I    between atoms: C_17  and  N_18 
REMARK    8  A    between atoms: N_18  and  N_19 
REMARK    9  A    between atoms: C_20  and  C_21 
REMARK   10  A    between atoms: C_25  and  O_26 
REMARK   11  A    between atoms: C_27  and  O_28 
ROOT
HETATM    1  C   UNL     1     -11.976   3.660 -33.362  1.00  0.00     0.096 A 
HETATM    2  N   UNL     1     -12.737   4.590 -34.064  1.00  0.00    -0.215 N 
HETATM    3  N   UNL     1     -12.705   4.272 -35.386  1.00  0.00     0.012 NA
HETATM    4  N   UNL     1     -12.048   3.134 -35.545  1.00  0.00    -0.152 NA
HETATM    5  C   UNL     1     -11.598   2.730 -34.322  1.00  0.00     0.170 A 
ENDROOT
BRANCH   5   6
HETATM    6  C   UNL     1     -10.844   1.505 -34.097  1.00  0.00     0.293 C 
HETATM    7  N   UNL     1      -9.566   1.520 -34.622  1.00  0.00    -0.242 N 
HETATM    8  H   UNL     1      -9.220   2.342 -35.114  1.00  0.00     0.192 HD
HETATM    9  O   UNL     1     -11.367   0.562 -33.507  1.00  0.00    -0.264 OA
BRANCH   7  10
HETATM   10  N   UNL     1      -8.763   0.437 -34.444  1.00  0.00    -0.184 NA
HETATM   11  C   UNL     1      -7.487   0.651 -34.486  1.00  0.00     0.150 C 
BRANCH  11  12
HETATM   12  C   UNL     1      -6.524  -0.452 -34.283  1.00  0.00    -0.013 A 
HETATM   13  C   UNL     1      -6.788  -1.721 -34.809  1.00  0.00     0.035 A 
HETATM   14  C   UNL     1      -5.876  -2.751 -34.597  1.00  0.00     0.047 A 
HETATM   15 BR   UNL     1      -6.253  -4.466 -35.309  1.00  0.00    -0.048 Br
HETATM   16  C   UNL     1      -4.707  -2.515 -33.868  1.00  0.00     0.116 A 
HETATM   17  C   UNL     1      -4.435  -1.241 -33.345  1.00  0.00     0.103 A 
HETATM   18  C   UNL     1      -5.355  -0.208 -33.552  1.00  0.00     0.052 A 
BRANCH  16  19
HETATM   19  O   UNL     1      -3.799  -3.521 -33.651  1.00  0.00    -0.357 OA
HETATM   20  H   UNL     1      -4.281  -4.301 -33.323  1.00  0.00     0.218 HD
ENDBRANCH  16  19
BRANCH  17  21
HETATM   21  O   UNL     1      -3.262  -1.117 -32.648  1.00  0.00    -0.353 OA
HETATM   22  C   UNL     1      -3.239  -0.247 -31.526  1.00  0.00     0.210 C 
ENDBRANCH  17  21
ENDBRANCH  11  12
ENDBRANCH   7  10
ENDBRANCH   5   6
BRANCH   1  23
HETATM   23  C   UNL     1     -11.601   3.752 -31.929  1.00  0.00     0.296 C 
BRANCH  23  24
HETATM   24  N   UNL     1     -10.147   4.085 -31.637  1.00  0.00    -0.066 N 
HETATM   25  H   UNL     1      -9.629   3.920 -32.512  1.00  0.00     0.280 HD
BRANCH  24  26
HETATM   26  C   UNL     1      -9.573   3.143 -30.585  1.00  0.00     0.231 C 
HETATM   27  C   UNL     1      -8.572   2.177 -31.193  1.00  0.00     0.034 C 
ENDBRANCH  24  26
BRANCH  24  28
HETATM   28  C   UNL     1      -9.954   5.540 -31.233  1.00  0.00     0.231 C 
HETATM   29  C   UNL     1      -9.256   5.643 -29.885  1.00  0.00     0.034 C 
ENDBRANCH  24  28
ENDBRANCH  23  24
ENDBRANCH   1  23
BRANCH   2  30
HETATM   30  C   UNL     1     -13.494   5.674 -33.559  1.00  0.00     0.225 A 
HETATM   31  N   UNL     1     -13.022   6.920 -33.664  1.00  0.00    -0.081 NA
HETATM   32  O   UNL     1     -14.010   7.698 -33.051  1.00  0.00    -0.103 OA
HETATM   33  N   UNL     1     -15.041   6.908 -32.567  1.00  0.00    -0.083 NA
HETATM   34  C   UNL     1     -14.722   5.654 -32.879  1.00  0.00     0.201 A 
BRANCH  34  35
HETATM   35  N   UNL     1     -15.472   4.581 -32.585  1.00  0.00    -0.379 N 
HETATM   36  H   UNL     1     -16.486   4.633 -32.636  1.00  0.00     0.158 HD
HETATM   37  H   UNL     1     -15.112   3.736 -32.145  1.00  0.00     0.158 HD
ENDBRANCH  34  35
ENDBRANCH   2  30
TORSDOF 11
ENDMDL
MODEL 8
REMARK VINA RESULT:      -7.3      4.539     10.259
REMARK  11 active torsions:
REMARK  status: ('A' for Active; 'I' for Inactive)
REMARK    1  A    between atoms: C_2  and  N_3 
REMARK    2  A    between atoms: N_3  and  C_5 
REMARK    3  A    between atoms: N_3  and  C_32 
REMARK    4  A    between atoms: C_5  and  C_6 
REMARK    5  A    between atoms: N_7  and  C_8 
REMARK    6  A    between atoms: C_12  and  N_13 
REMARK    7  A    between atoms: C_16  and  C_17 
REMARK       I    between atoms: C_17  and  N_18 
REMARK    8  A    between atoms: N_18  and  N_19 
REMARK    9  A    between atoms: C_20  and  C_21 
REMARK   10  A    between atoms: C_25  and  O_26 
REMARK   11  A    between atoms: C_27  and  O_28 
ROOT
HETATM    1  C   UNL     1      -3.954   6.709 -28.420  1.00  0.00     0.096 A 
HETATM    2  N   UNL     1      -3.828   7.212 -27.129  1.00  0.00    -0.215 N 
HETATM    3  N   UNL     1      -4.937   6.872 -26.419  1.00  0.00     0.012 NA
HETATM    4  N   UNL     1      -5.709   6.095 -27.161  1.00  0.00    -0.152 NA
HETATM    5  C   UNL     1      -5.130   5.971 -28.389  1.00  0.00     0.170 A 
ENDROOT
BRANCH   5   6
HETATM    6  C   UNL     1      -5.685   5.173 -29.474  1.00  0.00     0.293 C 
HETATM    7  N   UNL     1      -5.417   3.820 -29.378  1.00  0.00    -0.242 N 
HETATM    8  H   UNL     1      -4.876   3.456 -28.597  1.00  0.00     0.192 HD
HETATM    9  O   UNL     1      -6.307   5.719 -30.382  1.00  0.00    -0.264 OA
BRANCH   7  10
HETATM   10  N   UNL     1      -5.914   2.978 -30.323  1.00  0.00    -0.184 NA
HETATM   11  C   UNL     1      -5.310   1.841 -30.458  1.00  0.00     0.150 C 
BRANCH  11  12
HETATM   12  C   UNL     1      -5.780   0.842 -31.441  1.00  0.00    -0.013 A 
HETATM   13  C   UNL     1      -4.908  -0.140 -31.918  1.00  0.00     0.035 A 
HETATM   14  C   UNL     1      -5.365  -1.064 -32.854  1.00  0.00     0.047 A 
HETATM   15 BR   UNL     1      -4.166  -2.383 -33.498  1.00  0.00    -0.048 Br
HETATM   16  C   UNL     1      -6.687  -1.010 -33.305  1.00  0.00     0.116 A 
HETATM   17  C   UNL     1      -7.569  -0.030 -32.822  1.00  0.00     0.103 A 
HETATM   18  C   UNL     1      -7.106   0.903 -31.888  1.00  0.00     0.052 A 
BRANCH  16  19
HETATM   19  O   UNL     1      -7.152  -1.914 -34.227  1.00  0.00    -0.357 OA
HETATM   20  H   UNL     1      -6.766  -1.693 -35.093  1.00  0.00     0.218 HD
ENDBRANCH  16  19
BRANCH  17  21
HETATM   21  O   UNL     1      -8.841  -0.066 -33.328  1.00  0.00    -0.353 OA
HETATM   22  C   UNL     1      -9.839   0.712 -32.685  1.00  0.00     0.210 C 
ENDBRANCH  17  21
ENDBRANCH  11  12
ENDBRANCH   7  10
ENDBRANCH   5   6
BRANCH   1  23
HETATM   23  C   UNL     1      -3.054   7.015 -29.561  1.00  0.00     0.296 C 
BRANCH  23  24
HETATM   24  N   UNL     1      -2.193   5.867 -30.062  1.00  0.00    -0.066 N 
HETATM   25  H   UNL     1      -2.400   5.061 -29.454  1.00  0.00     0.280 HD
BRANCH  24  26
HETATM   26  C   UNL     1      -0.711   6.188 -29.901  1.00  0.00     0.231 C 
HETATM   27  C   UNL     1      -0.141   6.823 -31.157  1.00  0.00     0.034 C 
ENDBRANCH  24  26
BRANCH  24  28
HETATM   28  C   UNL     1      -2.516   5.481 -31.498  1.00  0.00     0.231 C 
HETATM   29  C   UNL     1      -2.541   3.970 -31.664  1.00  0.00     0.034 C 
ENDBRANCH  24  28
ENDBRANCH  23  24
ENDBRANCH   1  23
BRANCH   2  30
HETATM   30  C   UNL     1      -2.741   7.914 -26.555  1.00  0.00     0.225 A 
HETATM   31  N   UNL     1      -2.843   9.228 -26.333  1.00  0.00    -0.081 NA
HETATM   32  O   UNL     1      -1.598   9.566 -25.793  1.00  0.00    -0.103 OA
HETATM   33  N   UNL     1      -0.764   8.460 -25.724  1.00  0.00    -0.083 NA
HETATM   34  C   UNL     1      -1.470   7.437 -26.199  1.00  0.00     0.201 A 
BRANCH  34  35
HETATM   35  N   UNL     1      -1.016   6.178 -26.297  1.00  0.00    -0.379 N 
HETATM   36  H   UNL     1      -0.062   5.953 -26.025  1.00  0.00     0.158 HD
HETATM   37  H   UNL     1      -1.505   5.432 -26.787  1.00  0.00     0.158 HD
ENDBRANCH  34  35
ENDBRANCH   2  30
TORSDOF 11
ENDMDL
MODEL 9
REMARK VINA RESULT:      -7.2      6.138      9.976
REMARK  11 active torsions:
REMARK  status: ('A' for Active; 'I' for Inactive)
REMARK    1  A    between atoms: C_2  and  N_3 
REMARK    2  A    between atoms: N_3  and  C_5 
REMARK    3  A    between atoms: N_3  and  C_32 
REMARK    4  A    between atoms: C_5  and  C_6 
REMARK    5  A    between atoms: N_7  and  C_8 
REMARK    6  A    between atoms: C_12  and  N_13 
REMARK    7  A    between atoms: C_16  and  C_17 
REMARK       I    between atoms: C_17  and  N_18 
REMARK    8  A    between atoms: N_18  and  N_19 
REMARK    9  A    between atoms: C_20  and  C_21 
REMARK   10  A    between atoms: C_25  and  O_26 
REMARK   11  A    between atoms: C_27  and  O_28 
ROOT
HETATM    1  C   UNL     1     -11.028   4.333 -33.611  1.00  0.00     0.096 A 
HETATM    2  N   UNL     1     -11.224   5.563 -34.233  1.00  0.00    -0.215 N 
HETATM    3  N   UNL     1     -10.043   5.974 -34.768  1.00  0.00     0.012 NA
HETATM    4  N   UNL     1      -9.136   5.024 -34.604  1.00  0.00    -0.152 NA
HETATM    5  C   UNL     1      -9.712   4.004 -33.907  1.00  0.00     0.170 A 
ENDROOT
BRANCH   5   6
HETATM    6  C   UNL     1      -9.022   2.771 -33.551  1.00  0.00     0.293 C 
HETATM    7  N   UNL     1      -8.894   1.872 -34.592  1.00  0.00    -0.242 N 
HETATM    8  H   UNL     1      -9.262   2.095 -35.515  1.00  0.00     0.192 HD
HETATM    9  O   UNL     1      -8.636   2.595 -32.398  1.00  0.00    -0.264 OA
BRANCH   7  10
HETATM   10  N   UNL     1      -8.240   0.699 -34.378  1.00  0.00    -0.184 NA
HETATM   11  C   UNL     1      -6.952   0.723 -34.518  1.00  0.00     0.150 C 
BRANCH  11  12
HETATM   12  C   UNL     1      -6.141  -0.491 -34.288  1.00  0.00    -0.013 A 
HETATM   13  C   UNL     1      -6.533  -1.714 -34.840  1.00  0.00     0.035 A 
HETATM   14  C   UNL     1      -5.764  -2.849 -34.602  1.00  0.00     0.047 A 
HETATM   15 BR   UNL     1      -6.315  -4.501 -35.349  1.00  0.00    -0.048 Br
HETATM   16  C   UNL     1      -4.608  -2.762 -33.821  1.00  0.00     0.116 A 
HETATM   17  C   UNL     1      -4.206  -1.534 -33.271  1.00  0.00     0.103 A 
HETATM   18  C   UNL     1      -4.983  -0.395 -33.505  1.00  0.00     0.052 A 
BRANCH  16  19
HETATM   19  O   UNL     1      -3.839  -3.873 -33.578  1.00  0.00    -0.357 OA
HETATM   20  H   UNL     1      -4.058  -4.548 -34.244  1.00  0.00     0.218 HD
ENDBRANCH  16  19
BRANCH  17  21
HETATM   21  O   UNL     1      -3.058  -1.559 -32.525  1.00  0.00    -0.353 OA
HETATM   22  C   UNL     1      -2.885  -0.559 -31.531  1.00  0.00     0.210 C 
ENDBRANCH  17  21
ENDBRANCH  11  12
ENDBRANCH   7  10
ENDBRANCH   5   6
BRANCH   1  23
HETATM   23  C   UNL     1     -12.012   3.632 -32.749  1.00  0.00     0.296 C 
BRANCH  23  24
HETATM   24  N   UNL     1     -13.226   3.050 -33.454  1.00  0.00    -0.066 N 
HETATM   25  H   UNL     1     -13.620   3.808 -34.030  1.00  0.00     0.280 HD
BRANCH  24  26
HETATM   26  C   UNL     1     -14.296   2.641 -32.449  1.00  0.00     0.231 C 
HETATM   27  C   UNL     1     -15.177   3.818 -32.067  1.00  0.00     0.034 C 
ENDBRANCH  24  26
BRANCH  24  28
HETATM   28  C   UNL     1     -12.865   1.889 -34.370  1.00  0.00     0.231 C 
HETATM   29  C   UNL     1     -13.944   0.817 -34.344  1.00  0.00     0.034 C 
ENDBRANCH  24  28
ENDBRANCH  23  24
ENDBRANCH   1  23
BRANCH   2  30
HETATM   30  C   UNL     1     -12.425   6.297 -34.381  1.00  0.00     0.225 A 
HETATM   31  N   UNL     1     -13.454   5.762 -35.044  1.00  0.00    -0.081 NA
HETATM   32  O   UNL     1     -14.428   6.764 -35.002  1.00  0.00    -0.103 OA
HETATM   33  N   UNL     1     -13.962   7.890 -34.340  1.00  0.00    -0.083 NA
HETATM   34  C   UNL     1     -12.719   7.603 -33.958  1.00  0.00     0.201 A 
BRANCH  34  35
HETATM   35  N   UNL     1     -11.919   8.439 -33.278  1.00  0.00    -0.379 N 
HETATM   36  H   UNL     1     -11.305   9.080 -33.775  1.00  0.00     0.158 HD
HETATM   37  H   UNL     1     -11.749   8.378 -32.277  1.00  0.00     0.158 HD
ENDBRANCH  34  35
ENDBRANCH   2  30
TORSDOF 11
ENDMDL
MODEL 10
REMARK VINA RESULT:      -7.2      5.504      9.407
REMARK  11 active torsions:
REMARK  status: ('A' for Active; 'I' for Inactive)
REMARK    1  A    between atoms: C_2  and  N_3 
REMARK    2  A    between atoms: N_3  and  C_5 
REMARK    3  A    between atoms: N_3  and  C_32 
REMARK    4  A    between atoms: C_5  and  C_6 
REMARK    5  A    between atoms: N_7  and  C_8 
REMARK    6  A    between atoms: C_12  and  N_13 
REMARK    7  A    between atoms: C_16  and  C_17 
REMARK       I    between atoms: C_17  and  N_18 
REMARK    8  A    between atoms: N_18  and  N_19 
REMARK    9  A    between atoms: C_20  and  C_21 
REMARK   10  A    between atoms: C_25  and  O_26 
REMARK   11  A    between atoms: C_27  and  O_28 
ROOT
HETATM    1  C   UNL     1      -5.491   3.167 -33.010  1.00  0.00     0.096 A 
HETATM    2  N   UNL     1      -4.561   4.178 -33.231  1.00  0.00    -0.215 N 
HETATM    3  N   UNL     1      -5.141   5.147 -33.987  1.00  0.00     0.012 NA
HETATM    4  N   UNL     1      -6.418   4.852 -34.171  1.00  0.00    -0.152 NA
HETATM    5  C   UNL     1      -6.664   3.649 -33.577  1.00  0.00     0.170 A 
ENDROOT
BRANCH   5   6
HETATM    6  C   UNL     1      -7.970   3.004 -33.557  1.00  0.00     0.293 C 
HETATM    7  N   UNL     1      -8.844   3.523 -32.621  1.00  0.00    -0.242 N 
HETATM    8  H   UNL     1      -8.559   4.293 -32.019  1.00  0.00     0.192 HD
HETATM    9  O   UNL     1      -8.202   2.065 -34.314  1.00  0.00    -0.264 OA
BRANCH   7  10
HETATM   10  N   UNL     1     -10.102   3.014 -32.536  1.00  0.00    -0.184 NA
HETATM   11  C   UNL     1     -11.066   3.793 -32.912  1.00  0.00     0.150 C 
BRANCH  11  12
HETATM   12  C   UNL     1     -12.470   3.333 -32.882  1.00  0.00    -0.013 A 
HETATM   13  C   UNL     1     -13.477   4.178 -32.404  1.00  0.00     0.035 A 
HETATM   14  C   UNL     1     -14.792   3.722 -32.370  1.00  0.00     0.047 A 
HETATM   15 BR   UNL     1     -16.143   4.876 -31.711  1.00  0.00    -0.048 Br
HETATM   16  C   UNL     1     -15.100   2.433 -32.815  1.00  0.00     0.116 A 
HETATM   17  C   UNL     1     -14.093   1.584 -33.302  1.00  0.00     0.103 A 
HETATM   18  C   UNL     1     -12.771   2.040 -33.329  1.00  0.00     0.052 A 
BRANCH  16  19
HETATM   19  O   UNL     1     -16.392   1.971 -32.787  1.00  0.00    -0.357 OA
HETATM   20  H   UNL     1     -16.388   1.077 -32.401  1.00  0.00     0.218 HD
ENDBRANCH  16  19
BRANCH  17  21
HETATM   21  O   UNL     1     -14.503   0.343 -33.714  1.00  0.00    -0.353 OA
HETATM   22  C   UNL     1     -13.574  -0.728 -33.632  1.00  0.00     0.210 C 
ENDBRANCH  17  21
ENDBRANCH  11  12
ENDBRANCH   7  10
ENDBRANCH   5   6
BRANCH   1  23
HETATM   23  C   UNL     1      -5.207   1.847 -32.392  1.00  0.00     0.296 C 
BRANCH  23  24
HETATM   24  N   UNL     1      -6.130   0.708 -32.791  1.00  0.00    -0.066 N 
HETATM   25  H   UNL     1      -6.931   1.138 -33.278  1.00  0.00     0.280 HD
BRANCH  24  26
HETATM   26  C   UNL     1      -6.678  -0.006 -31.561  1.00  0.00     0.231 C 
HETATM   27  C   UNL     1      -6.265   0.700 -30.280  1.00  0.00     0.034 C 
ENDBRANCH  24  26
BRANCH  24  28
HETATM   28  C   UNL     1      -5.463  -0.275 -33.742  1.00  0.00     0.231 C 
HETATM   29  C   UNL     1      -6.499  -1.039 -34.552  1.00  0.00     0.034 C 
ENDBRANCH  24  28
ENDBRANCH  23  24
ENDBRANCH   1  23
BRANCH   2  30
HETATM   30  C   UNL     1      -3.238   4.284 -32.739  1.00  0.00     0.225 A 
HETATM   31  N   UNL     1      -2.990   4.064 -31.444  1.00  0.00    -0.081 NA
HETATM   32  O   UNL     1      -1.613   4.276 -31.333  1.00  0.00    -0.103 OA
HETATM   33  N   UNL     1      -1.062   4.645 -32.551  1.00  0.00    -0.083 NA
HETATM   34  C   UNL     1      -2.068   4.653 -33.422  1.00  0.00     0.201 A 
BRANCH  34  35
HETATM   35  N   UNL     1      -1.947   4.958 -34.723  1.00  0.00    -0.379 N 
HETATM   36  H   UNL     1      -2.431   4.407 -35.428  1.00  0.00     0.158 HD
HETATM   37  H   UNL     1      -1.263   5.615 -35.094  1.00  0.00     0.158 HD
ENDBRANCH  34  35
ENDBRANCH   2  30
TORSDOF 11
ENDMDL
