MODEL 1
REMARK VINA RESULT:      -9.2      0.000      0.000
REMARK  8 active torsions:
REMARK  status: ('A' for Active; 'I' for Inactive)
REMARK    1  A    between atoms: O_2  and  C_3 
REMARK    2  A    between atoms: C_5  and  C_6 
REMARK    3  A    between atoms: C_6  and  N_7 
REMARK    4  A    between atoms: C_16  and  C_17 
REMARK    5  A    between atoms: C_17  and  N_18 
REMARK    6  A    between atoms: C_22  and  O_23 
REMARK    7  A    between atoms: C_22  and  C_24 
REMARK    8  A    between atoms: C_34  and  O_35 
ROOT
HETATM    1  N   UNL     1      -6.338  -0.253 -32.813  1.00  0.00    -0.061 N 
HETATM    2  H   UNL     1      -6.500  -1.052 -32.190  1.00  0.00     0.280 HD
HETATM    3  C   UNL     1      -6.107   0.918 -31.886  1.00  0.00     0.276 C 
HETATM    4  C   UNL     1      -5.623   2.171 -32.551  1.00  0.00     0.002 A 
HETATM    5  C   UNL     1      -6.437   2.824 -33.475  1.00  0.00     0.076 A 
HETATM    6  O   UNL     1      -7.695   2.363 -33.744  1.00  0.00    -0.349 OA
HETATM    7  C   UNL     1      -7.667   1.148 -34.505  1.00  0.00     0.203 C 
HETATM    8  C   UNL     1      -7.635  -0.099 -33.607  1.00  0.00     0.262 C 
HETATM    9  C   UNL     1      -4.361   2.717 -32.253  1.00  0.00     0.020 A 
HETATM   10  C   UNL     1      -3.905   3.889 -32.884  1.00  0.00    -0.032 A 
HETATM   11  C   UNL     1      -4.750   4.521 -33.807  1.00  0.00     0.011 A 
HETATM   12  C   UNL     1      -6.018   4.002 -34.086  1.00  0.00     0.038 A 
ENDROOT
BRANCH  10  13
HETATM   13  C   UNL     1      -2.533   4.445 -32.576  1.00  0.00     0.273 C 
BRANCH  13  14
HETATM   14  N   UNL     1      -2.481   5.875 -32.067  1.00  0.00    -0.067 N 
HETATM   15  H   UNL     1      -2.942   6.426 -32.805  1.00  0.00     0.280 HD
HETATM   16  C   UNL     1      -3.302   6.095 -30.822  1.00  0.00     0.238 C 
HETATM   17  C   UNL     1      -3.317   7.575 -30.463  1.00  0.00     0.071 C 
HETATM   18  C   UNL     1      -1.900   8.163 -30.289  1.00  0.00     0.089 C 
HETATM   19  C   UNL     1      -1.144   7.901 -31.610  1.00  0.00     0.071 C 
HETATM   20  C   UNL     1      -1.081   6.421 -31.943  1.00  0.00     0.238 C 
BRANCH  18  21
HETATM   21  O   UNL     1      -2.066   9.579 -30.201  1.00  0.00    -0.385 OA
HETATM   22  H   UNL     1      -2.156   9.965 -31.093  1.00  0.00     0.211 HD
ENDBRANCH  18  21
BRANCH  18  23
HETATM   23  C   UNL     1      -1.129   7.695 -29.060  1.00  0.00    -0.006 A 
HETATM   24  C   UNL     1      -1.743   7.149 -27.933  1.00  0.00     0.126 A 
HETATM   25  N   UNL     1      -1.088   6.667 -26.855  1.00  0.00    -0.272 NA
HETATM   26  C   UNL     1       0.252   6.799 -26.836  1.00  0.00     0.116 A 
HETATM   27  C   UNL     1       0.967   7.379 -27.866  1.00  0.00     0.020 A 
HETATM   28  C   UNL     1       0.267   7.831 -28.983  1.00  0.00     0.013 A 
ENDBRANCH  18  23
ENDBRANCH  13  14
ENDBRANCH  10  13
BRANCH   1  29
HETATM   29  C   UNL     1      -5.171  -0.681 -33.697  1.00  0.00     0.276 C 
BRANCH  29  30
HETATM   30  C   UNL     1      -4.664  -2.093 -33.531  1.00  0.00     0.004 A 
HETATM   31  C   UNL     1      -5.071  -3.110 -34.410  1.00  0.00     0.048 A 
HETATM   32  C   UNL     1      -4.642  -4.429 -34.239  1.00  0.00     0.069 A 
HETATM   33  C   UNL     1      -3.748  -4.730 -33.218  1.00  0.00     0.039 A 
HETATM   34  C   UNL     1      -3.291  -3.721 -32.363  1.00  0.00     0.040 A 
HETATM   35  C   UNL     1      -3.743  -2.408 -32.511  1.00  0.00     0.076 A 
BRANCH  32  36
HETATM   36  O   UNL     1      -5.190  -5.318 -35.120  1.00  0.00    -0.356 OA
HETATM   37  C   UNL     1      -6.414  -4.942 -35.744  1.00  0.00     0.210 C 
ENDBRANCH  32  36
BRANCH  35  38
HETATM   38  O   UNL     1      -3.382  -1.374 -31.688  1.00  0.00    -0.355 OA
HETATM   39  C   UNL     1      -2.012  -0.977 -31.693  1.00  0.00     0.210 C 
ENDBRANCH  35  38
ENDBRANCH  29  30
ENDBRANCH   1  29
TORSDOF 8
ENDMDL
MODEL 2
REMARK VINA RESULT:      -9.2      1.168      2.589
REMARK  8 active torsions:
REMARK  status: ('A' for Active; 'I' for Inactive)
REMARK    1  A    between atoms: O_2  and  C_3 
REMARK    2  A    between atoms: C_5  and  C_6 
REMARK    3  A    between atoms: C_6  and  N_7 
REMARK    4  A    between atoms: C_16  and  C_17 
REMARK    5  A    between atoms: C_17  and  N_18 
REMARK    6  A    between atoms: C_22  and  O_23 
REMARK    7  A    between atoms: C_22  and  C_24 
REMARK    8  A    between atoms: C_34  and  O_35 
ROOT
HETATM    1  N   UNL     1      -7.735  -0.129 -32.924  1.00  0.00    -0.061 N 
HETATM    2  H   UNL     1      -7.859  -0.958 -32.333  1.00  0.00     0.280 HD
HETATM    3  C   UNL     1      -7.190   0.930 -31.995  1.00  0.00     0.276 C 
HETATM    4  C   UNL     1      -6.709   2.181 -32.665  1.00  0.00     0.002 A 
HETATM    5  C   UNL     1      -7.610   2.988 -33.356  1.00  0.00     0.076 A 
HETATM    6  O   UNL     1      -8.941   2.679 -33.385  1.00  0.00    -0.349 OA
HETATM    7  C   UNL     1      -9.206   1.537 -34.210  1.00  0.00     0.203 C 
HETATM    8  C   UNL     1      -9.138   0.220 -33.419  1.00  0.00     0.262 C 
HETATM    9  C   UNL     1      -5.358   2.572 -32.604  1.00  0.00     0.020 A 
HETATM   10  C   UNL     1      -4.906   3.742 -33.241  1.00  0.00    -0.032 A 
HETATM   11  C   UNL     1      -5.841   4.532 -33.925  1.00  0.00     0.011 A 
HETATM   12  C   UNL     1      -7.190   4.167 -33.965  1.00  0.00     0.038 A 
ENDROOT
BRANCH  10  13
HETATM   13  C   UNL     1      -3.446   4.130 -33.191  1.00  0.00     0.273 C 
BRANCH  13  14
HETATM   14  N   UNL     1      -3.144   5.599 -32.948  1.00  0.00    -0.067 N 
HETATM   15  H   UNL     1      -3.531   6.079 -33.772  1.00  0.00     0.280 HD
HETATM   16  C   UNL     1      -3.879   6.170 -31.762  1.00  0.00     0.238 C 
HETATM   17  C   UNL     1      -3.640   7.671 -31.674  1.00  0.00     0.071 C 
HETATM   18  C   UNL     1      -2.141   8.035 -31.610  1.00  0.00     0.089 C 
HETATM   19  C   UNL     1      -1.480   7.422 -32.862  1.00  0.00     0.071 C 
HETATM   20  C   UNL     1      -1.670   5.917 -32.924  1.00  0.00     0.238 C 
BRANCH  18  21
HETATM   21  O   UNL     1      -2.069   9.452 -31.777  1.00  0.00    -0.385 OA
HETATM   22  H   UNL     1      -2.288   9.903 -30.939  1.00  0.00     0.211 HD
ENDBRANCH  18  21
BRANCH  18  23
HETATM   23  C   UNL     1      -1.420   7.671 -30.317  1.00  0.00    -0.006 A 
HETATM   24  C   UNL     1      -2.065   7.564 -29.085  1.00  0.00     0.126 A 
HETATM   25  N   UNL     1      -1.471   7.181 -27.934  1.00  0.00    -0.272 NA
HETATM   26  C   UNL     1      -0.142   6.967 -27.966  1.00  0.00     0.116 A 
HETATM   27  C   UNL     1       0.616   7.101 -29.113  1.00  0.00     0.020 A 
HETATM   28  C   UNL     1      -0.032   7.459 -30.295  1.00  0.00     0.013 A 
ENDBRANCH  18  23
ENDBRANCH  13  14
ENDBRANCH  10  13
BRANCH   1  29
HETATM   29  C   UNL     1      -6.826  -0.593 -34.058  1.00  0.00     0.276 C 
BRANCH  29  30
HETATM   30  C   UNL     1      -5.667  -1.487 -33.688  1.00  0.00     0.004 A 
HETATM   31  C   UNL     1      -4.699  -1.062 -32.763  1.00  0.00     0.048 A 
HETATM   32  C   UNL     1      -3.599  -1.864 -32.446  1.00  0.00     0.069 A 
HETATM   33  C   UNL     1      -3.491  -3.130 -33.011  1.00  0.00     0.039 A 
HETATM   34  C   UNL     1      -4.471  -3.591 -33.897  1.00  0.00     0.040 A 
HETATM   35  C   UNL     1      -5.555  -2.780 -34.239  1.00  0.00     0.076 A 
BRANCH  32  36
HETATM   36  O   UNL     1      -2.703  -1.281 -31.597  1.00  0.00    -0.356 OA
HETATM   37  C   UNL     1      -2.992   0.043 -31.157  1.00  0.00     0.210 C 
ENDBRANCH  32  36
BRANCH  35  38
HETATM   38  O   UNL     1      -6.529  -3.137 -35.134  1.00  0.00    -0.355 OA
HETATM   39  C   UNL     1      -6.658  -4.523 -35.447  1.00  0.00     0.210 C 
ENDBRANCH  35  38
ENDBRANCH  29  30
ENDBRANCH   1  29
TORSDOF 8
ENDMDL
MODEL 3
REMARK VINA RESULT:      -9.1      2.363      3.188
REMARK  8 active torsions:
REMARK  status: ('A' for Active; 'I' for Inactive)
REMARK    1  A    between atoms: O_2  and  C_3 
REMARK    2  A    between atoms: C_5  and  C_6 
REMARK    3  A    between atoms: C_6  and  N_7 
REMARK    4  A    between atoms: C_16  and  C_17 
REMARK    5  A    between atoms: C_17  and  N_18 
REMARK    6  A    between atoms: C_22  and  O_23 
REMARK    7  A    between atoms: C_22  and  C_24 
REMARK    8  A    between atoms: C_34  and  O_35 
ROOT
HETATM    1  N   UNL     1      -8.541   0.264 -32.707  1.00  0.00    -0.061 N 
HETATM    2  H   UNL     1      -8.395  -0.692 -32.366  1.00  0.00     0.280 HD
HETATM    3  C   UNL     1      -8.437   1.134 -31.476  1.00  0.00     0.276 C 
HETATM    4  C   UNL     1      -8.392   2.609 -31.739  1.00  0.00     0.002 A 
HETATM    5  C   UNL     1      -9.487   3.244 -32.322  1.00  0.00     0.076 A 
HETATM    6  O   UNL     1     -10.625   2.545 -32.608  1.00  0.00    -0.349 OA
HETATM    7  C   UNL     1     -10.442   1.661 -33.723  1.00  0.00     0.203 C 
HETATM    8  C   UNL     1      -9.956   0.269 -33.285  1.00  0.00     0.262 C 
HETATM    9  C   UNL     1      -7.264   3.379 -31.397  1.00  0.00     0.020 A 
HETATM   10  C   UNL     1      -7.219   4.762 -31.652  1.00  0.00    -0.032 A 
HETATM   11  C   UNL     1      -8.340   5.368 -32.238  1.00  0.00     0.011 A 
HETATM   12  C   UNL     1      -9.476   4.616 -32.552  1.00  0.00     0.038 A 
ENDROOT
BRANCH  10  13
HETATM   13  C   UNL     1      -5.988   5.568 -31.308  1.00  0.00     0.273 C 
BRANCH  13  14
HETATM   14  N   UNL     1      -4.808   5.440 -32.256  1.00  0.00    -0.067 N 
HETATM   15  H   UNL     1      -5.237   5.252 -33.173  1.00  0.00     0.280 HD
HETATM   16  C   UNL     1      -4.036   6.725 -32.423  1.00  0.00     0.238 C 
HETATM   17  C   UNL     1      -2.968   6.554 -33.494  1.00  0.00     0.071 C 
HETATM   18  C   UNL     1      -2.009   5.379 -33.202  1.00  0.00     0.089 C 
HETATM   19  C   UNL     1      -2.885   4.115 -33.059  1.00  0.00     0.071 C 
HETATM   20  C   UNL     1      -3.916   4.262 -31.955  1.00  0.00     0.238 C 
BRANCH  18  21
HETATM   21  O   UNL     1      -1.235   5.194 -34.388  1.00  0.00    -0.385 OA
HETATM   22  H   UNL     1      -1.634   4.499 -34.947  1.00  0.00     0.211 HD
ENDBRANCH  18  21
BRANCH  18  23
HETATM   23  C   UNL     1      -1.051   5.575 -32.033  1.00  0.00    -0.006 A 
HETATM   24  C   UNL     1      -0.783   4.584 -31.089  1.00  0.00     0.126 A 
HETATM   25  N   UNL     1       0.107   4.700 -30.080  1.00  0.00    -0.272 NA
HETATM   26  C   UNL     1       0.719   5.890 -29.929  1.00  0.00     0.116 A 
HETATM   27  C   UNL     1       0.490   6.966 -30.764  1.00  0.00     0.020 A 
HETATM   28  C   UNL     1      -0.405   6.803 -31.821  1.00  0.00     0.013 A 
ENDBRANCH  18  23
ENDBRANCH  13  14
ENDBRANCH  10  13
BRANCH   1  29
HETATM   29  C   UNL     1      -7.479   0.457 -33.786  1.00  0.00     0.276 C 
BRANCH  29  30
HETATM   30  C   UNL     1      -6.350  -0.542 -33.825  1.00  0.00     0.004 A 
HETATM   31  C   UNL     1      -6.416  -1.670 -34.659  1.00  0.00     0.048 A 
HETATM   32  C   UNL     1      -5.395  -2.624 -34.670  1.00  0.00     0.069 A 
HETATM   33  C   UNL     1      -4.264  -2.424 -33.886  1.00  0.00     0.039 A 
HETATM   34  C   UNL     1      -4.156  -1.281 -33.086  1.00  0.00     0.040 A 
HETATM   35  C   UNL     1      -5.189  -0.341 -33.049  1.00  0.00     0.076 A 
BRANCH  32  36
HETATM   36  O   UNL     1      -5.642  -3.705 -35.468  1.00  0.00    -0.356 OA
HETATM   37  C   UNL     1      -6.768  -4.513 -35.136  1.00  0.00     0.210 C 
ENDBRANCH  32  36
BRANCH  35  38
HETATM   38  O   UNL     1      -5.182   0.777 -32.258  1.00  0.00    -0.355 OA
HETATM   39  C   UNL     1      -4.778   0.617 -30.899  1.00  0.00     0.210 C 
ENDBRANCH  35  38
ENDBRANCH  29  30
ENDBRANCH   1  29
TORSDOF 8
ENDMDL
MODEL 4
REMARK VINA RESULT:      -9.0      2.175      2.908
REMARK  8 active torsions:
REMARK  status: ('A' for Active; 'I' for Inactive)
REMARK    1  A    between atoms: O_2  and  C_3 
REMARK    2  A    between atoms: C_5  and  C_6 
REMARK    3  A    between atoms: C_6  and  N_7 
REMARK    4  A    between atoms: C_16  and  C_17 
REMARK    5  A    between atoms: C_17  and  N_18 
REMARK    6  A    between atoms: C_22  and  O_23 
REMARK    7  A    between atoms: C_22  and  C_24 
REMARK    8  A    between atoms: C_34  and  O_35 
ROOT
HETATM    1  N   UNL     1      -8.421   0.580 -32.982  1.00  0.00    -0.061 N 
HETATM    2  H   UNL     1      -8.410  -0.412 -32.725  1.00  0.00     0.280 HD
HETATM    3  C   UNL     1      -8.579   1.317 -31.673  1.00  0.00     0.276 C 
HETATM    4  C   UNL     1      -8.397   2.803 -31.750  1.00  0.00     0.002 A 
HETATM    5  C   UNL     1      -9.283   3.572 -32.503  1.00  0.00     0.076 A 
HETATM    6  O   UNL     1     -10.350   2.991 -33.130  1.00  0.00    -0.349 OA
HETATM    7  C   UNL     1      -9.943   2.207 -34.260  1.00  0.00     0.203 C 
HETATM    8  C   UNL     1      -9.648   0.747 -33.877  1.00  0.00     0.262 C 
HETATM    9  C   UNL     1      -7.351   3.450 -31.065  1.00  0.00     0.020 A 
HETATM   10  C   UNL     1      -7.177   4.843 -31.146  1.00  0.00    -0.032 A 
HETATM   11  C   UNL     1      -8.088   5.586 -31.911  1.00  0.00     0.011 A 
HETATM   12  C   UNL     1      -9.148   4.955 -32.569  1.00  0.00     0.038 A 
ENDROOT
BRANCH  10  13
HETATM   13  C   UNL     1      -6.030   5.518 -30.430  1.00  0.00     0.273 C 
BRANCH  13  14
HETATM   14  N   UNL     1      -5.036   6.268 -31.300  1.00  0.00    -0.067 N 
HETATM   15  H   UNL     1      -5.623   6.784 -31.971  1.00  0.00     0.280 HD
HETATM   16  C   UNL     1      -4.259   7.318 -30.547  1.00  0.00     0.238 C 
HETATM   17  C   UNL     1      -3.397   8.120 -31.513  1.00  0.00     0.071 C 
HETATM   18  C   UNL     1      -2.445   7.233 -32.344  1.00  0.00     0.089 C 
HETATM   19  C   UNL     1      -3.327   6.204 -33.082  1.00  0.00     0.071 C 
HETATM   20  C   UNL     1      -4.148   5.365 -32.118  1.00  0.00     0.238 C 
BRANCH  18  21
HETATM   21  O   UNL     1      -1.894   8.080 -33.354  1.00  0.00    -0.385 OA
HETATM   22  H   UNL     1      -2.493   8.122 -34.123  1.00  0.00     0.211 HD
ENDBRANCH  18  21
BRANCH  18  23
HETATM   23  C   UNL     1      -1.294   6.591 -31.579  1.00  0.00    -0.006 A 
HETATM   24  C   UNL     1      -0.795   5.322 -31.871  1.00  0.00     0.126 A 
HETATM   25  N   UNL     1       0.263   4.749 -31.258  1.00  0.00    -0.272 NA
HETATM   26  C   UNL     1       0.825   5.423 -30.236  1.00  0.00     0.116 A 
HETATM   27  C   UNL     1       0.380   6.660 -29.814  1.00  0.00     0.020 A 
HETATM   28  C   UNL     1      -0.690   7.244 -30.493  1.00  0.00     0.013 A 
ENDBRANCH  18  23
ENDBRANCH  13  14
ENDBRANCH  10  13
BRANCH   1  29
HETATM   29  C   UNL     1      -7.118   0.796 -33.747  1.00  0.00     0.276 C 
BRANCH  29  30
HETATM   30  C   UNL     1      -6.109  -0.325 -33.716  1.00  0.00     0.004 A 
HETATM   31  C   UNL     1      -6.229  -1.425 -34.581  1.00  0.00     0.048 A 
HETATM   32  C   UNL     1      -5.325  -2.489 -34.531  1.00  0.00     0.069 A 
HETATM   33  C   UNL     1      -4.251  -2.431 -33.649  1.00  0.00     0.039 A 
HETATM   34  C   UNL     1      -4.085  -1.321 -32.814  1.00  0.00     0.040 A 
HETATM   35  C   UNL     1      -5.005  -0.270 -32.841  1.00  0.00     0.076 A 
BRANCH  32  36
HETATM   36  O   UNL     1      -5.622  -3.521 -35.374  1.00  0.00    -0.356 OA
HETATM   37  C   UNL     1      -6.705  -4.370 -35.005  1.00  0.00     0.210 C 
ENDBRANCH  32  36
BRANCH  35  38
HETATM   38  O   UNL     1      -4.941   0.827 -32.023  1.00  0.00    -0.355 OA
HETATM   39  C   UNL     1      -3.752   1.614 -32.071  1.00  0.00     0.210 C 
ENDBRANCH  35  38
ENDBRANCH  29  30
ENDBRANCH   1  29
TORSDOF 8
ENDMDL
MODEL 5
REMARK VINA RESULT:      -8.9      2.382      5.451
REMARK  8 active torsions:
REMARK  status: ('A' for Active; 'I' for Inactive)
REMARK    1  A    between atoms: O_2  and  C_3 
REMARK    2  A    between atoms: C_5  and  C_6 
REMARK    3  A    between atoms: C_6  and  N_7 
REMARK    4  A    between atoms: C_16  and  C_17 
REMARK    5  A    between atoms: C_17  and  N_18 
REMARK    6  A    between atoms: C_22  and  O_23 
REMARK    7  A    between atoms: C_22  and  C_24 
REMARK    8  A    between atoms: C_34  and  O_35 
ROOT
HETATM    1  N   UNL     1      -7.920  -0.094 -34.230  1.00  0.00    -0.061 N 
HETATM    2  H   UNL     1      -8.690   0.121 -34.873  1.00  0.00     0.280 HD
HETATM    3  C   UNL     1      -6.841   0.906 -34.573  1.00  0.00     0.276 C 
HETATM    4  C   UNL     1      -5.685   0.950 -33.619  1.00  0.00     0.002 A 
HETATM    5  C   UNL     1      -4.864  -0.166 -33.473  1.00  0.00     0.076 A 
HETATM    6  O   UNL     1      -5.068  -1.285 -34.231  1.00  0.00    -0.349 OA
HETATM    7  C   UNL     1      -6.244  -1.998 -33.825  1.00  0.00     0.203 C 
HETATM    8  C   UNL     1      -7.499  -1.522 -34.576  1.00  0.00     0.262 C 
HETATM    9  C   UNL     1      -5.399   2.105 -32.867  1.00  0.00     0.020 A 
HETATM   10  C   UNL     1      -4.319   2.141 -31.966  1.00  0.00    -0.032 A 
HETATM   11  C   UNL     1      -3.512   1.001 -31.847  1.00  0.00     0.011 A 
HETATM   12  C   UNL     1      -3.771  -0.140 -32.612  1.00  0.00     0.038 A 
ENDROOT
BRANCH  10  13
HETATM   13  C   UNL     1      -4.045   3.380 -31.144  1.00  0.00     0.273 C 
BRANCH  13  14
HETATM   14  N   UNL     1      -3.370   4.535 -31.863  1.00  0.00    -0.067 N 
HETATM   15  H   UNL     1      -3.608   4.391 -32.855  1.00  0.00     0.280 HD
HETATM   16  C   UNL     1      -3.942   5.881 -31.498  1.00  0.00     0.238 C 
HETATM   17  C   UNL     1      -3.317   6.965 -32.366  1.00  0.00     0.071 C 
HETATM   18  C   UNL     1      -1.776   6.989 -32.276  1.00  0.00     0.089 C 
HETATM   19  C   UNL     1      -1.285   5.581 -32.677  1.00  0.00     0.071 C 
HETATM   20  C   UNL     1      -1.865   4.502 -31.779  1.00  0.00     0.238 C 
BRANCH  18  21
HETATM   21  O   UNL     1      -1.332   7.872 -33.307  1.00  0.00    -0.385 OA
HETATM   22  H   UNL     1      -0.360   7.826 -33.396  1.00  0.00     0.211 HD
ENDBRANCH  18  21
BRANCH  18  23
HETATM   23  C   UNL     1      -1.191   7.469 -30.953  1.00  0.00    -0.006 A 
HETATM   24  C   UNL     1      -1.833   8.384 -30.119  1.00  0.00     0.126 A 
HETATM   25  N   UNL     1      -1.375   8.782 -28.913  1.00  0.00    -0.272 NA
HETATM   26  C   UNL     1      -0.171   8.320 -28.526  1.00  0.00     0.116 A 
HETATM   27  C   UNL     1       0.588   7.458 -29.293  1.00  0.00     0.020 A 
HETATM   28  C   UNL     1       0.071   7.034 -30.516  1.00  0.00     0.013 A 
ENDBRANCH  18  23
ENDBRANCH  13  14
ENDBRANCH  10  13
BRANCH   1  29
HETATM   29  C   UNL     1      -8.539   0.001 -32.839  1.00  0.00     0.276 C 
BRANCH  29  30
HETATM   30  C   UNL     1      -9.146   1.325 -32.445  1.00  0.00     0.004 A 
HETATM   31  C   UNL     1      -8.657   2.040 -31.340  1.00  0.00     0.048 A 
HETATM   32  C   UNL     1      -9.240   3.246 -30.941  1.00  0.00     0.069 A 
HETATM   33  C   UNL     1     -10.286   3.778 -31.686  1.00  0.00     0.039 A 
HETATM   34  C   UNL     1     -10.755   3.106 -32.820  1.00  0.00     0.040 A 
HETATM   35  C   UNL     1     -10.194   1.885 -33.203  1.00  0.00     0.076 A 
BRANCH  32  36
HETATM   36  O   UNL     1      -8.709   3.778 -29.801  1.00  0.00    -0.356 OA
HETATM   37  C   UNL     1      -7.356   4.220 -29.859  1.00  0.00     0.210 C 
ENDBRANCH  32  36
BRANCH  35  38
HETATM   38  O   UNL     1     -10.627   1.143 -34.270  1.00  0.00    -0.355 OA
HETATM   39  C   UNL     1     -11.892   1.481 -34.836  1.00  0.00     0.210 C 
ENDBRANCH  35  38
ENDBRANCH  29  30
ENDBRANCH   1  29
TORSDOF 8
ENDMDL
MODEL 6
REMARK VINA RESULT:      -8.9      2.503      5.091
REMARK  8 active torsions:
REMARK  status: ('A' for Active; 'I' for Inactive)
REMARK    1  A    between atoms: O_2  and  C_3 
REMARK    2  A    between atoms: C_5  and  C_6 
REMARK    3  A    between atoms: C_6  and  N_7 
REMARK    4  A    between atoms: C_16  and  C_17 
REMARK    5  A    between atoms: C_17  and  N_18 
REMARK    6  A    between atoms: C_22  and  O_23 
REMARK    7  A    between atoms: C_22  and  C_24 
REMARK    8  A    between atoms: C_34  and  O_35 
ROOT
HETATM    1  N   UNL     1      -7.868  -0.013 -34.293  1.00  0.00    -0.061 N 
HETATM    2  H   UNL     1      -8.598   0.216 -34.975  1.00  0.00     0.280 HD
HETATM    3  C   UNL     1      -6.748   0.958 -34.586  1.00  0.00     0.276 C 
HETATM    4  C   UNL     1      -5.641   0.981 -33.575  1.00  0.00     0.002 A 
HETATM    5  C   UNL     1      -4.856  -0.154 -33.381  1.00  0.00     0.076 A 
HETATM    6  O   UNL     1      -5.049  -1.273 -34.142  1.00  0.00    -0.349 OA
HETATM    7  C   UNL     1      -6.262  -1.954 -33.792  1.00  0.00     0.203 C 
HETATM    8  C   UNL     1      -7.465  -1.453 -34.609  1.00  0.00     0.262 C 
HETATM    9  C   UNL     1      -5.365   2.134 -32.818  1.00  0.00     0.020 A 
HETATM   10  C   UNL     1      -4.332   2.151 -31.863  1.00  0.00    -0.032 A 
HETATM   11  C   UNL     1      -3.561   0.992 -31.695  1.00  0.00     0.011 A 
HETATM   12  C   UNL     1      -3.809  -0.148 -32.466  1.00  0.00     0.038 A 
ENDROOT
BRANCH  10  13
HETATM   13  C   UNL     1      -4.069   3.388 -31.035  1.00  0.00     0.273 C 
BRANCH  13  14
HETATM   14  N   UNL     1      -3.421   4.559 -31.754  1.00  0.00    -0.067 N 
HETATM   15  H   UNL     1      -3.687   4.430 -32.741  1.00  0.00     0.280 HD
HETATM   16  C   UNL     1      -3.991   5.895 -31.350  1.00  0.00     0.238 C 
HETATM   17  C   UNL     1      -3.398   6.997 -32.218  1.00  0.00     0.071 C 
HETATM   18  C   UNL     1      -1.855   7.029 -32.172  1.00  0.00     0.089 C 
HETATM   19  C   UNL     1      -1.368   5.631 -32.610  1.00  0.00     0.071 C 
HETATM   20  C   UNL     1      -1.914   4.534 -31.713  1.00  0.00     0.238 C 
BRANCH  18  21
HETATM   21  O   UNL     1      -1.446   7.932 -33.201  1.00  0.00    -0.385 OA
HETATM   22  H   UNL     1      -0.788   7.505 -33.783  1.00  0.00     0.211 HD
ENDBRANCH  18  21
BRANCH  18  23
HETATM   23  C   UNL     1      -1.235   7.492 -30.858  1.00  0.00    -0.006 A 
HETATM   24  C   UNL     1      -1.851   8.400 -29.999  1.00  0.00     0.126 A 
HETATM   25  N   UNL     1      -1.362   8.782 -28.800  1.00  0.00    -0.272 NA
HETATM   26  C   UNL     1      -0.150   8.310 -28.448  1.00  0.00     0.116 A 
HETATM   27  C   UNL     1       0.584   7.453 -29.243  1.00  0.00     0.020 A 
HETATM   28  C   UNL     1       0.035   7.045 -30.458  1.00  0.00     0.013 A 
ENDBRANCH  18  23
ENDBRANCH  13  14
ENDBRANCH  10  13
BRANCH   1  29
HETATM   29  C   UNL     1      -8.554   0.108 -32.936  1.00  0.00     0.276 C 
BRANCH  29  30
HETATM   30  C   UNL     1      -9.504   1.264 -32.746  1.00  0.00     0.004 A 
HETATM   31  C   UNL     1     -10.659   1.383 -33.537  1.00  0.00     0.048 A 
HETATM   32  C   UNL     1     -11.523   2.473 -33.398  1.00  0.00     0.069 A 
HETATM   33  C   UNL     1     -11.268   3.427 -32.419  1.00  0.00     0.039 A 
HETATM   34  C   UNL     1     -10.149   3.300 -31.587  1.00  0.00     0.040 A 
HETATM   35  C   UNL     1      -9.267   2.228 -31.744  1.00  0.00     0.076 A 
BRANCH  32  36
HETATM   36  O   UNL     1     -12.553   2.492 -34.294  1.00  0.00    -0.356 OA
HETATM   37  C   UNL     1     -13.018   1.234 -34.776  1.00  0.00     0.210 C 
ENDBRANCH  32  36
BRANCH  35  38
HETATM   38  O   UNL     1      -8.127   2.058 -31.004  1.00  0.00    -0.355 OA
HETATM   39  C   UNL     1      -7.787   3.085 -30.075  1.00  0.00     0.210 C 
ENDBRANCH  35  38
ENDBRANCH  29  30
ENDBRANCH   1  29
TORSDOF 8
ENDMDL
MODEL 7
REMARK VINA RESULT:      -8.8      3.038      8.117
REMARK  8 active torsions:
REMARK  status: ('A' for Active; 'I' for Inactive)
REMARK    1  A    between atoms: O_2  and  C_3 
REMARK    2  A    between atoms: C_5  and  C_6 
REMARK    3  A    between atoms: C_6  and  N_7 
REMARK    4  A    between atoms: C_16  and  C_17 
REMARK    5  A    between atoms: C_17  and  N_18 
REMARK    6  A    between atoms: C_22  and  O_23 
REMARK    7  A    between atoms: C_22  and  C_24 
REMARK    8  A    between atoms: C_34  and  O_35 
ROOT
HETATM    1  N   UNL     1      -3.645   1.158 -31.282  1.00  0.00    -0.061 N 
HETATM    2  H   UNL     1      -3.582   1.789 -30.475  1.00  0.00     0.280 HD
HETATM    3  C   UNL     1      -5.067   0.647 -31.262  1.00  0.00     0.276 C 
HETATM    4  C   UNL     1      -5.484  -0.126 -32.476  1.00  0.00     0.002 A 
HETATM    5  C   UNL     1      -4.858  -1.334 -32.778  1.00  0.00     0.076 A 
HETATM    6  O   UNL     1      -3.901  -1.849 -31.949  1.00  0.00    -0.349 OA
HETATM    7  C   UNL     1      -2.678  -1.104 -32.018  1.00  0.00     0.203 C 
HETATM    8  C   UNL     1      -2.639   0.044 -30.995  1.00  0.00     0.262 C 
HETATM    9  C   UNL     1      -6.511   0.335 -33.321  1.00  0.00     0.020 A 
HETATM   10  C   UNL     1      -6.896  -0.388 -34.465  1.00  0.00    -0.032 A 
HETATM   11  C   UNL     1      -6.245  -1.599 -34.738  1.00  0.00     0.011 A 
HETATM   12  C   UNL     1      -5.245  -2.080 -33.887  1.00  0.00     0.038 A 
ENDROOT
BRANCH  10  13
HETATM   13  C   UNL     1      -7.979   0.138 -35.379  1.00  0.00     0.273 C 
BRANCH  13  14
HETATM   14  N   UNL     1      -9.173   0.794 -34.706  1.00  0.00    -0.067 N 
HETATM   15  H   UNL     1      -9.973   0.538 -35.302  1.00  0.00     0.280 HD
HETATM   16  C   UNL     1      -9.479   0.221 -33.345  1.00  0.00     0.238 C 
HETATM   17  C   UNL     1     -10.768   0.825 -32.805  1.00  0.00     0.071 C 
HETATM   18  C   UNL     1     -10.730   2.367 -32.748  1.00  0.00     0.089 C 
HETATM   19  C   UNL     1     -10.424   2.858 -34.180  1.00  0.00     0.071 C 
HETATM   20  C   UNL     1      -9.111   2.301 -34.701  1.00  0.00     0.238 C 
BRANCH  18  21
HETATM   21  O   UNL     1     -12.065   2.787 -32.462  1.00  0.00    -0.385 OA
HETATM   22  H   UNL     1     -12.129   3.104 -31.540  1.00  0.00     0.211 HD
ENDBRANCH  18  21
BRANCH  18  23
HETATM   23  C   UNL     1      -9.804   2.974 -31.700  1.00  0.00    -0.006 A 
HETATM   24  C   UNL     1     -10.073   4.175 -31.045  1.00  0.00     0.126 A 
HETATM   25  N   UNL     1      -9.309   4.708 -30.068  1.00  0.00    -0.272 NA
HETATM   26  C   UNL     1      -8.162   4.072 -29.763  1.00  0.00     0.116 A 
HETATM   27  C   UNL     1      -7.757   2.908 -30.386  1.00  0.00     0.020 A 
HETATM   28  C   UNL     1      -8.587   2.359 -31.364  1.00  0.00     0.013 A 
ENDBRANCH  18  23
ENDBRANCH  13  14
ENDBRANCH  10  13
BRANCH   1  29
HETATM   29  C   UNL     1      -3.231   2.013 -32.476  1.00  0.00     0.276 C 
BRANCH  29  30
HETATM   30  C   UNL     1      -3.789   3.413 -32.545  1.00  0.00     0.004 A 
HETATM   31  C   UNL     1      -4.989   3.676 -33.227  1.00  0.00     0.048 A 
HETATM   32  C   UNL     1      -5.492   4.976 -33.334  1.00  0.00     0.069 A 
HETATM   33  C   UNL     1      -4.825   6.021 -32.705  1.00  0.00     0.039 A 
HETATM   34  C   UNL     1      -3.655   5.772 -31.979  1.00  0.00     0.040 A 
HETATM   35  C   UNL     1      -3.133   4.479 -31.896  1.00  0.00     0.076 A 
BRANCH  32  36
HETATM   36  O   UNL     1      -6.620   5.082 -34.098  1.00  0.00    -0.356 OA
HETATM   37  C   UNL     1      -7.783   5.609 -33.467  1.00  0.00     0.210 C 
ENDBRANCH  32  36
BRANCH  35  38
HETATM   38  O   UNL     1      -1.969   4.161 -31.247  1.00  0.00    -0.355 OA
HETATM   39  C   UNL     1      -0.874   5.065 -31.380  1.00  0.00     0.210 C 
ENDBRANCH  35  38
ENDBRANCH  29  30
ENDBRANCH   1  29
TORSDOF 8
ENDMDL
MODEL 8
REMARK VINA RESULT:      -8.7      2.352      3.953
REMARK  8 active torsions:
REMARK  status: ('A' for Active; 'I' for Inactive)
REMARK    1  A    between atoms: O_2  and  C_3 
REMARK    2  A    between atoms: C_5  and  C_6 
REMARK    3  A    between atoms: C_6  and  N_7 
REMARK    4  A    between atoms: C_16  and  C_17 
REMARK    5  A    between atoms: C_17  and  N_18 
REMARK    6  A    between atoms: C_22  and  O_23 
REMARK    7  A    between atoms: C_22  and  C_24 
REMARK    8  A    between atoms: C_34  and  O_35 
ROOT
HETATM    1  N   UNL     1      -8.433   0.450 -32.951  1.00  0.00    -0.061 N 
HETATM    2  H   UNL     1      -8.354  -0.573 -32.938  1.00  0.00     0.280 HD
HETATM    3  C   UNL     1      -8.544   0.847 -31.498  1.00  0.00     0.276 C 
HETATM    4  C   UNL     1      -8.446   2.319 -31.229  1.00  0.00     0.002 A 
HETATM    5  C   UNL     1      -9.418   3.182 -31.732  1.00  0.00     0.076 A 
HETATM    6  O   UNL     1     -10.491   2.695 -32.423  1.00  0.00    -0.349 OA
HETATM    7  C   UNL     1     -10.118   2.226 -33.727  1.00  0.00     0.203 C 
HETATM    8  C   UNL     1      -9.723   0.740 -33.717  1.00  0.00     0.262 C 
HETATM    9  C   UNL     1      -7.393   2.855 -30.464  1.00  0.00     0.020 A 
HETATM   10  C   UNL     1      -7.298   4.237 -30.220  1.00  0.00    -0.032 A 
HETATM   11  C   UNL     1      -8.294   5.076 -30.740  1.00  0.00     0.011 A 
HETATM   12  C   UNL     1      -9.360   4.548 -31.474  1.00  0.00     0.038 A 
ENDROOT
BRANCH  10  13
HETATM   13  C   UNL     1      -6.143   4.800 -29.424  1.00  0.00     0.273 C 
BRANCH  13  14
HETATM   14  N   UNL     1      -5.396   5.966 -30.046  1.00  0.00    -0.067 N 
HETATM   15  H   UNL     1      -6.129   6.660 -30.249  1.00  0.00     0.280 HD
HETATM   16  C   UNL     1      -4.447   6.645 -29.089  1.00  0.00     0.238 C 
HETATM   17  C   UNL     1      -3.852   7.887 -29.740  1.00  0.00     0.071 C 
HETATM   18  C   UNL     1      -3.146   7.581 -31.078  1.00  0.00     0.089 C 
HETATM   19  C   UNL     1      -4.193   6.903 -31.989  1.00  0.00     0.071 C 
HETATM   20  C   UNL     1      -4.748   5.635 -31.367  1.00  0.00     0.238 C 
BRANCH  18  21
HETATM   21  O   UNL     1      -2.862   8.848 -31.676  1.00  0.00    -0.385 OA
HETATM   22  H   UNL     1      -2.452   8.723 -32.553  1.00  0.00     0.211 HD
ENDBRANCH  18  21
BRANCH  18  23
HETATM   23  C   UNL     1      -1.843   6.796 -30.982  1.00  0.00    -0.006 A 
HETATM   24  C   UNL     1      -1.546   5.704 -31.796  1.00  0.00     0.126 A 
HETATM   25  N   UNL     1      -0.378   5.027 -31.782  1.00  0.00    -0.272 NA
HETATM   26  C   UNL     1       0.534   5.385 -30.857  1.00  0.00     0.116 A 
HETATM   27  C   UNL     1       0.329   6.411 -29.956  1.00  0.00     0.020 A 
HETATM   28  C   UNL     1      -0.871   7.118 -30.021  1.00  0.00     0.013 A 
ENDBRANCH  18  23
ENDBRANCH  13  14
ENDBRANCH  10  13
BRANCH   1  29
HETATM   29  C   UNL     1      -7.196   0.924 -33.708  1.00  0.00     0.276 C 
BRANCH  29  30
HETATM   30  C   UNL     1      -5.884   0.262 -33.366  1.00  0.00     0.004 A 
HETATM   31  C   UNL     1      -4.976   0.876 -32.488  1.00  0.00     0.048 A 
HETATM   32  C   UNL     1      -3.740   0.292 -32.198  1.00  0.00     0.069 A 
HETATM   33  C   UNL     1      -3.427  -0.949 -32.742  1.00  0.00     0.039 A 
HETATM   34  C   UNL     1      -4.339  -1.600 -33.579  1.00  0.00     0.040 A 
HETATM   35  C   UNL     1      -5.562  -1.005 -33.895  1.00  0.00     0.076 A 
BRANCH  32  36
HETATM   36  O   UNL     1      -2.934   1.048 -31.396  1.00  0.00    -0.356 OA
HETATM   37  C   UNL     1      -3.208   2.445 -31.331  1.00  0.00     0.210 C 
ENDBRANCH  32  36
BRANCH  35  38
HETATM   38  O   UNL     1      -6.487  -1.553 -34.744  1.00  0.00    -0.355 OA
HETATM   39  C   UNL     1      -6.782  -2.940 -34.587  1.00  0.00     0.210 C 
ENDBRANCH  35  38
ENDBRANCH  29  30
ENDBRANCH   1  29
TORSDOF 8
ENDMDL
MODEL 9
REMARK VINA RESULT:      -8.6      2.602      4.840
REMARK  8 active torsions:
REMARK  status: ('A' for Active; 'I' for Inactive)
REMARK    1  A    between atoms: O_2  and  C_3 
REMARK    2  A    between atoms: C_5  and  C_6 
REMARK    3  A    between atoms: C_6  and  N_7 
REMARK    4  A    between atoms: C_16  and  C_17 
REMARK    5  A    between atoms: C_17  and  N_18 
REMARK    6  A    between atoms: C_22  and  O_23 
REMARK    7  A    between atoms: C_22  and  C_24 
REMARK    8  A    between atoms: C_34  and  O_35 
ROOT
HETATM    1  N   UNL     1      -4.940   4.489 -32.745  1.00  0.00    -0.061 N 
HETATM    2  H   UNL     1      -5.880   4.289 -32.385  1.00  0.00     0.280 HD
HETATM    3  C   UNL     1      -4.574   5.826 -32.145  1.00  0.00     0.276 C 
HETATM    4  C   UNL     1      -3.147   6.243 -32.338  1.00  0.00     0.002 A 
HETATM    5  C   UNL     1      -2.661   6.477 -33.623  1.00  0.00     0.076 A 
HETATM    6  O   UNL     1      -3.486   6.382 -34.708  1.00  0.00    -0.349 OA
HETATM    7  C   UNL     1      -3.832   5.021 -34.999  1.00  0.00     0.203 C 
HETATM    8  C   UNL     1      -5.105   4.575 -34.262  1.00  0.00     0.262 C 
HETATM    9  C   UNL     1      -2.280   6.417 -31.243  1.00  0.00     0.020 A 
HETATM   10  C   UNL     1      -0.939   6.800 -31.427  1.00  0.00    -0.032 A 
HETATM   11  C   UNL     1      -0.484   7.029 -32.733  1.00  0.00     0.011 A 
HETATM   12  C   UNL     1      -1.347   6.888 -33.825  1.00  0.00     0.038 A 
ENDROOT
BRANCH  10  13
HETATM   13  C   UNL     1      -0.013   6.952 -30.242  1.00  0.00     0.273 C 
BRANCH  13  14
HETATM   14  N   UNL     1      -0.672   7.186 -28.894  1.00  0.00    -0.067 N 
HETATM   15  H   UNL     1      -1.618   6.791 -29.000  1.00  0.00     0.280 HD
HETATM   16  C   UNL     1      -0.030   6.408 -27.773  1.00  0.00     0.238 C 
HETATM   17  C   UNL     1      -0.834   6.580 -26.492  1.00  0.00     0.071 C 
HETATM   18  C   UNL     1      -1.012   8.061 -26.091  1.00  0.00     0.089 C 
HETATM   19  C   UNL     1      -1.683   8.768 -27.288  1.00  0.00     0.071 C 
HETATM   20  C   UNL     1      -0.856   8.644 -28.556  1.00  0.00     0.238 C 
BRANCH  18  21
HETATM   21  O   UNL     1      -1.973   8.073 -25.034  1.00  0.00    -0.385 OA
HETATM   22  H   UNL     1      -2.846   7.793 -25.368  1.00  0.00     0.211 HD
ENDBRANCH  18  21
BRANCH  18  23
HETATM   23  C   UNL     1       0.243   8.776 -25.604  1.00  0.00    -0.006 A 
HETATM   24  C   UNL     1       0.247  10.098 -25.161  1.00  0.00     0.126 A 
HETATM   25  N   UNL     1       1.325  10.742 -24.664  1.00  0.00    -0.272 NA
HETATM   26  C   UNL     1       2.498  10.081 -24.673  1.00  0.00     0.116 A 
HETATM   27  C   UNL     1       2.632   8.790 -25.144  1.00  0.00     0.020 A 
HETATM   28  C   UNL     1       1.493   8.137 -25.614  1.00  0.00     0.013 A 
ENDBRANCH  18  23
ENDBRANCH  13  14
ENDBRANCH  10  13
BRANCH   1  29
HETATM   29  C   UNL     1      -4.100   3.286 -32.325  1.00  0.00     0.276 C 
BRANCH  29  30
HETATM   30  C   UNL     1      -4.843   2.044 -31.897  1.00  0.00     0.004 A 
HETATM   31  C   UNL     1      -4.835   0.890 -32.697  1.00  0.00     0.048 A 
HETATM   32  C   UNL     1      -5.555  -0.251 -32.331  1.00  0.00     0.069 A 
HETATM   33  C   UNL     1      -6.244  -0.265 -31.123  1.00  0.00     0.039 A 
HETATM   34  C   UNL     1      -6.223   0.858 -30.288  1.00  0.00     0.040 A 
HETATM   35  C   UNL     1      -5.530   2.010 -30.666  1.00  0.00     0.076 A 
BRANCH  32  36
HETATM   36  O   UNL     1      -5.518  -1.260 -33.250  1.00  0.00    -0.356 OA
HETATM   37  C   UNL     1      -4.337  -2.056 -33.293  1.00  0.00     0.210 C 
ENDBRANCH  32  36
BRANCH  35  38
HETATM   38  O   UNL     1      -5.501   3.165 -29.930  1.00  0.00    -0.355 OA
HETATM   39  C   UNL     1      -6.746   3.816 -29.679  1.00  0.00     0.210 C 
ENDBRANCH  35  38
ENDBRANCH  29  30
ENDBRANCH   1  29
TORSDOF 8
ENDMDL
MODEL 10
REMARK VINA RESULT:      -8.5      1.580      2.328
REMARK  8 active torsions:
REMARK  status: ('A' for Active; 'I' for Inactive)
REMARK    1  A    between atoms: O_2  and  C_3 
REMARK    2  A    between atoms: C_5  and  C_6 
REMARK    3  A    between atoms: C_6  and  N_7 
REMARK    4  A    between atoms: C_16  and  C_17 
REMARK    5  A    between atoms: C_17  and  N_18 
REMARK    6  A    between atoms: C_22  and  O_23 
REMARK    7  A    between atoms: C_22  and  C_24 
REMARK    8  A    between atoms: C_34  and  O_35 
ROOT
HETATM    1  N   UNL     1      -5.925   0.014 -32.345  1.00  0.00    -0.061 N 
HETATM    2  H   UNL     1      -5.907  -0.726 -31.634  1.00  0.00     0.280 HD
HETATM    3  C   UNL     1      -5.478   1.259 -31.616  1.00  0.00     0.276 C 
HETATM    4  C   UNL     1      -5.203   2.446 -32.490  1.00  0.00     0.002 A 
HETATM    5  C   UNL     1      -6.238   3.022 -33.224  1.00  0.00     0.076 A 
HETATM    6  O   UNL     1      -7.516   2.550 -33.113  1.00  0.00    -0.349 OA
HETATM    7  C   UNL     1      -7.670   1.273 -33.748  1.00  0.00     0.203 C 
HETATM    8  C   UNL     1      -7.386   0.108 -32.784  1.00  0.00     0.262 C 
HETATM    9  C   UNL     1      -3.914   3.005 -32.581  1.00  0.00     0.020 A 
HETATM   10  C   UNL     1      -3.656   4.114 -33.408  1.00  0.00    -0.032 A 
HETATM   11  C   UNL     1      -4.722   4.669 -34.130  1.00  0.00     0.011 A 
HETATM   12  C   UNL     1      -6.011   4.138 -34.022  1.00  0.00     0.038 A 
ENDROOT
BRANCH  10  13
HETATM   13  C   UNL     1      -2.260   4.682 -33.518  1.00  0.00     0.273 C 
BRANCH  13  14
HETATM   14  N   UNL     1      -1.899   5.786 -32.539  1.00  0.00    -0.067 N 
HETATM   15  H   UNL     1      -0.890   5.934 -32.682  1.00  0.00     0.280 HD
HETATM   16  C   UNL     1      -2.553   7.106 -32.862  1.00  0.00     0.238 C 
HETATM   17  C   UNL     1      -2.028   8.189 -31.928  1.00  0.00     0.071 C 
HETATM   18  C   UNL     1      -2.221   7.838 -30.437  1.00  0.00     0.089 C 
HETATM   19  C   UNL     1      -1.512   6.486 -30.202  1.00  0.00     0.071 C 
HETATM   20  C   UNL     1      -2.071   5.392 -31.094  1.00  0.00     0.238 C 
BRANCH  18  21
HETATM   21  O   UNL     1      -1.476   8.810 -29.701  1.00  0.00    -0.385 OA
HETATM   22  H   UNL     1      -1.723   8.781 -28.757  1.00  0.00     0.211 HD
ENDBRANCH  18  21
BRANCH  18  23
HETATM   23  C   UNL     1      -3.658   7.853 -29.927  1.00  0.00    -0.006 A 
HETATM   24  C   UNL     1      -4.708   8.461 -30.615  1.00  0.00     0.126 A 
HETATM   25  N   UNL     1      -6.000   8.438 -30.226  1.00  0.00    -0.272 NA
HETATM   26  C   UNL     1      -6.280   7.854 -29.045  1.00  0.00     0.116 A 
HETATM   27  C   UNL     1      -5.317   7.273 -28.245  1.00  0.00     0.020 A 
HETATM   28  C   UNL     1      -3.996   7.276 -28.692  1.00  0.00     0.013 A 
ENDBRANCH  18  23
ENDBRANCH  13  14
ENDBRANCH  10  13
BRANCH   1  29
HETATM   29  C   UNL     1      -5.022  -0.500 -33.462  1.00  0.00     0.276 C 
BRANCH  29  30
HETATM   30  C   UNL     1      -4.562  -1.934 -33.370  1.00  0.00     0.004 A 
HETATM   31  C   UNL     1      -5.037  -2.900 -34.271  1.00  0.00     0.048 A 
HETATM   32  C   UNL     1      -4.650  -4.240 -34.168  1.00  0.00     0.069 A 
HETATM   33  C   UNL     1      -3.732  -4.612 -33.192  1.00  0.00     0.039 A 
HETATM   34  C   UNL     1      -3.208  -3.654 -32.316  1.00  0.00     0.040 A 
HETATM   35  C   UNL     1      -3.617  -2.321 -32.398  1.00  0.00     0.076 A 
BRANCH  32  36
HETATM   36  O   UNL     1      -5.260  -5.073 -35.061  1.00  0.00    -0.356 OA
HETATM   37  C   UNL     1      -6.512  -4.649 -35.594  1.00  0.00     0.210 C 
ENDBRANCH  32  36
BRANCH  35  38
HETATM   38  O   UNL     1      -3.190  -1.334 -31.549  1.00  0.00    -0.355 OA
HETATM   39  C   UNL     1      -1.806  -0.991 -31.584  1.00  0.00     0.210 C 
ENDBRANCH  35  38
ENDBRANCH  29  30
ENDBRANCH   1  29
TORSDOF 8
ENDMDL
