MODEL 1
REMARK VINA RESULT:      -9.5      0.000      0.000
REMARK  6 active torsions:
REMARK  status: ('A' for Active; 'I' for Inactive)
REMARK    1  A    between atoms: C_2  and  N_3 
REMARK    2  A    between atoms: C_11  and  C_12 
REMARK    3  A    between atoms: C_14  and  C_15 
REMARK    4  A    between atoms: C_15  and  O_16 
REMARK    5  A    between atoms: O_16  and  C_17 
REMARK    6  A    between atoms: C_25  and  O_26 
ROOT
HETATM    1  N   UNL     1       0.720   8.451 -28.341  1.00  0.00    -0.067 N 
HETATM    2  H   UNL     1       0.998   8.961 -29.189  1.00  0.00     0.280 HD
HETATM    3  C   UNL     1       0.858   6.965 -28.678  1.00  0.00     0.281 C 
HETATM    4  C   UNL     1      -0.171   6.561 -29.678  1.00  0.00     0.018 A 
HETATM    5  C   UNL     1      -1.296   7.295 -30.004  1.00  0.00    -0.023 A 
HETATM    6  C   UNL     1      -2.049   6.656 -31.041  1.00  0.00     0.073 A 
HETATM    7  C   UNL     1      -1.489   5.457 -31.414  1.00  0.00     0.088 A 
HETATM    8  N   UNL     1      -1.999   4.666 -32.375  1.00  0.00    -0.358 N 
HETATM    9  C   UNL     1      -3.278   4.955 -32.980  1.00  0.00     0.219 C 
HETATM   10  N   UNL     1      -3.729   6.295 -32.692  1.00  0.00    -0.332 N 
HETATM   11  C   UNL     1      -3.250   7.112 -31.711  1.00  0.00     0.256 C 
HETATM   12  O   UNL     1      -3.797   8.174 -31.432  1.00  0.00    -0.267 OA
HETATM   13  S   UNL     1      -0.074   5.099 -30.541  1.00  0.00    -0.074 SA
HETATM   14  C   UNL     1      -1.591   8.612 -29.351  1.00  0.00     0.068 C 
HETATM   15  C   UNL     1      -0.745   8.817 -28.081  1.00  0.00     0.240 C 
HETATM   16  H   UNL     1      -1.661   3.716 -32.499  1.00  0.00     0.162 HD
HETATM   17  H   UNL     1      -4.586   6.603 -33.125  1.00  0.00     0.165 HD
ENDROOT
BRANCH   9  18
HETATM   18  C   UNL     1      -4.304   3.911 -32.584  1.00  0.00    -0.016 A 
HETATM   19  C   UNL     1      -3.911   2.573 -32.409  1.00  0.00     0.023 A 
HETATM   20  C   UNL     1      -4.840   1.572 -32.058  1.00  0.00    -0.000 A 
HETATM   21  C   UNL     1      -6.189   1.919 -31.872  1.00  0.00     0.076 A 
HETATM   22  C   UNL     1      -6.581   3.252 -32.017  1.00  0.00     0.038 A 
HETATM   23  C   UNL     1      -5.649   4.237 -32.365  1.00  0.00     0.014 A 
BRANCH  20  24
HETATM   24  C   UNL     1      -4.354   0.148 -31.885  1.00  0.00     0.217 C 
BRANCH  24  25
HETATM   25  O   UNL     1      -3.995  -0.361 -33.172  1.00  0.00    -0.347 OA
BRANCH  25  26
HETATM   26  C   UNL     1      -4.820  -1.303 -33.723  1.00  0.00     0.070 A 
HETATM   27  C   UNL     1      -4.295  -2.599 -33.732  1.00  0.00     0.063 A 
HETATM   28  C   UNL     1      -5.037  -3.655 -34.264  1.00  0.00     0.075 A 
HETATM   29 CL   UNL     1      -4.370  -5.242 -34.263  1.00  0.00    -0.081 Cl
HETATM   30  C   UNL     1      -6.303  -3.416 -34.788  1.00  0.00     0.138 A 
HETATM   31  F   UNL     1      -7.035  -4.414 -35.303  1.00  0.00    -0.204 F 
HETATM   32  C   UNL     1      -6.833  -2.129 -34.788  1.00  0.00     0.047 A 
HETATM   33  C   UNL     1      -6.090  -1.070 -34.258  1.00  0.00     0.040 A 
ENDBRANCH  25  26
ENDBRANCH  24  25
ENDBRANCH  20  24
BRANCH  21  34
HETATM   34  O   UNL     1      -7.035   0.894 -31.546  1.00  0.00    -0.355 OA
HETATM   35  C   UNL     1      -8.414   1.047 -31.859  1.00  0.00     0.210 C 
ENDBRANCH  21  34
ENDBRANCH   9  18
BRANCH   1  36
HETATM   36  C   UNL     1       1.619   8.895 -27.214  1.00  0.00     0.231 C 
HETATM   37  C   UNL     1       1.669   7.846 -26.118  1.00  0.00     0.034 C 
ENDBRANCH   1  36
TORSDOF 6
ENDMDL
MODEL 2
REMARK VINA RESULT:      -9.4      5.329      7.425
REMARK  6 active torsions:
REMARK  status: ('A' for Active; 'I' for Inactive)
REMARK    1  A    between atoms: C_2  and  N_3 
REMARK    2  A    between atoms: C_11  and  C_12 
REMARK    3  A    between atoms: C_14  and  C_15 
REMARK    4  A    between atoms: C_15  and  O_16 
REMARK    5  A    between atoms: O_16  and  C_17 
REMARK    6  A    between atoms: C_25  and  O_26 
ROOT
HETATM    1  N   UNL     1      -8.443   5.839 -30.831  1.00  0.00    -0.067 N 
HETATM    2  H   UNL     1      -9.297   5.934 -31.396  1.00  0.00     0.280 HD
HETATM    3  C   UNL     1      -7.308   5.573 -31.822  1.00  0.00     0.281 C 
HETATM    4  C   UNL     1      -7.464   4.228 -32.443  1.00  0.00     0.018 A 
HETATM    5  C   UNL     1      -8.286   3.223 -31.971  1.00  0.00    -0.023 A 
HETATM    6  C   UNL     1      -8.249   2.076 -32.829  1.00  0.00     0.073 A 
HETATM    7  C   UNL     1      -7.374   2.249 -33.874  1.00  0.00     0.088 A 
HETATM    8  N   UNL     1      -7.163   1.324 -34.827  1.00  0.00    -0.358 N 
HETATM    9  C   UNL     1      -7.735   0.002 -34.725  1.00  0.00     0.219 C 
HETATM   10  N   UNL     1      -8.774  -0.068 -33.726  1.00  0.00    -0.332 N 
HETATM   11  C   UNL     1      -8.999   0.840 -32.733  1.00  0.00     0.256 C 
HETATM   12  O   UNL     1      -9.800   0.624 -31.830  1.00  0.00    -0.267 OA
HETATM   13  S   UNL     1      -6.607   3.767 -33.839  1.00  0.00    -0.074 SA
HETATM   14  C   UNL     1      -9.123   3.406 -30.740  1.00  0.00     0.068 C 
HETATM   15  C   UNL     1      -8.666   4.626 -29.921  1.00  0.00     0.240 C 
HETATM   16  H   UNL     1      -6.387   1.415 -35.477  1.00  0.00     0.162 HD
HETATM   17  H   UNL     1      -9.271  -0.940 -33.629  1.00  0.00     0.165 HD
ENDROOT
BRANCH   9  18
HETATM   18  C   UNL     1      -6.652  -1.033 -34.495  1.00  0.00    -0.016 A 
HETATM   19  C   UNL     1      -5.489  -0.686 -33.788  1.00  0.00     0.023 A 
HETATM   20  C   UNL     1      -4.452  -1.617 -33.570  1.00  0.00    -0.000 A 
HETATM   21  C   UNL     1      -4.587  -2.925 -34.065  1.00  0.00     0.076 A 
HETATM   22  C   UNL     1      -5.753  -3.285 -34.745  1.00  0.00     0.038 A 
HETATM   23  C   UNL     1      -6.775  -2.352 -34.954  1.00  0.00     0.014 A 
BRANCH  20  24
HETATM   24  C   UNL     1      -3.223  -1.180 -32.801  1.00  0.00     0.217 C 
BRANCH  24  25
HETATM   25  O   UNL     1      -3.580  -1.051 -31.423  1.00  0.00    -0.347 OA
BRANCH  25  26
HETATM   26  C   UNL     1      -4.099   0.149 -31.022  1.00  0.00     0.070 A 
HETATM   27  C   UNL     1      -3.365   1.266 -31.437  1.00  0.00     0.063 A 
HETATM   28  C   UNL     1      -3.787   2.552 -31.098  1.00  0.00     0.075 A 
HETATM   29 CL   UNL     1      -2.869   3.910 -31.621  1.00  0.00    -0.081 Cl
HETATM   30  C   UNL     1      -4.943   2.723 -30.342  1.00  0.00     0.138 A 
HETATM   31  F   UNL     1      -5.370   3.948 -30.005  1.00  0.00    -0.204 F 
HETATM   32  C   UNL     1      -5.678   1.620 -29.920  1.00  0.00     0.047 A 
HETATM   33  C   UNL     1      -5.254   0.330 -30.257  1.00  0.00     0.040 A 
ENDBRANCH  25  26
ENDBRANCH  24  25
ENDBRANCH  20  24
BRANCH  21  34
HETATM   34  O   UNL     1      -3.536  -3.770 -33.828  1.00  0.00    -0.355 OA
HETATM   35  C   UNL     1      -3.824  -5.150 -33.636  1.00  0.00     0.210 C 
ENDBRANCH  21  34
ENDBRANCH   9  18
BRANCH   1  36
HETATM   36  C   UNL     1      -8.263   7.110 -30.040  1.00  0.00     0.231 C 
HETATM   37  C   UNL     1      -7.702   6.813 -28.661  1.00  0.00     0.034 C 
ENDBRANCH   1  36
TORSDOF 6
ENDMDL
MODEL 3
REMARK VINA RESULT:      -9.2      4.527      6.320
REMARK  6 active torsions:
REMARK  status: ('A' for Active; 'I' for Inactive)
REMARK    1  A    between atoms: C_2  and  N_3 
REMARK    2  A    between atoms: C_11  and  C_12 
REMARK    3  A    between atoms: C_14  and  C_15 
REMARK    4  A    between atoms: C_15  and  O_16 
REMARK    5  A    between atoms: O_16  and  C_17 
REMARK    6  A    between atoms: C_25  and  O_26 
ROOT
HETATM    1  N   UNL     1      -6.439   6.781 -30.309  1.00  0.00    -0.067 N 
HETATM    2  H   UNL     1      -5.831   6.761 -29.480  1.00  0.00     0.280 HD
HETATM    3  C   UNL     1      -7.325   5.537 -30.213  1.00  0.00     0.281 C 
HETATM    4  C   UNL     1      -6.511   4.303 -30.409  1.00  0.00     0.018 A 
HETATM    5  C   UNL     1      -5.234   4.266 -30.937  1.00  0.00    -0.023 A 
HETATM    6  C   UNL     1      -4.712   2.933 -30.937  1.00  0.00     0.073 A 
HETATM    7  C   UNL     1      -5.625   2.026 -30.457  1.00  0.00     0.088 A 
HETATM    8  N   UNL     1      -5.377   0.709 -30.345  1.00  0.00    -0.358 N 
HETATM    9  C   UNL     1      -4.167   0.129 -30.878  1.00  0.00     0.219 C 
HETATM   10  N   UNL     1      -3.177   1.129 -31.200  1.00  0.00    -0.332 N 
HETATM   11  C   UNL     1      -3.402   2.466 -31.345  1.00  0.00     0.256 C 
HETATM   12  O   UNL     1      -2.538   3.223 -31.776  1.00  0.00    -0.267 OA
HETATM   13  S   UNL     1      -7.093   2.757 -30.003  1.00  0.00    -0.074 SA
HETATM   14  C   UNL     1      -4.532   5.515 -31.380  1.00  0.00     0.068 C 
HETATM   15  C   UNL     1      -5.510   6.695 -31.524  1.00  0.00     0.240 C 
HETATM   16  H   UNL     1      -6.129   0.053 -30.153  1.00  0.00     0.162 HD
HETATM   17  H   UNL     1      -2.277   0.808 -31.522  1.00  0.00     0.165 HD
ENDROOT
BRANCH   9  18
HETATM   18  C   UNL     1      -4.480  -0.766 -32.061  1.00  0.00    -0.016 A 
HETATM   19  C   UNL     1      -5.541  -0.443 -32.923  1.00  0.00     0.023 A 
HETATM   20  C   UNL     1      -5.873  -1.261 -34.023  1.00  0.00    -0.000 A 
HETATM   21  C   UNL     1      -5.121  -2.423 -34.268  1.00  0.00     0.076 A 
HETATM   22  C   UNL     1      -4.047  -2.735 -33.431  1.00  0.00     0.038 A 
HETATM   23  C   UNL     1      -3.728  -1.914 -32.343  1.00  0.00     0.014 A 
BRANCH  20  24
HETATM   24  C   UNL     1      -7.029  -0.858 -34.915  1.00  0.00     0.217 C 
BRANCH  24  25
HETATM   25  O   UNL     1      -6.961   0.554 -35.124  1.00  0.00    -0.347 OA
BRANCH  25  26
HETATM   26  C   UNL     1      -7.880   1.327 -34.470  1.00  0.00     0.070 A 
HETATM   27  C   UNL     1      -9.154   0.756 -34.372  1.00  0.00     0.063 A 
HETATM   28  C   UNL     1     -10.185   1.439 -33.726  1.00  0.00     0.075 A 
HETATM   29 CL   UNL     1     -11.742   0.715 -33.617  1.00  0.00    -0.081 Cl
HETATM   30  C   UNL     1      -9.944   2.695 -33.178  1.00  0.00     0.138 A 
HETATM   31  F   UNL     1     -10.917   3.371 -32.551  1.00  0.00    -0.204 F 
HETATM   32  C   UNL     1      -8.683   3.275 -33.274  1.00  0.00     0.047 A 
HETATM   33  C   UNL     1      -7.650   2.592 -33.924  1.00  0.00     0.040 A 
ENDBRANCH  25  26
ENDBRANCH  24  25
ENDBRANCH  20  24
BRANCH  21  34
HETATM   34  O   UNL     1      -5.509  -3.174 -35.345  1.00  0.00    -0.355 OA
HETATM   35  C   UNL     1      -6.157  -4.414 -35.089  1.00  0.00     0.210 C 
ENDBRANCH  21  34
ENDBRANCH   9  18
BRANCH   1  36
HETATM   36  C   UNL     1      -7.217   8.072 -30.287  1.00  0.00     0.231 C 
HETATM   37  C   UNL     1      -7.444   8.591 -31.696  1.00  0.00     0.034 C 
ENDBRANCH   1  36
TORSDOF 6
ENDMDL
MODEL 4
REMARK VINA RESULT:      -9.0      4.614      9.259
REMARK  6 active torsions:
REMARK  status: ('A' for Active; 'I' for Inactive)
REMARK    1  A    between atoms: C_2  and  N_3 
REMARK    2  A    between atoms: C_11  and  C_12 
REMARK    3  A    between atoms: C_14  and  C_15 
REMARK    4  A    between atoms: C_15  and  O_16 
REMARK    5  A    between atoms: O_16  and  C_17 
REMARK    6  A    between atoms: C_25  and  O_26 
ROOT
HETATM    1  N   UNL     1      -5.041  -2.827 -33.698  1.00  0.00    -0.067 N 
HETATM    2  H   UNL     1      -5.611  -3.329 -33.005  1.00  0.00     0.280 HD
HETATM    3  C   UNL     1      -4.083  -1.944 -32.896  1.00  0.00     0.281 C 
HETATM    4  C   UNL     1      -4.832  -0.855 -32.208  1.00  0.00     0.018 A 
HETATM    5  C   UNL     1      -6.125  -0.468 -32.503  1.00  0.00    -0.023 A 
HETATM    6  C   UNL     1      -6.571   0.569 -31.622  1.00  0.00     0.073 A 
HETATM    7  C   UNL     1      -5.587   0.946 -30.739  1.00  0.00     0.088 A 
HETATM    8  N   UNL     1      -5.754   1.895 -29.801  1.00  0.00    -0.358 N 
HETATM    9  C   UNL     1      -6.951   2.702 -29.760  1.00  0.00     0.219 C 
HETATM   10  N   UNL     1      -8.009   2.154 -30.573  1.00  0.00    -0.332 N 
HETATM   11  C   UNL     1      -7.868   1.211 -31.549  1.00  0.00     0.256 C 
HETATM   12  O   UNL     1      -8.791   0.917 -32.301  1.00  0.00    -0.267 OA
HETATM   13  S   UNL     1      -4.146   0.069 -30.955  1.00  0.00    -0.074 SA
HETATM   14  C   UNL     1      -6.916  -1.136 -33.588  1.00  0.00     0.068 C 
HETATM   15  C   UNL     1      -6.014  -1.971 -34.514  1.00  0.00     0.240 C 
HETATM   16  H   UNL     1      -4.959   2.266 -29.289  1.00  0.00     0.162 HD
HETATM   17  H   UNL     1      -8.902   2.621 -30.556  1.00  0.00     0.165 HD
ENDROOT
BRANCH   9  18
HETATM   18  C   UNL     1      -6.637   4.140 -30.125  1.00  0.00    -0.016 A 
HETATM   19  C   UNL     1      -6.028   4.434 -31.356  1.00  0.00     0.023 A 
HETATM   20  C   UNL     1      -5.705   5.757 -31.721  1.00  0.00    -0.000 A 
HETATM   21  C   UNL     1      -6.006   6.809 -30.838  1.00  0.00     0.076 A 
HETATM   22  C   UNL     1      -6.638   6.526 -29.625  1.00  0.00     0.038 A 
HETATM   23  C   UNL     1      -6.953   5.208 -29.274  1.00  0.00     0.014 A 
BRANCH  20  24
HETATM   24  C   UNL     1      -5.047   6.008 -33.062  1.00  0.00     0.217 C 
BRANCH  24  25
HETATM   25  O   UNL     1      -3.857   5.220 -33.130  1.00  0.00    -0.347 OA
BRANCH  25  26
HETATM   26  C   UNL     1      -2.691   5.814 -32.733  1.00  0.00     0.070 A 
HETATM   27  C   UNL     1      -1.965   5.090 -31.781  1.00  0.00     0.063 A 
HETATM   28  C   UNL     1      -0.754   5.584 -31.294  1.00  0.00     0.075 A 
HETATM   29 CL   UNL     1       0.122   4.674 -30.124  1.00  0.00    -0.081 Cl
HETATM   30  C   UNL     1      -0.268   6.804 -31.756  1.00  0.00     0.138 A 
HETATM   31  F   UNL     1       0.892   7.298 -31.304  1.00  0.00    -0.204 F 
HETATM   32  C   UNL     1      -0.985   7.534 -32.699  1.00  0.00     0.047 A 
HETATM   33  C   UNL     1      -2.199   7.042 -33.186  1.00  0.00     0.040 A 
ENDBRANCH  25  26
ENDBRANCH  24  25
ENDBRANCH  20  24
BRANCH  21  34
HETATM   34  O   UNL     1      -5.652   8.064 -31.254  1.00  0.00    -0.355 OA
HETATM   35  C   UNL     1      -4.643   8.746 -30.520  1.00  0.00     0.210 C 
ENDBRANCH  21  34
ENDBRANCH   9  18
BRANCH   1  36
HETATM   36  C   UNL     1      -4.338  -3.851 -34.553  1.00  0.00     0.231 C 
HETATM   37  C   UNL     1      -3.438  -4.734 -33.709  1.00  0.00     0.034 C 
ENDBRANCH   1  36
TORSDOF 6
ENDMDL
MODEL 5
REMARK VINA RESULT:      -9.0      4.565      9.090
REMARK  6 active torsions:
REMARK  status: ('A' for Active; 'I' for Inactive)
REMARK    1  A    between atoms: C_2  and  N_3 
REMARK    2  A    between atoms: C_11  and  C_12 
REMARK    3  A    between atoms: C_14  and  C_15 
REMARK    4  A    between atoms: C_15  and  O_16 
REMARK    5  A    between atoms: O_16  and  C_17 
REMARK    6  A    between atoms: C_25  and  O_26 
ROOT
HETATM    1  N   UNL     1      -6.002  -2.103 -34.032  1.00  0.00    -0.067 N 
HETATM    2  H   UNL     1      -6.602  -2.661 -33.410  1.00  0.00     0.280 HD
HETATM    3  C   UNL     1      -5.053  -1.325 -33.118  1.00  0.00     0.281 C 
HETATM    4  C   UNL     1      -5.804  -0.295 -32.345  1.00  0.00     0.018 A 
HETATM    5  C   UNL     1      -7.080   0.146 -32.636  1.00  0.00    -0.023 A 
HETATM    6  C   UNL     1      -7.534   1.098 -31.667  1.00  0.00     0.073 A 
HETATM    7  C   UNL     1      -6.571   1.364 -30.724  1.00  0.00     0.088 A 
HETATM    8  N   UNL     1      -6.750   2.217 -29.699  1.00  0.00    -0.358 N 
HETATM    9  C   UNL     1      -7.933   3.040 -29.611  1.00  0.00     0.219 C 
HETATM   10  N   UNL     1      -8.975   2.598 -30.506  1.00  0.00    -0.332 N 
HETATM   11  C   UNL     1      -8.821   1.755 -31.567  1.00  0.00     0.256 C 
HETATM   12  O   UNL     1      -9.726   1.558 -32.371  1.00  0.00    -0.267 OA
HETATM   13  S   UNL     1      -5.140   0.483 -30.985  1.00  0.00    -0.074 SA
HETATM   14  C   UNL     1      -7.850  -0.394 -33.805  1.00  0.00     0.068 C 
HETATM   15  C   UNL     1      -6.935  -1.150 -34.785  1.00  0.00     0.240 C 
HETATM   16  H   UNL     1      -5.964   2.518 -29.130  1.00  0.00     0.162 HD
HETATM   17  H   UNL     1      -9.860   3.080 -30.467  1.00  0.00     0.165 HD
ENDROOT
BRANCH   9  18
HETATM   18  C   UNL     1      -7.583   4.501 -29.819  1.00  0.00    -0.016 A 
HETATM   19  C   UNL     1      -6.239   4.888 -29.950  1.00  0.00     0.023 A 
HETATM   20  C   UNL     1      -5.876   6.239 -30.127  1.00  0.00    -0.000 A 
HETATM   21  C   UNL     1      -6.879   7.221 -30.182  1.00  0.00     0.076 A 
HETATM   22  C   UNL     1      -8.219   6.839 -30.081  1.00  0.00     0.038 A 
HETATM   23  C   UNL     1      -8.568   5.495 -29.906  1.00  0.00     0.014 A 
BRANCH  20  24
HETATM   24  C   UNL     1      -4.409   6.592 -30.260  1.00  0.00     0.217 C 
BRANCH  24  25
HETATM   25  O   UNL     1      -3.682   5.390 -30.524  1.00  0.00    -0.347 OA
BRANCH  25  26
HETATM   26  C   UNL     1      -2.922   5.358 -31.661  1.00  0.00     0.070 A 
HETATM   27  C   UNL     1      -3.658   5.284 -32.849  1.00  0.00     0.063 A 
HETATM   28  C   UNL     1      -3.004   5.247 -34.081  1.00  0.00     0.075 A 
HETATM   29 CL   UNL     1      -3.931   5.158 -35.528  1.00  0.00    -0.081 Cl
HETATM   30  C   UNL     1      -1.613   5.282 -34.127  1.00  0.00     0.138 A 
HETATM   31  F   UNL     1      -0.963   5.250 -35.298  1.00  0.00    -0.204 F 
HETATM   32  C   UNL     1      -0.872   5.351 -32.952  1.00  0.00     0.047 A 
HETATM   33  C   UNL     1      -1.526   5.385 -31.716  1.00  0.00     0.040 A 
ENDBRANCH  25  26
ENDBRANCH  24  25
ENDBRANCH  20  24
BRANCH  21  34
HETATM   34  O   UNL     1      -6.451   8.511 -30.343  1.00  0.00    -0.355 OA
HETATM   35  C   UNL     1      -7.276   9.396 -31.091  1.00  0.00     0.210 C 
ENDBRANCH  21  34
ENDBRANCH   9  18
BRANCH   1  36
HETATM   36  C   UNL     1      -5.291  -3.050 -34.966  1.00  0.00     0.231 C 
HETATM   37  C   UNL     1      -6.127  -4.292 -35.215  1.00  0.00     0.034 C 
ENDBRANCH   1  36
TORSDOF 6
ENDMDL
MODEL 6
REMARK VINA RESULT:      -8.9      4.935      9.954
REMARK  6 active torsions:
REMARK  status: ('A' for Active; 'I' for Inactive)
REMARK    1  A    between atoms: C_2  and  N_3 
REMARK    2  A    between atoms: C_11  and  C_12 
REMARK    3  A    between atoms: C_14  and  C_15 
REMARK    4  A    between atoms: C_15  and  O_16 
REMARK    5  A    between atoms: O_16  and  C_17 
REMARK    6  A    between atoms: C_25  and  O_26 
ROOT
HETATM    1  N   UNL     1      -6.111  -2.253 -34.154  1.00  0.00    -0.067 N 
HETATM    2  H   UNL     1      -6.712  -2.765 -33.494  1.00  0.00     0.280 HD
HETATM    3  C   UNL     1      -5.041  -1.565 -33.303  1.00  0.00     0.281 C 
HETATM    4  C   UNL     1      -5.650  -0.484 -32.478  1.00  0.00     0.018 A 
HETATM    5  C   UNL     1      -6.902   0.064 -32.680  1.00  0.00    -0.023 A 
HETATM    6  C   UNL     1      -7.208   1.042 -31.679  1.00  0.00     0.073 A 
HETATM    7  C   UNL     1      -6.165   1.219 -30.802  1.00  0.00     0.088 A 
HETATM    8  N   UNL     1      -6.203   2.073 -29.764  1.00  0.00    -0.358 N 
HETATM    9  C   UNL     1      -7.305   2.992 -29.593  1.00  0.00     0.219 C 
HETATM   10  N   UNL     1      -8.438   2.646 -30.416  1.00  0.00    -0.332 N 
HETATM   11  C   UNL     1      -8.426   1.803 -31.489  1.00  0.00     0.256 C 
HETATM   12  O   UNL     1      -9.397   1.689 -32.230  1.00  0.00    -0.267 OA
HETATM   13  S   UNL     1      -4.833   0.225 -31.164  1.00  0.00    -0.074 SA
HETATM   14  C   UNL     1      -7.791  -0.399 -33.795  1.00  0.00     0.068 C 
HETATM   15  C   UNL     1      -7.010  -1.219 -34.838  1.00  0.00     0.240 C 
HETATM   16  H   UNL     1      -5.358   2.303 -29.249  1.00  0.00     0.162 HD
HETATM   17  H   UNL     1      -9.275   3.199 -30.315  1.00  0.00     0.165 HD
ENDROOT
BRANCH   9  18
HETATM   18  C   UNL     1      -6.849   4.420 -29.819  1.00  0.00    -0.016 A 
HETATM   19  C   UNL     1      -5.735   4.680 -30.634  1.00  0.00     0.023 A 
HETATM   20  C   UNL     1      -5.272   5.993 -30.853  1.00  0.00    -0.000 A 
HETATM   21  C   UNL     1      -5.943   7.070 -30.249  1.00  0.00     0.076 A 
HETATM   22  C   UNL     1      -7.069   6.820 -29.460  1.00  0.00     0.038 A 
HETATM   23  C   UNL     1      -7.519   5.511 -29.250  1.00  0.00     0.014 A 
BRANCH  20  24
HETATM   24  C   UNL     1      -4.064   6.207 -31.742  1.00  0.00     0.217 C 
BRANCH  24  25
HETATM   25  O   UNL     1      -3.001   5.385 -31.256  1.00  0.00    -0.347 OA
BRANCH  25  26
HETATM   26  C   UNL     1      -1.887   6.022 -30.781  1.00  0.00     0.070 A 
HETATM   27  C   UNL     1      -2.116   6.841 -29.670  1.00  0.00     0.063 A 
HETATM   28  C   UNL     1      -1.064   7.546 -29.085  1.00  0.00     0.075 A 
HETATM   29 CL   UNL     1      -1.370   8.546 -27.719  1.00  0.00    -0.081 Cl
HETATM   30  C   UNL     1       0.220   7.434 -29.612  1.00  0.00     0.138 A 
HETATM   31  F   UNL     1       1.248   8.100 -29.067  1.00  0.00    -0.204 F 
HETATM   32  C   UNL     1       0.458   6.626 -30.719  1.00  0.00     0.047 A 
HETATM   33  C   UNL     1      -0.597   5.922 -31.308  1.00  0.00     0.040 A 
ENDBRANCH  25  26
ENDBRANCH  24  25
ENDBRANCH  20  24
BRANCH  21  34
HETATM   34  O   UNL     1      -5.430   8.315 -30.496  1.00  0.00    -0.355 OA
HETATM   35  C   UNL     1      -5.028   9.099 -29.380  1.00  0.00     0.210 C 
ENDBRANCH  21  34
ENDBRANCH   9  18
BRANCH   1  36
HETATM   36  C   UNL     1      -5.547  -3.246 -35.138  1.00  0.00     0.231 C 
HETATM   37  C   UNL     1      -6.395  -4.505 -35.182  1.00  0.00     0.034 C 
ENDBRANCH   1  36
TORSDOF 6
ENDMDL
MODEL 7
REMARK VINA RESULT:      -8.9      5.415      9.707
REMARK  6 active torsions:
REMARK  status: ('A' for Active; 'I' for Inactive)
REMARK    1  A    between atoms: C_2  and  N_3 
REMARK    2  A    between atoms: C_11  and  C_12 
REMARK    3  A    between atoms: C_14  and  C_15 
REMARK    4  A    between atoms: C_15  and  O_16 
REMARK    5  A    between atoms: O_16  and  C_17 
REMARK    6  A    between atoms: C_25  and  O_26 
ROOT
HETATM    1  N   UNL     1     -16.239   3.879 -32.531  1.00  0.00    -0.067 N 
HETATM    2  H   UNL     1     -16.404   3.664 -33.523  1.00  0.00     0.280 HD
HETATM    3  C   UNL     1     -15.116   4.919 -32.505  1.00  0.00     0.281 C 
HETATM    4  C   UNL     1     -13.831   4.307 -32.946  1.00  0.00     0.018 A 
HETATM    5  C   UNL     1     -13.583   2.950 -33.035  1.00  0.00    -0.023 A 
HETATM    6  C   UNL     1     -12.270   2.695 -33.545  1.00  0.00     0.073 A 
HETATM    7  C   UNL     1     -11.575   3.859 -33.772  1.00  0.00     0.088 A 
HETATM    8  N   UNL     1     -10.322   3.894 -34.260  1.00  0.00    -0.358 N 
HETATM    9  C   UNL     1      -9.554   2.683 -34.433  1.00  0.00     0.219 C 
HETATM   10  N   UNL     1     -10.376   1.499 -34.358  1.00  0.00    -0.332 N 
HETATM   11  C   UNL     1     -11.638   1.426 -33.847  1.00  0.00     0.256 C 
HETATM   12  O   UNL     1     -12.204   0.351 -33.674  1.00  0.00    -0.267 OA
HETATM   13  S   UNL     1     -12.482   5.245 -33.387  1.00  0.00    -0.074 SA
HETATM   14  C   UNL     1     -14.629   1.936 -32.677  1.00  0.00     0.068 C 
HETATM   15  C   UNL     1     -15.783   2.570 -31.879  1.00  0.00     0.240 C 
HETATM   16  H   UNL     1      -9.784   4.755 -34.249  1.00  0.00     0.162 HD
HETATM   17  H   UNL     1      -9.931   0.610 -34.528  1.00  0.00     0.165 HD
ENDROOT
BRANCH   9  18
HETATM   18  C   UNL     1      -8.398   2.639 -33.453  1.00  0.00    -0.016 A 
HETATM   19  C   UNL     1      -7.762   1.419 -33.173  1.00  0.00     0.023 A 
HETATM   20  C   UNL     1      -6.696   1.337 -32.254  1.00  0.00    -0.000 A 
HETATM   21  C   UNL     1      -6.253   2.504 -31.607  1.00  0.00     0.076 A 
HETATM   22  C   UNL     1      -6.864   3.725 -31.901  1.00  0.00     0.038 A 
HETATM   23  C   UNL     1      -7.921   3.793 -32.817  1.00  0.00     0.014 A 
BRANCH  20  24
HETATM   24  C   UNL     1      -6.052  -0.009 -31.994  1.00  0.00     0.217 C 
BRANCH  24  25
HETATM   25  O   UNL     1      -5.261  -0.353 -33.135  1.00  0.00    -0.347 OA
BRANCH  25  26
HETATM   26  C   UNL     1      -5.507  -1.564 -33.721  1.00  0.00     0.070 A 
HETATM   27  C   UNL     1      -4.443  -2.471 -33.649  1.00  0.00     0.063 A 
HETATM   28  C   UNL     1      -4.564  -3.744 -34.206  1.00  0.00     0.075 A 
HETATM   29 CL   UNL     1      -3.243  -4.842 -34.102  1.00  0.00    -0.081 Cl
HETATM   30  C   UNL     1      -5.748  -4.113 -34.838  1.00  0.00     0.138 A 
HETATM   31  F   UNL     1      -5.888  -5.331 -35.379  1.00  0.00    -0.204 F 
HETATM   32  C   UNL     1      -6.810  -3.218 -34.920  1.00  0.00     0.047 A 
HETATM   33  C   UNL     1      -6.689  -1.940 -34.365  1.00  0.00     0.040 A 
ENDBRANCH  25  26
ENDBRANCH  24  25
ENDBRANCH  20  24
BRANCH  21  34
HETATM   34  O   UNL     1      -5.224   2.346 -30.718  1.00  0.00    -0.355 OA
HETATM   35  C   UNL     1      -3.972   2.940 -31.042  1.00  0.00     0.210 C 
ENDBRANCH  21  34
ENDBRANCH   9  18
BRANCH   1  36
HETATM   36  C   UNL     1     -17.533   4.380 -31.941  1.00  0.00     0.231 C 
HETATM   37  C   UNL     1     -17.268   5.382 -30.831  1.00  0.00     0.034 C 
ENDBRANCH   1  36
TORSDOF 6
ENDMDL
MODEL 8
REMARK VINA RESULT:      -8.7      4.479      6.370
REMARK  6 active torsions:
REMARK  status: ('A' for Active; 'I' for Inactive)
REMARK    1  A    between atoms: C_2  and  N_3 
REMARK    2  A    between atoms: C_11  and  C_12 
REMARK    3  A    between atoms: C_14  and  C_15 
REMARK    4  A    between atoms: C_15  and  O_16 
REMARK    5  A    between atoms: O_16  and  C_17 
REMARK    6  A    between atoms: C_25  and  O_26 
ROOT
HETATM    1  N   UNL     1      -5.879   7.284 -30.110  1.00  0.00    -0.067 N 
HETATM    2  H   UNL     1      -5.219   7.194 -29.327  1.00  0.00     0.280 HD
HETATM    3  C   UNL     1      -6.885   6.142 -29.947  1.00  0.00     0.281 C 
HETATM    4  C   UNL     1      -6.225   4.829 -30.198  1.00  0.00     0.018 A 
HETATM    5  C   UNL     1      -5.001   4.657 -30.816  1.00  0.00    -0.023 A 
HETATM    6  C   UNL     1      -4.627   3.275 -30.850  1.00  0.00     0.073 A 
HETATM    7  C   UNL     1      -5.596   2.470 -30.303  1.00  0.00     0.088 A 
HETATM    8  N   UNL     1      -5.484   1.133 -30.205  1.00  0.00    -0.358 N 
HETATM    9  C   UNL     1      -4.385   0.428 -30.823  1.00  0.00     0.219 C 
HETATM   10  N   UNL     1      -3.319   1.317 -31.218  1.00  0.00    -0.332 N 
HETATM   11  C   UNL     1      -3.408   2.672 -31.350  1.00  0.00     0.256 C 
HETATM   12  O   UNL     1      -2.500   3.333 -31.844  1.00  0.00    -0.267 OA
HETATM   13  S   UNL     1      -6.940   3.352 -29.746  1.00  0.00    -0.074 SA
HETATM   14  C   UNL     1      -4.202   5.825 -31.312  1.00  0.00     0.068 C 
HETATM   15  C   UNL     1      -5.055   7.104 -31.388  1.00  0.00     0.240 C 
HETATM   16  H   UNL     1      -6.287   0.561 -29.958  1.00  0.00     0.162 HD
HETATM   17  H   UNL     1      -2.485   0.903 -31.604  1.00  0.00     0.165 HD
ENDROOT
BRANCH   9  18
HETATM   18  C   UNL     1      -4.878  -0.421 -31.978  1.00  0.00    -0.016 A 
HETATM   19  C   UNL     1      -6.149  -0.188 -32.528  1.00  0.00     0.023 A 
HETATM   20  C   UNL     1      -6.647  -0.970 -33.591  1.00  0.00    -0.000 A 
HETATM   21  C   UNL     1      -5.852  -2.002 -34.118  1.00  0.00     0.076 A 
HETATM   22  C   UNL     1      -4.576  -2.221 -33.593  1.00  0.00     0.038 A 
HETATM   23  C   UNL     1      -4.092  -1.438 -32.539  1.00  0.00     0.014 A 
BRANCH  20  24
HETATM   24  C   UNL     1      -8.026  -0.669 -34.139  1.00  0.00     0.217 C 
BRANCH  24  25
HETATM   25  O   UNL     1      -8.796  -0.059 -33.101  1.00  0.00    -0.347 OA
BRANCH  25  26
HETATM   26  C   UNL     1      -9.901   0.654 -33.480  1.00  0.00     0.070 A 
HETATM   27  C   UNL     1      -9.620   1.896 -34.059  1.00  0.00     0.063 A 
HETATM   28  C   UNL     1     -10.657   2.722 -34.492  1.00  0.00     0.075 A 
HETATM   29 CL   UNL     1     -10.286   4.245 -35.203  1.00  0.00    -0.081 Cl
HETATM   30  C   UNL     1     -11.978   2.308 -34.347  1.00  0.00     0.138 A 
HETATM   31  F   UNL     1     -12.992   3.083 -34.757  1.00  0.00    -0.204 F 
HETATM   32  C   UNL     1     -12.269   1.076 -33.768  1.00  0.00     0.047 A 
HETATM   33  C   UNL     1     -11.230   0.249 -33.331  1.00  0.00     0.040 A 
ENDBRANCH  25  26
ENDBRANCH  24  25
ENDBRANCH  20  24
BRANCH  21  34
HETATM   34  O   UNL     1      -6.406  -2.727 -35.138  1.00  0.00    -0.355 OA
HETATM   35  C   UNL     1      -6.597  -4.122 -34.934  1.00  0.00     0.210 C 
ENDBRANCH  21  34
ENDBRANCH   9  18
BRANCH   1  36
HETATM   36  C   UNL     1      -6.510   8.651 -30.035  1.00  0.00     0.231 C 
HETATM   37  C   UNL     1      -7.595   8.804 -31.086  1.00  0.00     0.034 C 
ENDBRANCH   1  36
TORSDOF 6
ENDMDL
MODEL 9
REMARK VINA RESULT:      -8.5     17.778     20.012
REMARK  6 active torsions:
REMARK  status: ('A' for Active; 'I' for Inactive)
REMARK    1  A    between atoms: C_2  and  N_3 
REMARK    2  A    between atoms: C_11  and  C_12 
REMARK    3  A    between atoms: C_14  and  C_15 
REMARK    4  A    between atoms: C_15  and  O_16 
REMARK    5  A    between atoms: O_16  and  C_17 
REMARK    6  A    between atoms: C_25  and  O_26 
ROOT
HETATM    1  N   UNL     1      -4.843 -14.432 -33.315  1.00  0.00    -0.067 N 
HETATM    2  H   UNL     1      -4.095 -13.780 -33.044  1.00  0.00     0.280 HD
HETATM    3  C   UNL     1      -4.144 -15.627 -33.968  1.00  0.00     0.281 C 
HETATM    4  C   UNL     1      -3.541 -15.227 -35.272  1.00  0.00     0.018 A 
HETATM    5  C   UNL     1      -3.842 -14.073 -35.969  1.00  0.00    -0.023 A 
HETATM    6  C   UNL     1      -3.048 -13.961 -37.155  1.00  0.00     0.073 A 
HETATM    7  C   UNL     1      -2.225 -15.048 -37.323  1.00  0.00     0.088 A 
HETATM    8  N   UNL     1      -1.372 -15.183 -38.354  1.00  0.00    -0.358 N 
HETATM    9  C   UNL     1      -1.378 -14.249 -39.455  1.00  0.00     0.219 C 
HETATM   10  N   UNL     1      -2.116 -13.048 -39.149  1.00  0.00    -0.332 N 
HETATM   11  C   UNL     1      -3.006 -12.888 -38.127  1.00  0.00     0.256 C 
HETATM   12  O   UNL     1      -3.708 -11.886 -38.034  1.00  0.00    -0.267 OA
HETATM   13  S   UNL     1      -2.391 -16.191 -36.074  1.00  0.00    -0.074 SA
HETATM   14  C   UNL     1      -4.845 -13.084 -35.454  1.00  0.00     0.068 C 
HETATM   15  C   UNL     1      -5.712 -13.687 -34.334  1.00  0.00     0.240 C 
HETATM   16  H   UNL     1      -0.912 -16.071 -38.536  1.00  0.00     0.162 HD
HETATM   17  H   UNL     1      -2.122 -12.314 -39.840  1.00  0.00     0.165 HD
ENDROOT
BRANCH   9  18
HETATM   18  C   UNL     1      -1.877 -14.919 -40.720  1.00  0.00    -0.016 A 
HETATM   19  C   UNL     1      -3.009 -14.413 -41.382  1.00  0.00     0.023 A 
HETATM   20  C   UNL     1      -3.512 -15.021 -42.550  1.00  0.00    -0.000 A 
HETATM   21  C   UNL     1      -2.865 -16.155 -43.071  1.00  0.00     0.076 A 
HETATM   22  C   UNL     1      -1.723 -16.646 -42.433  1.00  0.00     0.038 A 
HETATM   23  C   UNL     1      -1.232 -16.033 -41.274  1.00  0.00     0.014 A 
BRANCH  20  24
HETATM   24  C   UNL     1      -4.736 -14.428 -43.217  1.00  0.00     0.217 C 
BRANCH  24  25
HETATM   25  O   UNL     1      -5.891 -14.853 -42.489  1.00  0.00    -0.347 OA
BRANCH  25  26
HETATM   26  C   UNL     1      -6.238 -14.121 -41.387  1.00  0.00     0.070 A 
HETATM   27  C   UNL     1      -6.507 -14.883 -40.245  1.00  0.00     0.063 A 
HETATM   28  C   UNL     1      -6.870 -14.259 -39.051  1.00  0.00     0.075 A 
HETATM   29 CL   UNL     1      -7.194 -15.218 -37.659  1.00  0.00    -0.081 Cl
HETATM   30  C   UNL     1      -6.967 -12.872 -38.997  1.00  0.00     0.138 A 
HETATM   31  F   UNL     1      -7.312 -12.249 -37.862  1.00  0.00    -0.204 F 
HETATM   32  C   UNL     1      -6.706 -12.104 -40.128  1.00  0.00     0.047 A 
HETATM   33  C   UNL     1      -6.345 -12.729 -41.326  1.00  0.00     0.040 A 
ENDBRANCH  25  26
ENDBRANCH  24  25
ENDBRANCH  20  24
BRANCH  21  34
HETATM   34  O   UNL     1      -3.417 -16.698 -44.199  1.00  0.00    -0.355 OA
HETATM   35  C   UNL     1      -2.718 -16.531 -45.427  1.00  0.00     0.210 C 
ENDBRANCH  21  34
ENDBRANCH   9  18
BRANCH   1  36
HETATM   36  C   UNL     1      -5.618 -14.797 -32.074  1.00  0.00     0.231 C 
HETATM   37  C   UNL     1      -6.721 -15.787 -32.398  1.00  0.00     0.034 C 
ENDBRANCH   1  36
TORSDOF 6
ENDMDL
MODEL 10
REMARK VINA RESULT:      -8.3      2.904      3.855
REMARK  6 active torsions:
REMARK  status: ('A' for Active; 'I' for Inactive)
REMARK    1  A    between atoms: C_2  and  N_3 
REMARK    2  A    between atoms: C_11  and  C_12 
REMARK    3  A    between atoms: C_14  and  C_15 
REMARK    4  A    between atoms: C_15  and  O_16 
REMARK    5  A    between atoms: O_16  and  C_17 
REMARK    6  A    between atoms: C_25  and  O_26 
ROOT
HETATM    1  N   UNL     1      -3.508   9.073 -29.787  1.00  0.00    -0.067 N 
HETATM    2  H   UNL     1      -2.789   8.629 -29.201  1.00  0.00     0.280 HD
HETATM    3  C   UNL     1      -4.854   8.583 -29.250  1.00  0.00     0.281 C 
HETATM    4  C   UNL     1      -5.027   7.129 -29.529  1.00  0.00     0.018 A 
HETATM    5  C   UNL     1      -4.275   6.395 -30.427  1.00  0.00    -0.023 A 
HETATM    6  C   UNL     1      -4.657   5.015 -30.416  1.00  0.00     0.073 A 
HETATM    7  C   UNL     1      -5.701   4.780 -29.553  1.00  0.00     0.088 A 
HETATM    8  N   UNL     1      -6.240   3.565 -29.352  1.00  0.00    -0.358 N 
HETATM    9  C   UNL     1      -5.853   2.433 -30.161  1.00  0.00     0.219 C 
HETATM   10  N   UNL     1      -4.647   2.684 -30.912  1.00  0.00    -0.332 N 
HETATM   11  C   UNL     1      -4.089   3.905 -31.154  1.00  0.00     0.256 C 
HETATM   12  O   UNL     1      -3.153   4.043 -31.935  1.00  0.00    -0.267 OA
HETATM   13  S   UNL     1      -6.218   6.191 -28.757  1.00  0.00    -0.074 SA
HETATM   14  C   UNL     1      -3.179   7.025 -31.232  1.00  0.00     0.068 C 
HETATM   15  C   UNL     1      -3.273   8.562 -31.212  1.00  0.00     0.240 C 
HETATM   16  H   UNL     1      -7.115   3.462 -28.845  1.00  0.00     0.162 HD
HETATM   17  H   UNL     1      -4.270   1.925 -31.459  1.00  0.00     0.165 HD
ENDROOT
BRANCH   9  18
HETATM   18  C   UNL     1      -7.000   1.997 -31.053  1.00  0.00    -0.016 A 
HETATM   19  C   UNL     1      -6.739   1.269 -32.226  1.00  0.00     0.023 A 
HETATM   20  C   UNL     1      -7.778   0.864 -33.088  1.00  0.00    -0.000 A 
HETATM   21  C   UNL     1      -9.107   1.187 -32.765  1.00  0.00     0.076 A 
HETATM   22  C   UNL     1      -9.376   1.887 -31.586  1.00  0.00     0.038 A 
HETATM   23  C   UNL     1      -8.335   2.284 -30.737  1.00  0.00     0.014 A 
BRANCH  20  24
HETATM   24  C   UNL     1      -7.432   0.082 -34.338  1.00  0.00     0.217 C 
BRANCH  24  25
HETATM   25  O   UNL     1      -6.008  -0.012 -34.425  1.00  0.00    -0.347 OA
BRANCH  25  26
HETATM   26  C   UNL     1      -5.455  -1.254 -34.278  1.00  0.00     0.070 A 
HETATM   27  C   UNL     1      -6.158  -2.283 -34.914  1.00  0.00     0.063 A 
HETATM   28  C   UNL     1      -5.699  -3.598 -34.844  1.00  0.00     0.075 A 
HETATM   29 CL   UNL     1      -6.581  -4.846 -35.636  1.00  0.00    -0.081 Cl
HETATM   30  C   UNL     1      -4.536  -3.888 -34.137  1.00  0.00     0.138 A 
HETATM   31  F   UNL     1      -4.074  -5.144 -34.056  1.00  0.00    -0.204 F 
HETATM   32  C   UNL     1      -3.831  -2.874 -33.496  1.00  0.00     0.047 A 
HETATM   33  C   UNL     1      -4.292  -1.555 -33.563  1.00  0.00     0.040 A 
ENDBRANCH  25  26
ENDBRANCH  24  25
ENDBRANCH  20  24
BRANCH  21  34
HETATM   34  O   UNL     1     -10.061   0.772 -33.654  1.00  0.00    -0.355 OA
HETATM   35  C   UNL     1     -10.852   1.768 -34.292  1.00  0.00     0.210 C 
ENDBRANCH  21  34
ENDBRANCH   9  18
BRANCH   1  36
HETATM   36  C   UNL     1      -3.332  10.568 -29.690  1.00  0.00     0.231 C 
HETATM   37  C   UNL     1      -2.225  10.919 -28.713  1.00  0.00     0.034 C 
ENDBRANCH   1  36
TORSDOF 6
ENDMDL
