MODEL 1
REMARK VINA RESULT:      -9.6      0.000      0.000
REMARK  2 active torsions:
REMARK  status: ('A' for Active; 'I' for Inactive)
REMARK       I    between atoms: N_4  and  C_5 
REMARK       I    between atoms: C_5  and  N_6 
REMARK    1  A    between atoms: N_6  and  C_7 
REMARK    2  A    between atoms: C_20  and  C_21 
ROOT
HETATM    1  C   UNL     1     -10.366   5.502 -30.625  1.00  0.00     0.011 C 
HETATM    2  C   UNL     1     -10.051   4.700 -31.877  1.00  0.00     0.002 C 
HETATM    3  C   UNL     1      -9.822   3.220 -31.597  1.00  0.00     0.132 C 
HETATM    4  N   UNL     1     -10.151   2.579 -32.856  1.00  0.00    -0.325 N 
HETATM    5  C   UNL     1      -9.410   1.609 -33.507  1.00  0.00     0.323 C 
HETATM    6  N   UNL     1      -8.561   0.912 -32.677  1.00  0.00    -0.309 N 
HETATM    7  O   UNL     1      -9.524   1.408 -34.713  1.00  0.00    -0.247 OA
HETATM    8  C   UNL     1     -11.175   3.335 -33.569  1.00  0.00     0.125 C 
HETATM    9  C   UNL     1     -11.185   4.729 -32.911  1.00  0.00     0.036 C 
HETATM   10  H   UNL     1      -8.879   0.835 -31.722  1.00  0.00     0.170 HD
ENDROOT
BRANCH   6  11
HETATM   11  C   UNL     1      -7.507   0.067 -33.074  1.00  0.00     0.038 A 
HETATM   12  C   UNL     1      -7.713  -1.219 -33.581  1.00  0.00     0.062 A 
HETATM   13  C   UNL     1      -6.626  -1.991 -34.000  1.00  0.00     0.070 A 
HETATM   14  C   UNL     1      -5.328  -1.490 -33.913  1.00  0.00     0.096 A 
HETATM   15  N   UNL     1      -6.855  -3.250 -34.553  1.00  0.00    -0.323 N 
HETATM   16  O   UNL     1      -4.219  -2.172 -34.329  1.00  0.00    -0.335 OA
HETATM   17  C   UNL     1      -5.118  -0.203 -33.423  1.00  0.00     0.041 A 
HETATM   18  C   UNL     1      -4.421  -3.559 -34.593  1.00  0.00     0.217 C 
HETATM   19  C   UNL     1      -5.828  -4.053 -34.960  1.00  0.00     0.251 C 
HETATM   20  C   UNL     1      -3.920  -4.351 -33.389  1.00  0.00     0.050 C 
HETATM   21  O   UNL     1      -6.040  -5.131 -35.513  1.00  0.00    -0.270 OA
HETATM   22  C   UNL     1      -6.204   0.575 -33.010  1.00  0.00     0.032 A 
HETATM   23  H   UNL     1      -7.796  -3.587 -34.709  1.00  0.00     0.169 HD
ENDBRANCH   6  11
BRANCH   8  24
HETATM   24  C   UNL     1     -12.502   2.598 -33.537  1.00  0.00     0.003 A 
HETATM   25  C   UNL     1     -12.929   1.753 -34.568  1.00  0.00     0.124 A 
HETATM   26  F   UNL     1     -12.163   1.557 -35.653  1.00  0.00    -0.205 F 
HETATM   27  C   UNL     1     -14.159   1.100 -34.518  1.00  0.00     0.043 A 
HETATM   28  C   UNL     1     -15.007   1.302 -33.433  1.00  0.00     0.003 A 
HETATM   29  C   UNL     1     -14.621   2.164 -32.409  1.00  0.00     0.001 A 
HETATM   30  C   UNL     1     -13.381   2.808 -32.461  1.00  0.00     0.012 A 
ENDBRANCH   8  24
TORSDOF 2
ENDMDL
MODEL 2
REMARK VINA RESULT:      -8.7      5.269      7.366
REMARK  2 active torsions:
REMARK  status: ('A' for Active; 'I' for Inactive)
REMARK       I    between atoms: N_4  and  C_5 
REMARK       I    between atoms: C_5  and  N_6 
REMARK    1  A    between atoms: N_6  and  C_7 
REMARK    2  A    between atoms: C_20  and  C_21 
ROOT
HETATM    1  C   UNL     1      -6.744  -1.705 -34.650  1.00  0.00     0.011 C 
HETATM    2  C   UNL     1      -6.617  -0.647 -33.567  1.00  0.00     0.002 C 
HETATM    3  C   UNL     1      -6.301   0.738 -34.120  1.00  0.00     0.132 C 
HETATM    4  N   UNL     1      -6.814   1.637 -33.104  1.00  0.00    -0.325 N 
HETATM    5  C   UNL     1      -6.163   2.732 -32.564  1.00  0.00     0.323 C 
HETATM    6  N   UNL     1      -5.167   3.236 -33.370  1.00  0.00    -0.309 N 
HETATM    7  O   UNL     1      -6.470   3.191 -31.468  1.00  0.00    -0.247 OA
HETATM    8  C   UNL     1      -7.965   1.049 -32.427  1.00  0.00     0.125 C 
HETATM    9  C   UNL     1      -7.908  -0.456 -32.758  1.00  0.00     0.036 C 
HETATM   10  H   UNL     1      -5.320   3.099 -34.358  1.00  0.00     0.170 HD
ENDROOT
BRANCH   6  11
HETATM   11  C   UNL     1      -4.169   4.155 -32.994  1.00  0.00     0.038 A 
HETATM   12  C   UNL     1      -3.223   3.885 -32.000  1.00  0.00     0.062 A 
HETATM   13  C   UNL     1      -2.230   4.823 -31.704  1.00  0.00     0.070 A 
HETATM   14  C   UNL     1      -2.174   6.035 -32.392  1.00  0.00     0.096 A 
HETATM   15  N   UNL     1      -1.264   4.515 -30.748  1.00  0.00    -0.323 N 
HETATM   16  O   UNL     1      -1.218   6.987 -32.180  1.00  0.00    -0.335 OA
HETATM   17  C   UNL     1      -3.105   6.302 -33.393  1.00  0.00     0.041 A 
HETATM   18  C   UNL     1      -0.434   6.811 -31.001  1.00  0.00     0.217 C 
HETATM   19  C   UNL     1      -0.283   5.403 -30.407  1.00  0.00     0.251 C 
HETATM   20  C   UNL     1      -0.979   7.744 -29.923  1.00  0.00     0.050 C 
HETATM   21  O   UNL     1       0.608   5.098 -29.617  1.00  0.00    -0.270 OA
HETATM   22  C   UNL     1      -4.095   5.363 -33.698  1.00  0.00     0.032 A 
HETATM   23  H   UNL     1      -1.236   3.604 -30.310  1.00  0.00     0.169 HD
ENDBRANCH   6  11
BRANCH   8  24
HETATM   24  C   UNL     1      -9.246   1.751 -32.841  1.00  0.00     0.003 A 
HETATM   25  C   UNL     1      -9.921   2.656 -32.013  1.00  0.00     0.124 A 
HETATM   26  F   UNL     1      -9.451   2.943 -30.790  1.00  0.00    -0.205 F 
HETATM   27  C   UNL     1     -11.102   3.275 -32.416  1.00  0.00     0.043 A 
HETATM   28  C   UNL     1     -11.652   2.980 -33.660  1.00  0.00     0.003 A 
HETATM   29  C   UNL     1     -11.017   2.058 -34.490  1.00  0.00     0.001 A 
HETATM   30  C   UNL     1      -9.827   1.447 -34.084  1.00  0.00     0.012 A 
ENDBRANCH   8  24
TORSDOF 2
ENDMDL
MODEL 3
REMARK VINA RESULT:      -8.7      3.052      8.588
REMARK  2 active torsions:
REMARK  status: ('A' for Active; 'I' for Inactive)
REMARK       I    between atoms: N_4  and  C_5 
REMARK       I    between atoms: C_5  and  N_6 
REMARK    1  A    between atoms: N_6  and  C_7 
REMARK    2  A    between atoms: C_20  and  C_21 
ROOT
HETATM    1  C   UNL     1      -3.337   3.064 -32.382  1.00  0.00     0.011 C 
HETATM    2  C   UNL     1      -4.577   2.302 -31.946  1.00  0.00     0.002 C 
HETATM    3  C   UNL     1      -5.621   2.177 -33.050  1.00  0.00     0.132 C 
HETATM    4  N   UNL     1      -6.362   0.984 -32.686  1.00  0.00    -0.325 N 
HETATM    5  C   UNL     1      -7.738   0.842 -32.659  1.00  0.00     0.323 C 
HETATM    6  N   UNL     1      -8.403   1.749 -33.454  1.00  0.00    -0.309 N 
HETATM    7  O   UNL     1      -8.286  -0.023 -31.983  1.00  0.00    -0.247 OA
HETATM    8  C   UNL     1      -5.503   0.036 -31.984  1.00  0.00     0.125 C 
HETATM    9  C   UNL     1      -4.279   0.854 -31.530  1.00  0.00     0.036 C 
HETATM   10  H   UNL     1      -7.882   2.058 -34.261  1.00  0.00     0.170 HD
ENDROOT
BRANCH   6  11
HETATM   11  C   UNL     1      -9.783   2.029 -33.432  1.00  0.00     0.038 A 
HETATM   12  C   UNL     1     -10.391   2.772 -32.416  1.00  0.00     0.062 A 
HETATM   13  C   UNL     1     -11.758   3.053 -32.476  1.00  0.00     0.070 A 
HETATM   14  C   UNL     1     -12.529   2.594 -33.543  1.00  0.00     0.096 A 
HETATM   15  N   UNL     1     -12.338   3.840 -31.482  1.00  0.00    -0.323 N 
HETATM   16  O   UNL     1     -13.863   2.852 -33.686  1.00  0.00    -0.335 OA
HETATM   17  C   UNL     1     -11.925   1.866 -34.566  1.00  0.00     0.041 A 
HETATM   18  C   UNL     1     -14.509   3.378 -32.528  1.00  0.00     0.217 C 
HETATM   19  C   UNL     1     -13.673   4.129 -31.482  1.00  0.00     0.251 C 
HETATM   20  C   UNL     1     -15.250   2.236 -31.838  1.00  0.00     0.050 C 
HETATM   21  O   UNL     1     -14.164   4.883 -30.644  1.00  0.00    -0.270 OA
HETATM   22  C   UNL     1     -10.555   1.589 -34.514  1.00  0.00     0.032 A 
HETATM   23  H   UNL     1     -11.773   4.259 -30.754  1.00  0.00     0.169 HD
ENDBRANCH   6  11
BRANCH   8  24
HETATM   24  C   UNL     1      -5.188  -1.157 -32.869  1.00  0.00     0.003 A 
HETATM   25  C   UNL     1      -4.129  -2.037 -32.613  1.00  0.00     0.124 A 
HETATM   26  F   UNL     1      -3.331  -1.854 -31.550  1.00  0.00    -0.205 F 
HETATM   27  C   UNL     1      -3.855  -3.115 -33.451  1.00  0.00     0.043 A 
HETATM   28  C   UNL     1      -4.629  -3.324 -34.589  1.00  0.00     0.003 A 
HETATM   29  C   UNL     1      -5.669  -2.444 -34.884  1.00  0.00     0.001 A 
HETATM   30  C   UNL     1      -5.945  -1.370 -34.034  1.00  0.00     0.012 A 
ENDBRANCH   8  24
TORSDOF 2
ENDMDL
MODEL 4
REMARK VINA RESULT:      -8.4      2.647      8.887
REMARK  2 active torsions:
REMARK  status: ('A' for Active; 'I' for Inactive)
REMARK       I    between atoms: N_4  and  C_5 
REMARK       I    between atoms: C_5  and  N_6 
REMARK    1  A    between atoms: N_6  and  C_7 
REMARK    2  A    between atoms: C_20  and  C_21 
ROOT
HETATM    1  C   UNL     1      -6.591  -4.412 -34.846  1.00  0.00     0.011 C 
HETATM    2  C   UNL     1      -6.801  -2.915 -34.998  1.00  0.00     0.002 C 
HETATM    3  C   UNL     1      -7.562  -2.297 -33.831  1.00  0.00     0.132 C 
HETATM    4  N   UNL     1      -7.133  -0.911 -33.839  1.00  0.00    -0.325 N 
HETATM    5  C   UNL     1      -7.944   0.205 -33.740  1.00  0.00     0.323 C 
HETATM    6  N   UNL     1      -9.163  -0.048 -33.150  1.00  0.00    -0.309 N 
HETATM    7  O   UNL     1      -7.583   1.306 -34.144  1.00  0.00    -0.247 OA
HETATM    8  C   UNL     1      -5.768  -0.795 -34.342  1.00  0.00     0.125 C 
HETATM    9  C   UNL     1      -5.485  -2.127 -35.064  1.00  0.00     0.036 C 
HETATM   10  H   UNL     1      -9.154  -0.803 -32.480  1.00  0.00     0.170 HD
ENDROOT
BRANCH   6  11
HETATM   11  C   UNL     1     -10.286   0.801 -33.149  1.00  0.00     0.038 A 
HETATM   12  C   UNL     1     -10.217   2.153 -32.798  1.00  0.00     0.062 A 
HETATM   13  C   UNL     1     -11.360   2.953 -32.861  1.00  0.00     0.070 A 
HETATM   14  C   UNL     1     -12.580   2.414 -33.269  1.00  0.00     0.096 A 
HETATM   15  N   UNL     1     -11.262   4.311 -32.559  1.00  0.00    -0.323 N 
HETATM   16  O   UNL     1     -13.733   3.138 -33.383  1.00  0.00    -0.335 OA
HETATM   17  C   UNL     1     -12.651   1.071 -33.634  1.00  0.00     0.041 A 
HETATM   18  C   UNL     1     -13.703   4.429 -32.780  1.00  0.00     0.217 C 
HETATM   19  C   UNL     1     -12.351   5.133 -32.586  1.00  0.00     0.251 C 
HETATM   20  C   UNL     1     -14.409   4.341 -31.430  1.00  0.00     0.050 C 
HETATM   21  O   UNL     1     -12.245   6.342 -32.391  1.00  0.00    -0.270 OA
HETATM   22  C   UNL     1     -11.507   0.269 -33.580  1.00  0.00     0.032 A 
HETATM   23  H   UNL     1     -10.366   4.735 -32.355  1.00  0.00     0.169 HD
ENDBRANCH   6  11
BRANCH   8  24
HETATM   24  C   UNL     1      -4.810  -0.458 -33.213  1.00  0.00     0.003 A 
HETATM   25  C   UNL     1      -4.544   0.855 -32.805  1.00  0.00     0.124 A 
HETATM   26  F   UNL     1      -5.140   1.892 -33.413  1.00  0.00    -0.205 F 
HETATM   27  C   UNL     1      -3.649   1.134 -31.775  1.00  0.00     0.043 A 
HETATM   28  C   UNL     1      -2.975   0.095 -31.140  1.00  0.00     0.003 A 
HETATM   29  C   UNL     1      -3.197  -1.219 -31.549  1.00  0.00     0.001 A 
HETATM   30  C   UNL     1      -4.104  -1.493 -32.577  1.00  0.00     0.012 A 
ENDBRANCH   8  24
TORSDOF 2
ENDMDL
MODEL 5
REMARK VINA RESULT:      -8.3     15.172     17.241
REMARK  2 active torsions:
REMARK  status: ('A' for Active; 'I' for Inactive)
REMARK       I    between atoms: N_4  and  C_5 
REMARK       I    between atoms: C_5  and  N_6 
REMARK    1  A    between atoms: N_6  and  C_7 
REMARK    2  A    between atoms: C_20  and  C_21 
ROOT
HETATM    1  C   UNL     1      -7.524 -12.683 -40.317  1.00  0.00     0.011 C 
HETATM    2  C   UNL     1      -6.531 -12.443 -39.193  1.00  0.00     0.002 C 
HETATM    3  C   UNL     1      -6.204 -13.706 -38.404  1.00  0.00     0.132 C 
HETATM    4  N   UNL     1      -4.887 -13.436 -37.858  1.00  0.00    -0.325 N 
HETATM    5  C   UNL     1      -4.476 -13.643 -36.554  1.00  0.00     0.323 C 
HETATM    6  N   UNL     1      -5.234 -14.571 -35.875  1.00  0.00    -0.309 N 
HETATM    7  O   UNL     1      -3.518 -13.043 -36.075  1.00  0.00    -0.247 OA
HETATM    8  C   UNL     1      -4.127 -12.565 -38.748  1.00  0.00     0.125 C 
HETATM    9  C   UNL     1      -5.171 -11.933 -39.690  1.00  0.00     0.036 C 
HETATM   10  H   UNL     1      -5.642 -15.285 -36.460  1.00  0.00     0.170 HD
ENDROOT
BRANCH   6  11
HETATM   11  C   UNL     1      -5.236 -14.797 -34.485  1.00  0.00     0.038 A 
HETATM   12  C   UNL     1      -4.678 -15.937 -33.900  1.00  0.00     0.062 A 
HETATM   13  C   UNL     1      -4.672 -16.080 -32.510  1.00  0.00     0.070 A 
HETATM   14  C   UNL     1      -5.225 -15.093 -31.695  1.00  0.00     0.096 A 
HETATM   15  N   UNL     1      -4.065 -17.198 -31.941  1.00  0.00    -0.323 N 
HETATM   16  O   UNL     1      -5.231 -15.147 -30.330  1.00  0.00    -0.335 OA
HETATM   17  C   UNL     1      -5.768 -13.947 -32.273  1.00  0.00     0.041 A 
HETATM   18  C   UNL     1      -4.900 -16.417 -29.770  1.00  0.00     0.217 C 
HETATM   19  C   UNL     1      -4.048 -17.397 -30.590  1.00  0.00     0.251 C 
HETATM   20  C   UNL     1      -6.198 -17.112 -29.367  1.00  0.00     0.050 C 
HETATM   21  O   UNL     1      -3.447 -18.346 -30.091  1.00  0.00    -0.270 OA
HETATM   22  C   UNL     1      -5.769 -13.797 -33.663  1.00  0.00     0.032 A 
HETATM   23  H   UNL     1      -3.577 -17.874 -32.515  1.00  0.00     0.169 HD
ENDBRANCH   6  11
BRANCH   8  24
HETATM   24  C   UNL     1      -3.022 -13.342 -39.441  1.00  0.00     0.003 A 
HETATM   25  C   UNL     1      -1.673 -13.233 -39.082  1.00  0.00     0.124 A 
HETATM   26  F   UNL     1      -1.295 -12.415 -38.088  1.00  0.00    -0.205 F 
HETATM   27  C   UNL     1      -0.678 -13.948 -39.746  1.00  0.00     0.043 A 
HETATM   28  C   UNL     1      -1.015 -14.780 -40.810  1.00  0.00     0.003 A 
HETATM   29  C   UNL     1      -2.346 -14.882 -41.209  1.00  0.00     0.001 A 
HETATM   30  C   UNL     1      -3.340 -14.168 -40.533  1.00  0.00     0.012 A 
ENDBRANCH   8  24
TORSDOF 2
ENDMDL
MODEL 6
REMARK VINA RESULT:      -8.3      2.045      3.468
REMARK  2 active torsions:
REMARK  status: ('A' for Active; 'I' for Inactive)
REMARK       I    between atoms: N_4  and  C_5 
REMARK       I    between atoms: C_5  and  N_6 
REMARK    1  A    between atoms: N_6  and  C_7 
REMARK    2  A    between atoms: C_20  and  C_21 
ROOT
HETATM    1  C   UNL     1     -14.856   0.700 -34.245  1.00  0.00     0.011 C 
HETATM    2  C   UNL     1     -13.607   1.195 -33.536  1.00  0.00     0.002 C 
HETATM    3  C   UNL     1     -12.388   1.264 -34.449  1.00  0.00     0.132 C 
HETATM    4  N   UNL     1     -11.551   2.272 -33.827  1.00  0.00    -0.325 N 
HETATM    5  C   UNL     1     -10.193   2.180 -33.581  1.00  0.00     0.323 C 
HETATM    6  N   UNL     1      -9.546   1.267 -34.383  1.00  0.00    -0.309 N 
HETATM    7  O   UNL     1      -9.643   2.866 -32.723  1.00  0.00    -0.247 OA
HETATM    8  C   UNL     1     -12.366   3.267 -33.138  1.00  0.00     0.125 C 
HETATM    9  C   UNL     1     -13.755   2.618 -32.980  1.00  0.00     0.036 C 
HETATM   10  H   UNL     1      -9.966   1.137 -35.291  1.00  0.00     0.170 HD
ENDROOT
BRANCH   6  11
HETATM   11  C   UNL     1      -8.244   0.762 -34.196  1.00  0.00     0.038 A 
HETATM   12  C   UNL     1      -7.920  -0.587 -34.371  1.00  0.00     0.062 A 
HETATM   13  C   UNL     1      -6.600  -1.017 -34.214  1.00  0.00     0.070 A 
HETATM   14  C   UNL     1      -5.596  -0.109 -33.878  1.00  0.00     0.096 A 
HETATM   15  N   UNL     1      -6.286  -2.355 -34.444  1.00  0.00    -0.323 N 
HETATM   16  O   UNL     1      -4.280  -0.448 -33.736  1.00  0.00    -0.335 OA
HETATM   17  C   UNL     1      -5.911   1.239 -33.719  1.00  0.00     0.041 A 
HETATM   18  C   UNL     1      -4.016  -1.847 -33.660  1.00  0.00     0.217 C 
HETATM   19  C   UNL     1      -5.016  -2.832 -34.286  1.00  0.00     0.251 C 
HETATM   20  C   UNL     1      -3.817  -2.215 -32.192  1.00  0.00     0.050 C 
HETATM   21  O   UNL     1      -4.731  -3.995 -34.560  1.00  0.00    -0.270 OA
HETATM   22  C   UNL     1      -7.230   1.674 -33.883  1.00  0.00     0.032 A 
HETATM   23  H   UNL     1      -6.985  -3.004 -34.779  1.00  0.00     0.169 HD
ENDBRANCH   6  11
BRANCH   8  24
HETATM   24  C   UNL     1     -12.353   4.584 -33.894  1.00  0.00     0.003 A 
HETATM   25  C   UNL     1     -11.715   5.734 -33.412  1.00  0.00     0.124 A 
HETATM   26  F   UNL     1     -11.077   5.716 -32.232  1.00  0.00    -0.205 F 
HETATM   27  C   UNL     1     -11.732   6.932 -34.122  1.00  0.00     0.043 A 
HETATM   28  C   UNL     1     -12.415   7.013 -35.332  1.00  0.00     0.003 A 
HETATM   29  C   UNL     1     -13.085   5.892 -35.819  1.00  0.00     0.001 A 
HETATM   30  C   UNL     1     -13.057   4.690 -35.106  1.00  0.00     0.012 A 
ENDBRANCH   8  24
TORSDOF 2
ENDMDL
MODEL 7
REMARK VINA RESULT:      -8.2      5.949      8.234
REMARK  2 active torsions:
REMARK  status: ('A' for Active; 'I' for Inactive)
REMARK       I    between atoms: N_4  and  C_5 
REMARK       I    between atoms: C_5  and  N_6 
REMARK    1  A    between atoms: N_6  and  C_7 
REMARK    2  A    between atoms: C_20  and  C_21 
ROOT
HETATM    1  C   UNL     1       0.763   6.754 -31.217  1.00  0.00     0.011 C 
HETATM    2  C   UNL     1      -0.634   6.519 -31.766  1.00  0.00     0.002 C 
HETATM    3  C   UNL     1      -1.446   5.535 -30.932  1.00  0.00     0.132 C 
HETATM    4  N   UNL     1      -2.821   5.904 -31.211  1.00  0.00    -0.325 N 
HETATM    5  C   UNL     1      -3.858   5.046 -31.527  1.00  0.00     0.323 C 
HETATM    6  N   UNL     1      -3.653   3.751 -31.106  1.00  0.00    -0.309 N 
HETATM    7  O   UNL     1      -4.859   5.433 -32.124  1.00  0.00    -0.247 OA
HETATM    8  C   UNL     1      -2.926   7.332 -31.491  1.00  0.00     0.125 C 
HETATM    9  C   UNL     1      -1.489   7.793 -31.803  1.00  0.00     0.036 C 
HETATM   10  H   UNL     1      -3.081   3.666 -30.279  1.00  0.00     0.170 HD
ENDROOT
BRANCH   6  11
HETATM   11  C   UNL     1      -4.384   2.615 -31.503  1.00  0.00     0.038 A 
HETATM   12  C   UNL     1      -3.851   1.617 -32.325  1.00  0.00     0.062 A 
HETATM   13  C   UNL     1      -4.615   0.492 -32.646  1.00  0.00     0.070 A 
HETATM   14  C   UNL     1      -5.913   0.354 -32.156  1.00  0.00     0.096 A 
HETATM   15  N   UNL     1      -4.049  -0.518 -33.423  1.00  0.00    -0.323 N 
HETATM   16  O   UNL     1      -6.709  -0.729 -32.402  1.00  0.00    -0.335 OA
HETATM   17  C   UNL     1      -6.443   1.338 -31.324  1.00  0.00     0.041 A 
HETATM   18  C   UNL     1      -6.254  -1.596 -33.438  1.00  0.00     0.217 C 
HETATM   19  C   UNL     1      -4.757  -1.630 -33.782  1.00  0.00     0.251 C 
HETATM   20  C   UNL     1      -7.042  -1.279 -34.706  1.00  0.00     0.050 C 
HETATM   21  O   UNL     1      -4.230  -2.550 -34.404  1.00  0.00    -0.270 OA
HETATM   22  C   UNL     1      -5.680   2.462 -30.994  1.00  0.00     0.032 A 
HETATM   23  H   UNL     1      -3.079  -0.476 -33.705  1.00  0.00     0.169 HD
ENDBRANCH   6  11
BRANCH   8  24
HETATM   24  C   UNL     1      -3.597   8.055 -30.336  1.00  0.00     0.003 A 
HETATM   25  C   UNL     1      -4.908   8.543 -30.401  1.00  0.00     0.124 A 
HETATM   26  F   UNL     1      -5.639   8.388 -31.515  1.00  0.00    -0.205 F 
HETATM   27  C   UNL     1      -5.492   9.215 -29.330  1.00  0.00     0.043 A 
HETATM   28  C   UNL     1      -4.761   9.436 -28.166  1.00  0.00     0.003 A 
HETATM   29  C   UNL     1      -3.443   8.989 -28.088  1.00  0.00     0.001 A 
HETATM   30  C   UNL     1      -2.865   8.307 -29.163  1.00  0.00     0.012 A 
ENDBRANCH   8  24
TORSDOF 2
ENDMDL
MODEL 8
REMARK VINA RESULT:      -8.2      5.469      8.901
REMARK  2 active torsions:
REMARK  status: ('A' for Active; 'I' for Inactive)
REMARK       I    between atoms: N_4  and  C_5 
REMARK       I    between atoms: C_5  and  N_6 
REMARK    1  A    between atoms: N_6  and  C_7 
REMARK    2  A    between atoms: C_20  and  C_21 
ROOT
HETATM    1  C   UNL     1      -9.385  -0.405 -32.719  1.00  0.00     0.011 C 
HETATM    2  C   UNL     1      -8.119   0.281 -33.203  1.00  0.00     0.002 C 
HETATM    3  C   UNL     1      -7.170   0.653 -32.070  1.00  0.00     0.132 C 
HETATM    4  N   UNL     1      -5.870   0.696 -32.713  1.00  0.00    -0.325 N 
HETATM    5  C   UNL     1      -4.916   1.689 -32.581  1.00  0.00     0.323 C 
HETATM    6  N   UNL     1      -5.046   2.431 -31.428  1.00  0.00    -0.309 N 
HETATM    7  O   UNL     1      -4.045   1.865 -33.427  1.00  0.00    -0.247 OA
HETATM    8  C   UNL     1      -5.811  -0.249 -33.823  1.00  0.00     0.125 C 
HETATM    9  C   UNL     1      -7.278  -0.598 -34.140  1.00  0.00     0.036 C 
HETATM   10  H   UNL     1      -5.452   1.930 -30.652  1.00  0.00     0.170 HD
ENDROOT
BRANCH   6  11
HETATM   11  C   UNL     1      -4.410   3.655 -31.143  1.00  0.00     0.038 A 
HETATM   12  C   UNL     1      -3.051   3.878 -31.379  1.00  0.00     0.062 A 
HETATM   13  C   UNL     1      -2.490   5.131 -31.116  1.00  0.00     0.070 A 
HETATM   14  C   UNL     1      -3.276   6.167 -30.613  1.00  0.00     0.096 A 
HETATM   15  N   UNL     1      -1.144   5.351 -31.407  1.00  0.00    -0.323 N 
HETATM   16  O   UNL     1      -2.808   7.425 -30.359  1.00  0.00    -0.335 OA
HETATM   17  C   UNL     1      -4.635   5.954 -30.391  1.00  0.00     0.041 A 
HETATM   18  C   UNL     1      -1.388   7.556 -30.356  1.00  0.00     0.217 C 
HETATM   19  C   UNL     1      -0.542   6.550 -31.152  1.00  0.00     0.251 C 
HETATM   20  C   UNL     1      -0.912   7.559 -28.906  1.00  0.00     0.050 C 
HETATM   21  O   UNL     1       0.624   6.762 -31.478  1.00  0.00    -0.270 OA
HETATM   22  C   UNL     1      -5.202   4.704 -30.661  1.00  0.00     0.032 A 
HETATM   23  H   UNL     1      -0.586   4.640 -31.860  1.00  0.00     0.169 HD
ENDBRANCH   6  11
BRANCH   8  24
HETATM   24  C   UNL     1      -4.929  -1.433 -33.471  1.00  0.00     0.003 A 
HETATM   25  C   UNL     1      -4.864  -2.594 -34.252  1.00  0.00     0.124 A 
HETATM   26  F   UNL     1      -5.598  -2.707 -35.369  1.00  0.00    -0.205 F 
HETATM   27  C   UNL     1      -4.056  -3.671 -33.895  1.00  0.00     0.043 A 
HETATM   28  C   UNL     1      -3.306  -3.619 -32.724  1.00  0.00     0.003 A 
HETATM   29  C   UNL     1      -3.378  -2.489 -31.912  1.00  0.00     0.001 A 
HETATM   30  C   UNL     1      -4.183  -1.407 -32.280  1.00  0.00     0.012 A 
ENDBRANCH   8  24
TORSDOF 2
ENDMDL
MODEL 9
REMARK VINA RESULT:      -8.1      7.015      9.821
REMARK  2 active torsions:
REMARK  status: ('A' for Active; 'I' for Inactive)
REMARK       I    between atoms: N_4  and  C_5 
REMARK       I    between atoms: C_5  and  N_6 
REMARK    1  A    between atoms: N_6  and  C_7 
REMARK    2  A    between atoms: C_20  and  C_21 
ROOT
HETATM    1  C   UNL     1       1.509   4.839 -30.573  1.00  0.00     0.011 C 
HETATM    2  C   UNL     1       0.248   5.238 -31.321  1.00  0.00     0.002 C 
HETATM    3  C   UNL     1      -1.028   4.942 -30.542  1.00  0.00     0.132 C 
HETATM    4  N   UNL     1      -1.984   5.891 -31.079  1.00  0.00    -0.325 N 
HETATM    5  C   UNL     1      -3.281   5.621 -31.479  1.00  0.00     0.323 C 
HETATM    6  N   UNL     1      -3.811   4.487 -30.905  1.00  0.00    -0.309 N 
HETATM    7  O   UNL     1      -3.879   6.346 -32.268  1.00  0.00    -0.247 OA
HETATM    8  C   UNL     1      -1.313   7.113 -31.510  1.00  0.00     0.125 C 
HETATM    9  C   UNL     1       0.178   6.742 -31.623  1.00  0.00     0.036 C 
HETATM   10  H   UNL     1      -3.443   4.270 -29.991  1.00  0.00     0.170 HD
ENDROOT
BRANCH   6  11
HETATM   11  C   UNL     1      -4.981   3.814 -31.306  1.00  0.00     0.038 A 
HETATM   12  C   UNL     1      -5.099   3.161 -32.536  1.00  0.00     0.062 A 
HETATM   13  C   UNL     1      -6.273   2.473 -32.855  1.00  0.00     0.070 A 
HETATM   14  C   UNL     1      -7.338   2.435 -31.955  1.00  0.00     0.096 A 
HETATM   15  N   UNL     1      -6.353   1.783 -34.064  1.00  0.00    -0.323 N 
HETATM   16  O   UNL     1      -8.504   1.760 -32.183  1.00  0.00    -0.335 OA
HETATM   17  C   UNL     1      -7.219   3.071 -30.721  1.00  0.00     0.041 A 
HETATM   18  C   UNL     1      -8.705   1.328 -33.527  1.00  0.00     0.217 C 
HETATM   19  C   UNL     1      -7.483   1.111 -34.433  1.00  0.00     0.251 C 
HETATM   20  C   UNL     1      -9.652   2.313 -34.207  1.00  0.00     0.050 C 
HETATM   21  O   UNL     1      -7.522   0.444 -35.465  1.00  0.00    -0.270 OA
HETATM   22  C   UNL     1      -6.043   3.754 -30.395  1.00  0.00     0.032 A 
HETATM   23  H   UNL     1      -5.556   1.723 -34.683  1.00  0.00     0.169 HD
ENDBRANCH   6  11
BRANCH   8  24
HETATM   24  C   UNL     1      -1.621   8.256 -30.559  1.00  0.00     0.003 A 
HETATM   25  C   UNL     1      -1.130   8.310 -29.249  1.00  0.00     0.124 A 
HETATM   26  F   UNL     1      -0.350   7.329 -28.771  1.00  0.00    -0.205 F 
HETATM   27  C   UNL     1      -1.441   9.365 -28.393  1.00  0.00     0.043 A 
HETATM   28  C   UNL     1      -2.280  10.387 -28.829  1.00  0.00     0.003 A 
HETATM   29  C   UNL     1      -2.809  10.341 -30.117  1.00  0.00     0.001 A 
HETATM   30  C   UNL     1      -2.485   9.285 -30.973  1.00  0.00     0.012 A 
ENDBRANCH   8  24
TORSDOF 2
ENDMDL
MODEL 10
REMARK VINA RESULT:      -8.0     15.210     18.734
REMARK  2 active torsions:
REMARK  status: ('A' for Active; 'I' for Inactive)
REMARK       I    between atoms: N_4  and  C_5 
REMARK       I    between atoms: C_5  and  N_6 
REMARK    1  A    between atoms: N_6  and  C_7 
REMARK    2  A    between atoms: C_20  and  C_21 
ROOT
HETATM    1  C   UNL     1      -1.123 -14.286 -36.878  1.00  0.00     0.011 C 
HETATM    2  C   UNL     1      -1.701 -13.795 -38.194  1.00  0.00     0.002 C 
HETATM    3  C   UNL     1      -2.465 -14.874 -38.952  1.00  0.00     0.132 C 
HETATM    4  N   UNL     1      -3.397 -14.123 -39.771  1.00  0.00    -0.325 N 
HETATM    5  C   UNL     1      -3.654 -14.315 -41.116  1.00  0.00     0.323 C 
HETATM    6  N   UNL     1      -3.335 -15.577 -41.566  1.00  0.00    -0.309 N 
HETATM    7  O   UNL     1      -4.128 -13.426 -41.818  1.00  0.00    -0.247 OA
HETATM    8  C   UNL     1      -3.777 -12.878 -39.112  1.00  0.00     0.125 C 
HETATM    9  C   UNL     1      -2.714 -12.654 -38.018  1.00  0.00     0.036 C 
HETATM   10  H   UNL     1      -3.408 -16.301 -40.867  1.00  0.00     0.170 HD
ENDROOT
BRANCH   6  11
HETATM   11  C   UNL     1      -3.231 -15.986 -42.909  1.00  0.00     0.038 A 
HETATM   12  C   UNL     1      -4.052 -15.484 -43.923  1.00  0.00     0.062 A 
HETATM   13  C   UNL     1      -3.868 -15.898 -45.245  1.00  0.00     0.070 A 
HETATM   14  C   UNL     1      -2.870 -16.818 -45.565  1.00  0.00     0.096 A 
HETATM   15  N   UNL     1      -4.661 -15.347 -46.250  1.00  0.00    -0.323 N 
HETATM   16  O   UNL     1      -2.611 -17.248 -46.836  1.00  0.00    -0.335 OA
HETATM   17  C   UNL     1      -2.039 -17.310 -44.561  1.00  0.00     0.041 A 
HETATM   18  C   UNL     1      -3.611 -16.932 -47.802  1.00  0.00     0.217 C 
HETATM   19  C   UNL     1      -4.536 -15.731 -47.555  1.00  0.00     0.251 C 
HETATM   20  C   UNL     1      -4.468 -18.175 -48.024  1.00  0.00     0.050 C 
HETATM   21  O   UNL     1      -5.187 -15.188 -48.446  1.00  0.00    -0.270 OA
HETATM   22  C   UNL     1      -2.215 -16.891 -43.238  1.00  0.00     0.032 A 
HETATM   23  H   UNL     1      -5.323 -14.610 -46.045  1.00  0.00     0.169 HD
ENDBRANCH   6  11
BRANCH   8  24
HETATM   24  C   UNL     1      -5.208 -12.953 -38.612  1.00  0.00     0.003 A 
HETATM   25  C   UNL     1      -6.276 -12.317 -39.258  1.00  0.00     0.124 A 
HETATM   26  F   UNL     1      -6.068 -11.597 -40.371  1.00  0.00    -0.205 F 
HETATM   27  C   UNL     1      -7.578 -12.392 -38.768  1.00  0.00     0.043 A 
HETATM   28  C   UNL     1      -7.838 -13.094 -37.595  1.00  0.00     0.003 A 
HETATM   29  C   UNL     1      -6.789 -13.709 -36.914  1.00  0.00     0.001 A 
HETATM   30  C   UNL     1      -5.486 -13.638 -37.416  1.00  0.00     0.012 A 
ENDBRANCH   8  24
TORSDOF 2
ENDMDL
