MODEL 1
REMARK VINA RESULT:      -8.9      0.000      0.000
REMARK  9 active torsions:
REMARK  status: ('A' for Active; 'I' for Inactive)
REMARK    1  A    between atoms: C_4  and  C_5 
REMARK    2  A    between atoms: C_7  and  O_8 
REMARK    3  A    between atoms: C_10  and  O_11 
REMARK    4  A    between atoms: C_16  and  C_17 
REMARK    5  A    between atoms: C_20  and  C_21 
REMARK    6  A    between atoms: C_21  and  N_22 
REMARK    7  A    between atoms: N_22  and  C_23 
REMARK    8  A    between atoms: C_23  and  N_24 
REMARK    9  A    between atoms: N_24  and  C_25 
ROOT
HETATM    1  C   UNL     1      -6.382   4.196 -33.482  1.00  0.00     0.034 A 
HETATM    2  C   UNL     1      -5.922   3.503 -32.358  1.00  0.00     0.031 A 
HETATM    3  C   UNL     1      -4.585   3.605 -31.958  1.00  0.00     0.025 A 
HETATM    4  C   UNL     1      -3.694   4.410 -32.674  1.00  0.00     0.044 A 
HETATM    5  C   UNL     1      -2.325   4.505 -32.263  1.00  0.00     0.099 C 
HETATM    6  N   UNL     1      -1.218   4.560 -31.920  1.00  0.00    -0.191 NA
HETATM    7  C   UNL     1      -4.155   5.126 -33.780  1.00  0.00     0.025 A 
HETATM    8  C   UNL     1      -5.495   5.028 -34.172  1.00  0.00     0.031 A 
ENDROOT
BRANCH   1   9
HETATM    9  N   UNL     1      -7.721   4.169 -33.921  1.00  0.00    -0.333 N 
HETATM   10  H   UNL     1      -7.968   3.385 -34.522  1.00  0.00     0.168 HD
BRANCH   9  11
HETATM   11  C   UNL     1      -8.727   5.085 -33.797  1.00  0.00     0.172 C 
HETATM   12  S   UNL     1      -8.731   6.081 -32.458  1.00  0.00    -0.041 SA
BRANCH  11  13
HETATM   13  N   UNL     1      -9.629   5.144 -34.828  1.00  0.00    -0.365 N 
HETATM   14  H   UNL     1      -9.168   5.358 -35.708  1.00  0.00     0.161 HD
BRANCH  13  15
HETATM   15  C   UNL     1     -11.031   5.528 -34.691  1.00  0.00     0.155 C 
BRANCH  15  16
HETATM   16  C   UNL     1     -11.999   4.333 -34.827  1.00  0.00     0.206 C 
HETATM   17  C   UNL     1     -11.372   3.102 -35.503  1.00  0.00     0.040 C 
HETATM   18  C   UNL     1     -11.705   1.798 -34.745  1.00  0.00     0.001 C 
HETATM   19  C   UNL     1     -11.169   1.800 -33.297  1.00  0.00     0.067 C 
HETATM   20  C   UNL     1     -13.254   1.781 -34.623  1.00  0.00     0.033 C 
HETATM   21  C   UNL     1     -11.484   3.158 -32.638  1.00  0.00     0.246 C 
HETATM   22  N   UNL     1     -12.549   3.870 -33.481  1.00  0.00    -0.065 N 
HETATM   23  C   UNL     1     -13.730   2.932 -33.720  1.00  0.00     0.236 C 
HETATM   24  H   UNL     1     -12.886   4.685 -32.950  1.00  0.00     0.280 HD
BRANCH  19  25
HETATM   25  C   UNL     1      -9.785   1.311 -32.970  1.00  0.00     0.038 C 
HETATM   26  N   UNL     1      -8.975   1.530 -31.880  1.00  0.00    -0.277 N 
HETATM   27  C   UNL     1      -9.106   2.435 -30.764  1.00  0.00     0.179 C 
HETATM   28  N   UNL     1      -7.892   0.741 -31.860  1.00  0.00    -0.172 NA
HETATM   29  C   UNL     1      -7.880   0.103 -33.033  1.00  0.00     0.089 C 
HETATM   30  C   UNL     1      -9.042   0.443 -33.764  1.00  0.00     0.061 C 
BRANCH  29  31
HETATM   31  C   UNL     1      -6.816  -0.831 -33.395  1.00  0.00    -0.003 A 
HETATM   32  C   UNL     1      -5.605  -0.827 -32.683  1.00  0.00     0.053 A 
HETATM   33  C   UNL     1      -4.586  -1.736 -32.992  1.00  0.00     0.102 A 
HETATM   34  C   UNL     1      -4.769  -2.656 -34.043  1.00  0.00     0.101 A 
HETATM   35  C   UNL     1      -5.970  -2.654 -34.759  1.00  0.00     0.040 A 
HETATM   36  C   UNL     1      -6.986  -1.750 -34.437  1.00  0.00     0.017 A 
BRANCH  33  37
HETATM   37  O   UNL     1      -3.386  -1.806 -32.330  1.00  0.00    -0.353 OA
HETATM   38  C   UNL     1      -2.893  -0.621 -31.723  1.00  0.00     0.210 C 
ENDBRANCH  33  37
BRANCH  34  39
HETATM   39  O   UNL     1      -3.727  -3.517 -34.279  1.00  0.00    -0.353 OA
HETATM   40  C   UNL     1      -3.893  -4.874 -33.897  1.00  0.00     0.210 C 
ENDBRANCH  34  39
ENDBRANCH  29  31
ENDBRANCH  19  25
ENDBRANCH  15  16
ENDBRANCH  13  15
ENDBRANCH  11  13
ENDBRANCH   9  11
ENDBRANCH   1   9
TORSDOF 9
ENDMDL
MODEL 2
REMARK VINA RESULT:      -8.6      3.493      7.521
REMARK  9 active torsions:
REMARK  status: ('A' for Active; 'I' for Inactive)
REMARK    1  A    between atoms: C_4  and  C_5 
REMARK    2  A    between atoms: C_7  and  O_8 
REMARK    3  A    between atoms: C_10  and  O_11 
REMARK    4  A    between atoms: C_16  and  C_17 
REMARK    5  A    between atoms: C_20  and  C_21 
REMARK    6  A    between atoms: C_21  and  N_22 
REMARK    7  A    between atoms: N_22  and  C_23 
REMARK    8  A    between atoms: C_23  and  N_24 
REMARK    9  A    between atoms: N_24  and  C_25 
ROOT
HETATM    1  C   UNL     1      -7.651   4.425 -30.626  1.00  0.00     0.034 A 
HETATM    2  C   UNL     1      -8.297   5.402 -31.389  1.00  0.00     0.031 A 
HETATM    3  C   UNL     1      -9.672   5.321 -31.631  1.00  0.00     0.025 A 
HETATM    4  C   UNL     1     -10.420   4.266 -31.103  1.00  0.00     0.044 A 
HETATM    5  C   UNL     1     -11.828   4.186 -31.359  1.00  0.00     0.099 C 
HETATM    6  N   UNL     1     -12.964   4.133 -31.587  1.00  0.00    -0.191 NA
HETATM    7  C   UNL     1      -9.786   3.303 -30.316  1.00  0.00     0.025 A 
HETATM    8  C   UNL     1      -8.411   3.391 -30.070  1.00  0.00     0.031 A 
ENDROOT
BRANCH   1   9
HETATM    9  N   UNL     1      -6.277   4.461 -30.313  1.00  0.00    -0.333 N 
HETATM   10  H   UNL     1      -5.715   3.718 -30.726  1.00  0.00     0.168 HD
BRANCH   9  11
HETATM   11  C   UNL     1      -5.574   5.240 -29.438  1.00  0.00     0.172 C 
HETATM   12  S   UNL     1      -6.374   5.863 -28.112  1.00  0.00    -0.041 SA
BRANCH  11  13
HETATM   13  N   UNL     1      -4.237   5.398 -29.701  1.00  0.00    -0.365 N 
HETATM   14  H   UNL     1      -3.668   4.888 -29.031  1.00  0.00     0.161 HD
BRANCH  13  15
HETATM   15  C   UNL     1      -3.644   6.573 -30.334  1.00  0.00     0.155 C 
BRANCH  15  16
HETATM   16  C   UNL     1      -2.748   6.217 -31.541  1.00  0.00     0.206 C 
HETATM   17  C   UNL     1      -2.433   4.716 -31.658  1.00  0.00     0.040 C 
HETATM   18  C   UNL     1      -2.602   4.205 -33.106  1.00  0.00     0.001 C 
HETATM   19  C   UNL     1      -4.044   4.374 -33.631  1.00  0.00     0.067 C 
HETATM   20  C   UNL     1      -1.722   5.146 -33.976  1.00  0.00     0.033 C 
HETATM   21  C   UNL     1      -4.561   5.779 -33.261  1.00  0.00     0.246 C 
HETATM   22  N   UNL     1      -3.360   6.649 -32.870  1.00  0.00    -0.065 N 
HETATM   23  C   UNL     1      -2.293   6.575 -33.959  1.00  0.00     0.236 C 
HETATM   24  H   UNL     1      -3.682   7.625 -32.798  1.00  0.00     0.280 HD
BRANCH  19  25
HETATM   25  C   UNL     1      -5.084   3.308 -33.427  1.00  0.00     0.038 C 
HETATM   26  N   UNL     1      -5.045   2.116 -32.741  1.00  0.00    -0.277 N 
HETATM   27  C   UNL     1      -3.948   1.404 -32.131  1.00  0.00     0.179 C 
HETATM   28  N   UNL     1      -6.249   1.542 -32.611  1.00  0.00    -0.172 NA
HETATM   29  C   UNL     1      -7.084   2.264 -33.361  1.00  0.00     0.089 C 
HETATM   30  C   UNL     1      -6.390   3.372 -33.901  1.00  0.00     0.061 C 
BRANCH  29  31
HETATM   31  C   UNL     1      -8.497   1.919 -33.498  1.00  0.00    -0.003 A 
HETATM   32  C   UNL     1      -9.356   2.751 -34.235  1.00  0.00     0.053 A 
HETATM   33  C   UNL     1     -10.706   2.421 -34.405  1.00  0.00     0.102 A 
HETATM   34  C   UNL     1     -11.216   1.248 -33.816  1.00  0.00     0.101 A 
HETATM   35  C   UNL     1     -10.364   0.424 -33.074  1.00  0.00     0.040 A 
HETATM   36  C   UNL     1      -9.015   0.756 -32.917  1.00  0.00     0.017 A 
BRANCH  33  37
HETATM   37  O   UNL     1     -11.600   3.172 -35.127  1.00  0.00    -0.353 OA
HETATM   38  C   UNL     1     -11.519   4.586 -35.018  1.00  0.00     0.210 C 
ENDBRANCH  33  37
BRANCH  34  39
HETATM   39  O   UNL     1     -12.545   0.991 -34.036  1.00  0.00    -0.353 OA
HETATM   40  C   UNL     1     -13.048  -0.275 -33.636  1.00  0.00     0.210 C 
ENDBRANCH  34  39
ENDBRANCH  29  31
ENDBRANCH  19  25
ENDBRANCH  15  16
ENDBRANCH  13  15
ENDBRANCH  11  13
ENDBRANCH   9  11
ENDBRANCH   1   9
TORSDOF 9
ENDMDL
MODEL 3
REMARK VINA RESULT:      -8.6      3.119      7.848
REMARK  9 active torsions:
REMARK  status: ('A' for Active; 'I' for Inactive)
REMARK    1  A    between atoms: C_4  and  C_5 
REMARK    2  A    between atoms: C_7  and  O_8 
REMARK    3  A    between atoms: C_10  and  O_11 
REMARK    4  A    between atoms: C_16  and  C_17 
REMARK    5  A    between atoms: C_20  and  C_21 
REMARK    6  A    between atoms: C_21  and  N_22 
REMARK    7  A    between atoms: N_22  and  C_23 
REMARK    8  A    between atoms: C_23  and  N_24 
REMARK    9  A    between atoms: N_24  and  C_25 
ROOT
HETATM    1  C   UNL     1      -5.688  -0.068 -33.658  1.00  0.00     0.034 A 
HETATM    2  C   UNL     1      -4.606  -0.937 -33.487  1.00  0.00     0.031 A 
HETATM    3  C   UNL     1      -4.684  -2.264 -33.923  1.00  0.00     0.025 A 
HETATM    4  C   UNL     1      -5.843  -2.735 -34.545  1.00  0.00     0.044 A 
HETATM    5  C   UNL     1      -5.920  -4.097 -34.985  1.00  0.00     0.099 C 
HETATM    6  N   UNL     1      -5.964  -5.206 -35.322  1.00  0.00    -0.191 NA
HETATM    7  C   UNL     1      -6.917  -1.865 -34.744  1.00  0.00     0.025 A 
HETATM    8  C   UNL     1      -6.832  -0.535 -34.313  1.00  0.00     0.031 A 
ENDROOT
BRANCH   1   9
HETATM    9  N   UNL     1      -5.668   1.288 -33.276  1.00  0.00    -0.333 N 
HETATM   10  H   UNL     1      -6.087   1.936 -33.941  1.00  0.00     0.168 HD
BRANCH   9  11
HETATM   11  C   UNL     1      -5.062   1.918 -32.225  1.00  0.00     0.172 C 
HETATM   12  S   UNL     1      -5.673   1.666 -30.693  1.00  0.00    -0.041 SA
BRANCH  11  13
HETATM   13  N   UNL     1      -3.953   2.668 -32.521  1.00  0.00    -0.365 N 
HETATM   14  H   UNL     1      -3.641   2.503 -33.474  1.00  0.00     0.161 HD
BRANCH  13  15
HETATM   15  C   UNL     1      -2.953   3.099 -31.548  1.00  0.00     0.155 C 
BRANCH  15  16
HETATM   16  C   UNL     1      -2.565   4.586 -31.702  1.00  0.00     0.206 C 
HETATM   17  C   UNL     1      -3.152   5.252 -32.958  1.00  0.00     0.040 C 
HETATM   18  C   UNL     1      -3.757   6.638 -32.644  1.00  0.00     0.001 C 
HETATM   19  C   UNL     1      -4.917   6.563 -31.628  1.00  0.00     0.067 C 
HETATM   20  C   UNL     1      -2.622   7.427 -31.932  1.00  0.00     0.033 C 
HETATM   21  C   UNL     1      -4.518   5.631 -30.465  1.00  0.00     0.246 C 
HETATM   22  N   UNL     1      -2.999   5.429 -30.507  1.00  0.00    -0.065 N 
HETATM   23  C   UNL     1      -2.299   6.784 -30.573  1.00  0.00     0.236 C 
HETATM   24  H   UNL     1      -2.714   4.960 -29.635  1.00  0.00     0.280 HD
BRANCH  19  25
HETATM   25  C   UNL     1      -6.338   6.349 -32.072  1.00  0.00     0.038 C 
HETATM   26  N   UNL     1      -7.381   7.229 -32.242  1.00  0.00    -0.277 N 
HETATM   27  C   UNL     1      -7.518   8.622 -31.892  1.00  0.00     0.179 C 
HETATM   28  N   UNL     1      -8.437   6.683 -32.861  1.00  0.00    -0.172 NA
HETATM   29  C   UNL     1      -8.172   5.378 -32.957  1.00  0.00     0.089 C 
HETATM   30  C   UNL     1      -6.872   5.125 -32.462  1.00  0.00     0.061 C 
BRANCH  29  31
HETATM   31  C   UNL     1      -9.120   4.438 -33.553  1.00  0.00    -0.003 A 
HETATM   32  C   UNL     1      -9.178   3.113 -33.093  1.00  0.00     0.053 A 
HETATM   33  C   UNL     1     -10.101   2.206 -33.627  1.00  0.00     0.102 A 
HETATM   34  C   UNL     1     -10.973   2.622 -34.653  1.00  0.00     0.101 A 
HETATM   35  C   UNL     1     -10.909   3.939 -35.118  1.00  0.00     0.040 A 
HETATM   36  C   UNL     1      -9.991   4.841 -34.572  1.00  0.00     0.017 A 
BRANCH  33  37
HETATM   37  O   UNL     1     -10.230   0.902 -33.216  1.00  0.00    -0.353 OA
HETATM   38  C   UNL     1      -9.439   0.471 -32.120  1.00  0.00     0.210 C 
ENDBRANCH  33  37
BRANCH  34  39
HETATM   39  O   UNL     1     -11.851   1.677 -35.118  1.00  0.00    -0.353 OA
HETATM   40  C   UNL     1     -13.213   1.794 -34.730  1.00  0.00     0.210 C 
ENDBRANCH  34  39
ENDBRANCH  29  31
ENDBRANCH  19  25
ENDBRANCH  15  16
ENDBRANCH  13  15
ENDBRANCH  11  13
ENDBRANCH   9  11
ENDBRANCH   1   9
TORSDOF 9
ENDMDL
MODEL 4
REMARK VINA RESULT:      -8.4      3.277      7.324
REMARK  9 active torsions:
REMARK  status: ('A' for Active; 'I' for Inactive)
REMARK    1  A    between atoms: C_4  and  C_5 
REMARK    2  A    between atoms: C_7  and  O_8 
REMARK    3  A    between atoms: C_10  and  O_11 
REMARK    4  A    between atoms: C_16  and  C_17 
REMARK    5  A    between atoms: C_20  and  C_21 
REMARK    6  A    between atoms: C_21  and  N_22 
REMARK    7  A    between atoms: N_22  and  C_23 
REMARK    8  A    between atoms: C_23  and  N_24 
REMARK    9  A    between atoms: N_24  and  C_25 
ROOT
HETATM    1  C   UNL     1      -5.701   2.717 -30.032  1.00  0.00     0.034 A 
HETATM    2  C   UNL     1      -4.517   2.893 -30.755  1.00  0.00     0.031 A 
HETATM    3  C   UNL     1      -4.110   1.939 -31.694  1.00  0.00     0.025 A 
HETATM    4  C   UNL     1      -4.888   0.803 -31.928  1.00  0.00     0.044 A 
HETATM    5  C   UNL     1      -4.463  -0.174 -32.887  1.00  0.00     0.099 C 
HETATM    6  N   UNL     1      -4.094  -0.957 -33.659  1.00  0.00    -0.191 NA
HETATM    7  C   UNL     1      -6.085   0.635 -31.229  1.00  0.00     0.025 A 
HETATM    8  C   UNL     1      -6.494   1.595 -30.296  1.00  0.00     0.031 A 
ENDROOT
BRANCH   1   9
HETATM    9  N   UNL     1      -6.191   3.652 -29.097  1.00  0.00    -0.333 N 
HETATM   10  H   UNL     1      -6.848   3.282 -28.412  1.00  0.00     0.168 HD
BRANCH   9  11
HETATM   11  C   UNL     1      -6.047   5.008 -29.022  1.00  0.00     0.172 C 
HETATM   12  S   UNL     1      -7.396   5.963 -29.254  1.00  0.00    -0.041 SA
BRANCH  11  13
HETATM   13  N   UNL     1      -4.797   5.472 -28.700  1.00  0.00    -0.365 N 
HETATM   14  H   UNL     1      -4.247   4.754 -28.236  1.00  0.00     0.161 HD
BRANCH  13  15
HETATM   15  C   UNL     1      -4.472   6.865 -28.407  1.00  0.00     0.155 C 
BRANCH  15  16
HETATM   16  C   UNL     1      -3.392   7.442 -29.348  1.00  0.00     0.206 C 
HETATM   17  C   UNL     1      -2.714   6.385 -30.235  1.00  0.00     0.040 C 
HETATM   18  C   UNL     1      -2.597   6.854 -31.702  1.00  0.00     0.001 C 
HETATM   19  C   UNL     1      -3.972   7.125 -32.350  1.00  0.00     0.067 C 
HETATM   20  C   UNL     1      -1.882   8.232 -31.634  1.00  0.00     0.033 C 
HETATM   21  C   UNL     1      -4.850   7.927 -31.368  1.00  0.00     0.246 C 
HETATM   22  N   UNL     1      -3.944   8.517 -30.280  1.00  0.00    -0.065 N 
HETATM   23  C   UNL     1      -2.780   9.263 -30.927  1.00  0.00     0.236 C 
HETATM   24  H   UNL     1      -4.498   9.193 -29.735  1.00  0.00     0.280 HD
BRANCH  19  25
HETATM   25  C   UNL     1      -4.740   6.037 -33.048  1.00  0.00     0.038 C 
HETATM   26  N   UNL     1      -4.439   5.274 -34.152  1.00  0.00    -0.277 N 
HETATM   27  C   UNL     1      -3.367   5.371 -35.113  1.00  0.00     0.179 C 
HETATM   28  N   UNL     1      -5.289   4.254 -34.337  1.00  0.00    -0.172 NA
HETATM   29  C   UNL     1      -6.273   4.431 -33.452  1.00  0.00     0.089 C 
HETATM   30  C   UNL     1      -5.973   5.544 -32.634  1.00  0.00     0.061 C 
BRANCH  29  31
HETATM   31  C   UNL     1      -7.416   3.524 -33.375  1.00  0.00    -0.003 A 
HETATM   32  C   UNL     1      -7.439   2.354 -34.151  1.00  0.00     0.053 A 
HETATM   33  C   UNL     1      -8.510   1.456 -34.068  1.00  0.00     0.102 A 
HETATM   34  C   UNL     1      -9.588   1.736 -33.206  1.00  0.00     0.101 A 
HETATM   35  C   UNL     1      -9.572   2.906 -32.441  1.00  0.00     0.040 A 
HETATM   36  C   UNL     1      -8.494   3.792 -32.523  1.00  0.00     0.017 A 
BRANCH  33  37
HETATM   37  O   UNL     1      -8.593   0.284 -34.779  1.00  0.00    -0.353 OA
HETATM   38  C   UNL     1      -7.381  -0.334 -35.183  1.00  0.00     0.210 C 
ENDBRANCH  33  37
BRANCH  34  39
HETATM   39  O   UNL     1     -10.594   0.804 -33.176  1.00  0.00    -0.353 OA
HETATM   40  C   UNL     1     -11.859   1.181 -33.700  1.00  0.00     0.210 C 
ENDBRANCH  34  39
ENDBRANCH  29  31
ENDBRANCH  19  25
ENDBRANCH  15  16
ENDBRANCH  13  15
ENDBRANCH  11  13
ENDBRANCH   9  11
ENDBRANCH   1   9
TORSDOF 9
ENDMDL
MODEL 5
REMARK VINA RESULT:      -8.3      4.176      6.398
REMARK  9 active torsions:
REMARK  status: ('A' for Active; 'I' for Inactive)
REMARK    1  A    between atoms: C_4  and  C_5 
REMARK    2  A    between atoms: C_7  and  O_8 
REMARK    3  A    between atoms: C_10  and  O_11 
REMARK    4  A    between atoms: C_16  and  C_17 
REMARK    5  A    between atoms: C_20  and  C_21 
REMARK    6  A    between atoms: C_21  and  N_22 
REMARK    7  A    between atoms: N_22  and  C_23 
REMARK    8  A    between atoms: C_23  and  N_24 
REMARK    9  A    between atoms: N_24  and  C_25 
ROOT
HETATM    1  C   UNL     1       0.280   6.646 -28.763  1.00  0.00     0.034 A 
HETATM    2  C   UNL     1       0.000   6.214 -27.463  1.00  0.00     0.031 A 
HETATM    3  C   UNL     1       0.484   6.924 -26.359  1.00  0.00     0.025 A 
HETATM    4  C   UNL     1       1.245   8.081 -26.542  1.00  0.00     0.044 A 
HETATM    5  C   UNL     1       1.742   8.801 -25.407  1.00  0.00     0.099 C 
HETATM    6  N   UNL     1       2.145   9.361 -24.475  1.00  0.00    -0.191 NA
HETATM    7  C   UNL     1       1.505   8.533 -27.837  1.00  0.00     0.025 A 
HETATM    8  C   UNL     1       1.013   7.824 -28.940  1.00  0.00     0.031 A 
ENDROOT
BRANCH   1   9
HETATM    9  N   UNL     1      -0.202   6.003 -29.921  1.00  0.00    -0.333 N 
HETATM   10  H   UNL     1       0.426   5.313 -30.331  1.00  0.00     0.168 HD
BRANCH   9  11
HETATM   11  C   UNL     1      -1.315   6.232 -30.680  1.00  0.00     0.172 C 
HETATM   12  S   UNL     1      -1.109   6.647 -32.283  1.00  0.00    -0.041 SA
BRANCH  11  13
HETATM   13  N   UNL     1      -2.524   6.042 -30.061  1.00  0.00    -0.365 N 
HETATM   14  H   UNL     1      -2.402   5.803 -29.081  1.00  0.00     0.161 HD
BRANCH  13  15
HETATM   15  C   UNL     1      -3.736   5.570 -30.725  1.00  0.00     0.155 C 
BRANCH  15  16
HETATM   16  C   UNL     1      -5.029   6.047 -30.027  1.00  0.00     0.206 C 
HETATM   17  C   UNL     1      -6.257   6.080 -30.952  1.00  0.00     0.040 C 
HETATM   18  C   UNL     1      -7.500   5.456 -30.280  1.00  0.00     0.001 C 
HETATM   19  C   UNL     1      -7.293   3.971 -29.912  1.00  0.00     0.067 C 
HETATM   20  C   UNL     1      -7.655   6.209 -28.929  1.00  0.00     0.033 C 
HETATM   21  C   UNL     1      -5.909   3.797 -29.252  1.00  0.00     0.246 C 
HETATM   22  N   UNL     1      -5.399   5.179 -28.828  1.00  0.00    -0.065 N 
HETATM   23  C   UNL     1      -6.467   5.894 -28.005  1.00  0.00     0.236 C 
HETATM   24  H   UNL     1      -4.568   5.044 -28.233  1.00  0.00     0.280 HD
BRANCH  19  25
HETATM   25  C   UNL     1      -7.606   2.869 -30.885  1.00  0.00     0.038 C 
HETATM   26  N   UNL     1      -8.688   2.662 -31.710  1.00  0.00    -0.277 N 
HETATM   27  C   UNL     1      -9.960   3.336 -31.798  1.00  0.00     0.179 C 
HETATM   28  N   UNL     1      -8.497   1.670 -32.591  1.00  0.00    -0.172 NA
HETATM   29  C   UNL     1      -7.346   1.088 -32.247  1.00  0.00     0.089 C 
HETATM   30  C   UNL     1      -6.763   1.801 -31.174  1.00  0.00     0.061 C 
BRANCH  29  31
HETATM   31  C   UNL     1      -6.819  -0.070 -32.966  1.00  0.00    -0.003 A 
HETATM   32  C   UNL     1      -5.481  -0.458 -32.788  1.00  0.00     0.053 A 
HETATM   33  C   UNL     1      -4.966  -1.583 -33.442  1.00  0.00     0.102 A 
HETATM   34  C   UNL     1      -5.794  -2.329 -34.303  1.00  0.00     0.101 A 
HETATM   35  C   UNL     1      -7.124  -1.938 -34.489  1.00  0.00     0.040 A 
HETATM   36  C   UNL     1      -7.633  -0.818 -33.824  1.00  0.00     0.017 A 
BRANCH  33  37
HETATM   37  O   UNL     1      -3.676  -2.035 -33.303  1.00  0.00    -0.353 OA
HETATM   38  C   UNL     1      -3.230  -2.374 -31.999  1.00  0.00     0.210 C 
ENDBRANCH  33  37
BRANCH  34  39
HETATM   39  O   UNL     1      -5.217  -3.420 -34.900  1.00  0.00    -0.353 OA
HETATM   40  C   UNL     1      -6.074  -4.468 -35.330  1.00  0.00     0.210 C 
ENDBRANCH  34  39
ENDBRANCH  29  31
ENDBRANCH  19  25
ENDBRANCH  15  16
ENDBRANCH  13  15
ENDBRANCH  11  13
ENDBRANCH   9  11
ENDBRANCH   1   9
TORSDOF 9
ENDMDL
MODEL 6
REMARK VINA RESULT:      -8.3      3.846      6.694
REMARK  9 active torsions:
REMARK  status: ('A' for Active; 'I' for Inactive)
REMARK    1  A    between atoms: C_4  and  C_5 
REMARK    2  A    between atoms: C_7  and  O_8 
REMARK    3  A    between atoms: C_10  and  O_11 
REMARK    4  A    between atoms: C_16  and  C_17 
REMARK    5  A    between atoms: C_20  and  C_21 
REMARK    6  A    between atoms: C_21  and  N_22 
REMARK    7  A    between atoms: N_22  and  C_23 
REMARK    8  A    between atoms: C_23  and  N_24 
REMARK    9  A    between atoms: N_24  and  C_25 
ROOT
HETATM    1  C   UNL     1      -7.208   5.118 -33.573  1.00  0.00     0.034 A 
HETATM    2  C   UNL     1      -6.115   4.372 -34.024  1.00  0.00     0.031 A 
HETATM    3  C   UNL     1      -4.809   4.758 -33.703  1.00  0.00     0.025 A 
HETATM    4  C   UNL     1      -4.582   5.891 -32.917  1.00  0.00     0.044 A 
HETATM    5  C   UNL     1      -3.242   6.285 -32.596  1.00  0.00     0.099 C 
HETATM    6  N   UNL     1      -2.149   6.592 -32.358  1.00  0.00    -0.191 NA
HETATM    7  C   UNL     1      -5.670   6.624 -32.440  1.00  0.00     0.025 A 
HETATM    8  C   UNL     1      -6.976   6.230 -32.757  1.00  0.00     0.031 A 
ENDROOT
BRANCH   1   9
HETATM    9  N   UNL     1      -8.550   4.770 -33.827  1.00  0.00    -0.333 N 
HETATM   10  H   UNL     1      -9.145   5.530 -34.150  1.00  0.00     0.168 HD
BRANCH   9  11
HETATM   11  C   UNL     1      -9.239   3.614 -33.590  1.00  0.00     0.172 C 
HETATM   12  S   UNL     1     -10.093   3.479 -32.163  1.00  0.00    -0.041 SA
BRANCH  11  13
HETATM   13  N   UNL     1      -9.214   2.674 -34.588  1.00  0.00    -0.365 N 
HETATM   14  H   UNL     1      -9.401   3.094 -35.494  1.00  0.00     0.161 HD
BRANCH  13  15
HETATM   15  C   UNL     1      -9.554   1.263 -34.416  1.00  0.00     0.155 C 
BRANCH  15  16
HETATM   16  C   UNL     1      -8.349   0.323 -34.635  1.00  0.00     0.206 C 
HETATM   17  C   UNL     1      -7.005   1.059 -34.767  1.00  0.00     0.040 C 
HETATM   18  C   UNL     1      -5.898   0.391 -33.922  1.00  0.00     0.001 C 
HETATM   19  C   UNL     1      -6.225   0.383 -32.414  1.00  0.00     0.067 C 
HETATM   20  C   UNL     1      -5.893  -1.100 -34.362  1.00  0.00     0.033 C 
HETATM   21  C   UNL     1      -7.693  -0.046 -32.212  1.00  0.00     0.246 C 
HETATM   22  N   UNL     1      -8.190  -0.694 -33.509  1.00  0.00    -0.065 N 
HETATM   23  C   UNL     1      -7.211  -1.779 -33.952  1.00  0.00     0.236 C 
HETATM   24  H   UNL     1      -9.099  -1.138 -33.317  1.00  0.00     0.280 HD
BRANCH  19  25
HETATM   25  C   UNL     1      -5.834   1.527 -31.519  1.00  0.00     0.038 C 
HETATM   26  N   UNL     1      -4.602   2.029 -31.168  1.00  0.00    -0.277 N 
HETATM   27  C   UNL     1      -3.269   1.528 -31.399  1.00  0.00     0.179 C 
HETATM   28  N   UNL     1      -4.675   3.198 -30.516  1.00  0.00    -0.172 NA
HETATM   29  C   UNL     1      -5.971   3.403 -30.273  1.00  0.00     0.089 C 
HETATM   30  C   UNL     1      -6.730   2.373 -30.874  1.00  0.00     0.061 C 
BRANCH  29  31
HETATM   31  C   UNL     1      -6.445   4.576 -29.540  1.00  0.00    -0.003 A 
HETATM   32  C   UNL     1      -5.524   5.436 -28.921  1.00  0.00     0.053 A 
HETATM   33  C   UNL     1      -5.955   6.582 -28.242  1.00  0.00     0.102 A 
HETATM   34  C   UNL     1      -7.332   6.870 -28.164  1.00  0.00     0.101 A 
HETATM   35  C   UNL     1      -8.250   6.009 -28.773  1.00  0.00     0.040 A 
HETATM   36  C   UNL     1      -7.810   4.871 -29.457  1.00  0.00     0.017 A 
BRANCH  33  37
HETATM   37  O   UNL     1      -5.115   7.479 -27.629  1.00  0.00    -0.353 OA
HETATM   38  C   UNL     1      -4.315   7.011 -26.554  1.00  0.00     0.210 C 
ENDBRANCH  33  37
BRANCH  34  39
HETATM   39  O   UNL     1      -7.672   8.014 -27.489  1.00  0.00    -0.353 OA
HETATM   40  C   UNL     1      -8.999   8.497 -27.635  1.00  0.00     0.210 C 
ENDBRANCH  34  39
ENDBRANCH  29  31
ENDBRANCH  19  25
ENDBRANCH  15  16
ENDBRANCH  13  15
ENDBRANCH  11  13
ENDBRANCH   9  11
ENDBRANCH   1   9
TORSDOF 9
ENDMDL
MODEL 7
REMARK VINA RESULT:      -8.3      5.841     10.743
REMARK  9 active torsions:
REMARK  status: ('A' for Active; 'I' for Inactive)
REMARK    1  A    between atoms: C_4  and  C_5 
REMARK    2  A    between atoms: C_7  and  O_8 
REMARK    3  A    between atoms: C_10  and  O_11 
REMARK    4  A    between atoms: C_16  and  C_17 
REMARK    5  A    between atoms: C_20  and  C_21 
REMARK    6  A    between atoms: C_21  and  N_22 
REMARK    7  A    between atoms: N_22  and  C_23 
REMARK    8  A    between atoms: C_23  and  N_24 
REMARK    9  A    between atoms: N_24  and  C_25 
ROOT
HETATM    1  C   UNL     1      -7.218   0.954 -33.087  1.00  0.00     0.034 A 
HETATM    2  C   UNL     1      -7.591   0.605 -34.389  1.00  0.00     0.031 A 
HETATM    3  C   UNL     1      -7.190  -0.616 -34.940  1.00  0.00     0.025 A 
HETATM    4  C   UNL     1      -6.418  -1.508 -34.191  1.00  0.00     0.044 A 
HETATM    5  C   UNL     1      -6.005  -2.756 -34.763  1.00  0.00     0.099 C 
HETATM    6  N   UNL     1      -5.672  -3.755 -35.249  1.00  0.00    -0.191 NA
HETATM    7  C   UNL     1      -6.066  -1.178 -32.881  1.00  0.00     0.025 A 
HETATM    8  C   UNL     1      -6.476   0.042 -32.330  1.00  0.00     0.031 A 
ENDROOT
BRANCH   1   9
HETATM    9  N   UNL     1      -7.615   2.150 -32.455  1.00  0.00    -0.333 N 
HETATM   10  H   UNL     1      -8.590   2.187 -32.163  1.00  0.00     0.168 HD
BRANCH   9  11
HETATM   11  C   UNL     1      -6.958   3.335 -32.281  1.00  0.00     0.172 C 
HETATM   12  S   UNL     1      -7.574   4.429 -31.182  1.00  0.00    -0.041 SA
BRANCH  11  13
HETATM   13  N   UNL     1      -5.798   3.500 -32.995  1.00  0.00    -0.365 N 
HETATM   14  H   UNL     1      -5.803   2.934 -33.839  1.00  0.00     0.161 HD
BRANCH  13  15
HETATM   15  C   UNL     1      -4.501   3.836 -32.415  1.00  0.00     0.155 C 
BRANCH  15  16
HETATM   16  C   UNL     1      -3.665   4.774 -33.313  1.00  0.00     0.206 C 
HETATM   17  C   UNL     1      -3.832   6.265 -32.977  1.00  0.00     0.040 C 
HETATM   18  C   UNL     1      -2.474   6.999 -32.927  1.00  0.00     0.001 C 
HETATM   19  C   UNL     1      -1.531   6.429 -31.845  1.00  0.00     0.067 C 
HETATM   20  C   UNL     1      -1.792   6.689 -34.289  1.00  0.00     0.033 C 
HETATM   21  C   UNL     1      -1.556   4.888 -31.908  1.00  0.00     0.246 C 
HETATM   22  N   UNL     1      -2.172   4.468 -33.247  1.00  0.00    -0.065 N 
HETATM   23  C   UNL     1      -1.463   5.190 -34.390  1.00  0.00     0.236 C 
HETATM   24  H   UNL     1      -2.024   3.455 -33.363  1.00  0.00     0.280 HD
BRANCH  19  25
HETATM   25  C   UNL     1      -1.551   6.946 -30.434  1.00  0.00     0.038 C 
HETATM   26  N   UNL     1      -2.546   6.966 -29.484  1.00  0.00    -0.277 N 
HETATM   27  C   UNL     1      -3.952   6.655 -29.572  1.00  0.00     0.179 C 
HETATM   28  N   UNL     1      -2.108   7.318 -28.267  1.00  0.00    -0.172 NA
HETATM   29  C   UNL     1      -0.841   7.706 -28.431  1.00  0.00     0.089 C 
HETATM   30  C   UNL     1      -0.458   7.501 -29.776  1.00  0.00     0.061 C 
BRANCH  29  31
HETATM   31  C   UNL     1      -0.032   8.198 -27.317  1.00  0.00    -0.003 A 
HETATM   32  C   UNL     1      -0.653   8.792 -26.206  1.00  0.00     0.053 A 
HETATM   33  C   UNL     1       0.100   9.240 -25.115  1.00  0.00     0.102 A 
HETATM   34  C   UNL     1       1.502   9.109 -25.136  1.00  0.00     0.101 A 
HETATM   35  C   UNL     1       2.123   8.528 -26.246  1.00  0.00     0.040 A 
HETATM   36  C   UNL     1       1.362   8.074 -27.328  1.00  0.00     0.017 A 
BRANCH  33  37
HETATM   37  O   UNL     1      -0.437   9.811 -23.987  1.00  0.00    -0.353 OA
HETATM   38  C   UNL     1      -1.405  10.835 -24.160  1.00  0.00     0.210 C 
ENDBRANCH  33  37
BRANCH  34  39
HETATM   39  O   UNL     1       2.167   9.565 -24.027  1.00  0.00    -0.353 OA
HETATM   40  C   UNL     1       3.585   9.635 -24.089  1.00  0.00     0.210 C 
ENDBRANCH  34  39
ENDBRANCH  29  31
ENDBRANCH  19  25
ENDBRANCH  15  16
ENDBRANCH  13  15
ENDBRANCH  11  13
ENDBRANCH   9  11
ENDBRANCH   1   9
TORSDOF 9
ENDMDL
MODEL 8
REMARK VINA RESULT:      -8.3      2.732      4.402
REMARK  9 active torsions:
REMARK  status: ('A' for Active; 'I' for Inactive)
REMARK    1  A    between atoms: C_4  and  C_5 
REMARK    2  A    between atoms: C_7  and  O_8 
REMARK    3  A    between atoms: C_10  and  O_11 
REMARK    4  A    between atoms: C_16  and  C_17 
REMARK    5  A    between atoms: C_20  and  C_21 
REMARK    6  A    between atoms: C_21  and  N_22 
REMARK    7  A    between atoms: N_22  and  C_23 
REMARK    8  A    between atoms: C_23  and  N_24 
REMARK    9  A    between atoms: N_24  and  C_25 
ROOT
HETATM    1  C   UNL     1      -3.500   5.238 -33.325  1.00  0.00     0.034 A 
HETATM    2  C   UNL     1      -3.302   4.236 -32.370  1.00  0.00     0.031 A 
HETATM    3  C   UNL     1      -2.085   4.135 -31.688  1.00  0.00     0.025 A 
HETATM    4  C   UNL     1      -1.055   5.042 -31.946  1.00  0.00     0.044 A 
HETATM    5  C   UNL     1       0.192   4.930 -31.249  1.00  0.00     0.099 C 
HETATM    6  N   UNL     1       1.197   4.814 -30.681  1.00  0.00    -0.191 NA
HETATM    7  C   UNL     1      -1.256   6.062 -32.878  1.00  0.00     0.025 A 
HETATM    8  C   UNL     1      -2.478   6.165 -33.554  1.00  0.00     0.031 A 
ENDROOT
BRANCH   1   9
HETATM    9  N   UNL     1      -4.710   5.422 -34.025  1.00  0.00    -0.333 N 
HETATM   10  H   UNL     1      -4.615   5.753 -34.983  1.00  0.00     0.168 HD
BRANCH   9  11
HETATM   11  C   UNL     1      -6.009   5.364 -33.605  1.00  0.00     0.172 C 
HETATM   12  S   UNL     1      -6.899   3.999 -33.967  1.00  0.00    -0.041 SA
BRANCH  11  13
HETATM   13  N   UNL     1      -6.458   6.426 -32.862  1.00  0.00    -0.365 N 
HETATM   14  H   UNL     1      -7.116   6.992 -33.391  1.00  0.00     0.161 HD
BRANCH  13  15
HETATM   15  C   UNL     1      -5.696   7.086 -31.805  1.00  0.00     0.155 C 
BRANCH  15  16
HETATM   16  C   UNL     1      -6.385   7.002 -30.425  1.00  0.00     0.206 C 
HETATM   17  C   UNL     1      -7.813   6.433 -30.480  1.00  0.00     0.040 C 
HETATM   18  C   UNL     1      -8.055   5.379 -29.376  1.00  0.00     0.001 C 
HETATM   19  C   UNL     1      -7.114   4.162 -29.502  1.00  0.00     0.067 C 
HETATM   20  C   UNL     1      -7.662   6.083 -28.047  1.00  0.00     0.033 C 
HETATM   21  C   UNL     1      -5.678   4.653 -29.776  1.00  0.00     0.246 C 
HETATM   22  N   UNL     1      -5.603   6.146 -29.434  1.00  0.00    -0.065 N 
HETATM   23  C   UNL     1      -6.153   6.381 -28.029  1.00  0.00     0.236 C 
HETATM   24  H   UNL     1      -4.612   6.427 -29.445  1.00  0.00     0.280 HD
BRANCH  19  25
HETATM   25  C   UNL     1      -7.481   2.968 -30.338  1.00  0.00     0.038 C 
HETATM   26  N   UNL     1      -8.693   2.533 -30.824  1.00  0.00    -0.277 N 
HETATM   27  C   UNL     1     -10.039   2.976 -30.557  1.00  0.00     0.179 C 
HETATM   28  N   UNL     1      -8.578   1.538 -31.715  1.00  0.00    -0.172 NA
HETATM   29  C   UNL     1      -7.292   1.181 -31.703  1.00  0.00     0.089 C 
HETATM   30  C   UNL     1      -6.573   2.043 -30.843  1.00  0.00     0.061 C 
BRANCH  29  31
HETATM   31  C   UNL     1      -6.785   0.089 -32.531  1.00  0.00    -0.003 A 
HETATM   32  C   UNL     1      -5.484  -0.401 -32.330  1.00  0.00     0.053 A 
HETATM   33  C   UNL     1      -4.991  -1.468 -33.090  1.00  0.00     0.102 A 
HETATM   34  C   UNL     1      -5.804  -2.049 -34.083  1.00  0.00     0.101 A 
HETATM   35  C   UNL     1      -7.095  -1.556 -34.292  1.00  0.00     0.040 A 
HETATM   36  C   UNL     1      -7.583  -0.497 -33.521  1.00  0.00     0.017 A 
BRANCH  33  37
HETATM   37  O   UNL     1      -3.740  -2.013 -32.938  1.00  0.00    -0.353 OA
HETATM   38  C   UNL     1      -2.987  -1.634 -31.796  1.00  0.00     0.210 C 
ENDBRANCH  33  37
BRANCH  34  39
HETATM   39  O   UNL     1      -5.251  -3.094 -34.779  1.00  0.00    -0.353 OA
HETATM   40  C   UNL     1      -6.068  -4.229 -35.026  1.00  0.00     0.210 C 
ENDBRANCH  34  39
ENDBRANCH  29  31
ENDBRANCH  19  25
ENDBRANCH  15  16
ENDBRANCH  13  15
ENDBRANCH  11  13
ENDBRANCH   9  11
ENDBRANCH   1   9
TORSDOF 9
ENDMDL
MODEL 9
REMARK VINA RESULT:      -8.2      2.258      3.480
REMARK  9 active torsions:
REMARK  status: ('A' for Active; 'I' for Inactive)
REMARK    1  A    between atoms: C_4  and  C_5 
REMARK    2  A    between atoms: C_7  and  O_8 
REMARK    3  A    between atoms: C_10  and  O_11 
REMARK    4  A    between atoms: C_16  and  C_17 
REMARK    5  A    between atoms: C_20  and  C_21 
REMARK    6  A    between atoms: C_21  and  N_22 
REMARK    7  A    between atoms: N_22  and  C_23 
REMARK    8  A    between atoms: C_23  and  N_24 
REMARK    9  A    between atoms: N_24  and  C_25 
ROOT
HETATM    1  C   UNL     1      -4.808   4.126 -31.519  1.00  0.00     0.034 A 
HETATM    2  C   UNL     1      -5.197   4.650 -32.755  1.00  0.00     0.031 A 
HETATM    3  C   UNL     1      -4.243   4.943 -33.736  1.00  0.00     0.025 A 
HETATM    4  C   UNL     1      -2.888   4.706 -33.494  1.00  0.00     0.044 A 
HETATM    5  C   UNL     1      -1.915   5.014 -34.500  1.00  0.00     0.099 C 
HETATM    6  N   UNL     1      -1.143   5.280 -35.323  1.00  0.00    -0.191 NA
HETATM    7  C   UNL     1      -2.495   4.157 -32.272  1.00  0.00     0.025 A 
HETATM    8  C   UNL     1      -3.453   3.857 -31.296  1.00  0.00     0.031 A 
ENDROOT
BRANCH   1   9
HETATM    9  N   UNL     1      -5.715   3.774 -30.499  1.00  0.00    -0.333 N 
HETATM   10  H   UNL     1      -5.954   2.786 -30.448  1.00  0.00     0.168 HD
BRANCH   9  11
HETATM   11  C   UNL     1      -6.444   4.546 -29.639  1.00  0.00     0.172 C 
HETATM   12  S   UNL     1      -5.628   5.446 -28.494  1.00  0.00    -0.041 SA
BRANCH  11  13
HETATM   13  N   UNL     1      -7.802   4.558 -29.833  1.00  0.00    -0.365 N 
HETATM   14  H   UNL     1      -8.059   4.033 -30.664  1.00  0.00     0.161 HD
BRANCH  13  15
HETATM   15  C   UNL     1      -8.697   5.632 -29.409  1.00  0.00     0.155 C 
BRANCH  15  16
HETATM   16  C   UNL     1      -9.699   6.048 -30.508  1.00  0.00     0.206 C 
HETATM   17  C   UNL     1      -9.227   5.718 -31.934  1.00  0.00     0.040 C 
HETATM   18  C   UNL     1     -10.348   5.069 -32.775  1.00  0.00     0.001 C 
HETATM   19  C   UNL     1     -10.841   3.734 -32.177  1.00  0.00     0.067 C 
HETATM   20  C   UNL     1     -11.552   6.047 -32.675  1.00  0.00     0.033 C 
HETATM   21  C   UNL     1     -11.036   3.897 -30.656  1.00  0.00     0.246 C 
HETATM   22  N   UNL     1     -11.066   5.394 -30.329  1.00  0.00    -0.065 N 
HETATM   23  C   UNL     1     -12.078   6.098 -31.230  1.00  0.00     0.236 C 
HETATM   24  H   UNL     1     -11.373   5.502 -29.352  1.00  0.00     0.280 HD
BRANCH  19  25
HETATM   25  C   UNL     1     -10.194   2.425 -32.536  1.00  0.00     0.038 C 
HETATM   26  N   UNL     1     -10.650   1.353 -33.267  1.00  0.00    -0.277 N 
HETATM   27  C   UNL     1     -11.958   1.046 -33.791  1.00  0.00     0.179 C 
HETATM   28  N   UNL     1      -9.691   0.459 -33.547  1.00  0.00    -0.172 NA
HETATM   29  C   UNL     1      -8.616   0.843 -32.855  1.00  0.00     0.089 C 
HETATM   30  C   UNL     1      -8.893   2.064 -32.198  1.00  0.00     0.061 C 
BRANCH  29  31
HETATM   31  C   UNL     1      -7.367   0.085 -32.882  1.00  0.00    -0.003 A 
HETATM   32  C   UNL     1      -7.213  -0.984 -33.779  1.00  0.00     0.053 A 
HETATM   33  C   UNL     1      -6.013  -1.702 -33.844  1.00  0.00     0.102 A 
HETATM   34  C   UNL     1      -4.949  -1.359 -32.986  1.00  0.00     0.101 A 
HETATM   35  C   UNL     1      -5.105  -0.301 -32.085  1.00  0.00     0.040 A 
HETATM   36  C   UNL     1      -6.304   0.417 -32.035  1.00  0.00     0.017 A 
BRANCH  33  37
HETATM   37  O   UNL     1      -5.781  -2.744 -34.707  1.00  0.00    -0.353 OA
HETATM   38  C   UNL     1      -6.799  -3.722 -34.853  1.00  0.00     0.210 C 
ENDBRANCH  33  37
BRANCH  34  39
HETATM   39  O   UNL     1      -3.805  -2.105 -33.115  1.00  0.00    -0.353 OA
HETATM   40  C   UNL     1      -3.087  -2.422 -31.932  1.00  0.00     0.210 C 
ENDBRANCH  34  39
ENDBRANCH  29  31
ENDBRANCH  19  25
ENDBRANCH  15  16
ENDBRANCH  13  15
ENDBRANCH  11  13
ENDBRANCH   9  11
ENDBRANCH   1   9
TORSDOF 9
ENDMDL
MODEL 10
REMARK VINA RESULT:      -8.1      2.807      4.358
REMARK  9 active torsions:
REMARK  status: ('A' for Active; 'I' for Inactive)
REMARK    1  A    between atoms: C_4  and  C_5 
REMARK    2  A    between atoms: C_7  and  O_8 
REMARK    3  A    between atoms: C_10  and  O_11 
REMARK    4  A    between atoms: C_16  and  C_17 
REMARK    5  A    between atoms: C_20  and  C_21 
REMARK    6  A    between atoms: C_21  and  N_22 
REMARK    7  A    between atoms: N_22  and  C_23 
REMARK    8  A    between atoms: C_23  and  N_24 
REMARK    9  A    between atoms: N_24  and  C_25 
ROOT
HETATM    1  C   UNL     1      -1.783   6.028 -30.737  1.00  0.00     0.034 A 
HETATM    2  C   UNL     1      -2.203   6.976 -29.799  1.00  0.00     0.031 A 
HETATM    3  C   UNL     1      -1.308   7.479 -28.847  1.00  0.00     0.025 A 
HETATM    4  C   UNL     1       0.019   7.045 -28.829  1.00  0.00     0.044 A 
HETATM    5  C   UNL     1       0.929   7.559 -27.849  1.00  0.00     0.099 C 
HETATM    6  N   UNL     1       1.646   7.979 -27.039  1.00  0.00    -0.191 NA
HETATM    7  C   UNL     1       0.452   6.119 -29.781  1.00  0.00     0.025 A 
HETATM    8  C   UNL     1      -0.444   5.624 -30.736  1.00  0.00     0.031 A 
ENDROOT
BRANCH   1   9
HETATM    9  N   UNL     1      -2.618   5.505 -31.745  1.00  0.00    -0.333 N 
HETATM   10  H   UNL     1      -2.462   5.879 -32.679  1.00  0.00     0.168 HD
BRANCH   9  11
HETATM   11  C   UNL     1      -3.701   4.674 -31.674  1.00  0.00     0.172 C 
HETATM   12  S   UNL     1      -3.434   3.029 -31.585  1.00  0.00    -0.041 SA
BRANCH  11  13
HETATM   13  N   UNL     1      -4.931   5.279 -31.625  1.00  0.00    -0.365 N 
HETATM   14  H   UNL     1      -4.916   6.180 -32.096  1.00  0.00     0.161 HD
BRANCH  13  15
HETATM   15  C   UNL     1      -5.912   5.090 -30.561  1.00  0.00     0.155 C 
BRANCH  15  16
HETATM   16  C   UNL     1      -7.332   5.545 -30.964  1.00  0.00     0.206 C 
HETATM   17  C   UNL     1      -7.704   5.199 -32.416  1.00  0.00     0.040 C 
HETATM   18  C   UNL     1      -9.121   4.594 -32.518  1.00  0.00     0.001 C 
HETATM   19  C   UNL     1      -9.262   3.277 -31.725  1.00  0.00     0.067 C 
HETATM   20  C   UNL     1     -10.054   5.617 -31.811  1.00  0.00     0.033 C 
HETATM   21  C   UNL     1      -8.610   3.445 -30.337  1.00  0.00     0.246 C 
HETATM   22  N   UNL     1      -8.414   4.942 -30.073  1.00  0.00    -0.065 N 
HETATM   23  C   UNL     1      -9.726   5.685 -30.309  1.00  0.00     0.236 C 
HETATM   24  H   UNL     1      -8.149   5.061 -29.084  1.00  0.00     0.280 HD
BRANCH  19  25
HETATM   25  C   UNL     1      -8.948   1.946 -32.349  1.00  0.00     0.038 C 
HETATM   26  N   UNL     1      -9.704   1.107 -33.135  1.00  0.00    -0.277 N 
HETATM   27  C   UNL     1     -11.102   1.135 -33.487  1.00  0.00     0.179 C 
HETATM   28  N   UNL     1      -8.992   0.108 -33.676  1.00  0.00    -0.172 NA
HETATM   29  C   UNL     1      -7.783   0.172 -33.114  1.00  0.00     0.089 C 
HETATM   30  C   UNL     1      -7.718   1.301 -32.267  1.00  0.00     0.061 C 
BRANCH  29  31
HETATM   31  C   UNL     1      -6.730  -0.790 -33.434  1.00  0.00    -0.003 A 
HETATM   32  C   UNL     1      -5.600  -0.896 -32.607  1.00  0.00     0.053 A 
HETATM   33  C   UNL     1      -4.596  -1.834 -32.876  1.00  0.00     0.102 A 
HETATM   34  C   UNL     1      -4.711  -2.672 -34.002  1.00  0.00     0.101 A 
HETATM   35  C   UNL     1      -5.830  -2.561 -34.832  1.00  0.00     0.040 A 
HETATM   36  C   UNL     1      -6.833  -1.629 -34.550  1.00  0.00     0.017 A 
BRANCH  33  37
HETATM   37  O   UNL     1      -3.474  -2.009 -32.104  1.00  0.00    -0.353 OA
HETATM   38  C   UNL     1      -2.651  -0.878 -31.864  1.00  0.00     0.210 C 
ENDBRANCH  33  37
BRANCH  34  39
HETATM   39  O   UNL     1      -3.690  -3.568 -34.193  1.00  0.00    -0.353 OA
HETATM   40  C   UNL     1      -3.962  -4.941 -33.950  1.00  0.00     0.210 C 
ENDBRANCH  34  39
ENDBRANCH  29  31
ENDBRANCH  19  25
ENDBRANCH  15  16
ENDBRANCH  13  15
ENDBRANCH  11  13
ENDBRANCH   9  11
ENDBRANCH   1   9
TORSDOF 9
ENDMDL
