MODEL 1
REMARK VINA RESULT:      -9.2      0.000      0.000
REMARK  5 active torsions:
REMARK  status: ('A' for Active; 'I' for Inactive)
REMARK    1  A    between atoms: C_4  and  C_5 
REMARK    2  A    between atoms: C_9  and  C_10 
REMARK       I    between atoms: C_10  and  N_11 
REMARK    3  A    between atoms: N_11  and  C_12 
REMARK    4  A    between atoms: C_14  and  C_15 
REMARK       I    between atoms: C_15  and  N_16 
REMARK    5  A    between atoms: N_16  and  C_17 
ROOT
HETATM    1  C   UNL     1      -4.615   2.881 -32.162  1.00  0.00     0.276 C 
HETATM    2  N   UNL     1      -3.385   3.000 -32.787  1.00  0.00    -0.322 N 
HETATM    3  O   UNL     1      -5.219   3.772 -31.574  1.00  0.00    -0.266 OA
HETATM    4  H   UNL     1      -3.093   2.157 -33.278  1.00  0.00     0.169 HD
ENDROOT
BRANCH   2   5
HETATM    5  C   UNL     1      -2.581   4.151 -32.873  1.00  0.00     0.036 A 
HETATM    6  C   UNL     1      -1.688   4.530 -31.869  1.00  0.00     0.046 A 
HETATM    7  C   UNL     1      -0.953   5.720 -31.970  1.00  0.00     0.034 A 
HETATM    8  C   UNL     1      -1.070   6.507 -33.118  1.00  0.00     0.017 A 
HETATM    9  C   UNL     1      -1.935   6.119 -34.142  1.00  0.00     0.003 A 
HETATM   10  C   UNL     1      -2.690   4.948 -34.017  1.00  0.00     0.029 A 
BRANCH   7  11
HETATM   11  C   UNL     1      -0.030   6.151 -30.880  1.00  0.00     0.252 C 
HETATM   12  N   UNL     1      -0.302   5.641 -29.623  1.00  0.00    -0.352 N 
HETATM   13  H   UNL     1      -1.149   5.105 -29.478  1.00  0.00     0.163 HD
HETATM   14  O   UNL     1       0.886   6.928 -31.127  1.00  0.00    -0.268 OA
BRANCH  12  15
HETATM   15  C   UNL     1       0.506   5.905 -28.474  1.00  0.00     0.084 A 
HETATM   16  C   UNL     1       0.628   7.304 -27.936  1.00  0.00     0.027 A 
HETATM   17  C   UNL     1      -0.152   6.276 -27.171  1.00  0.00     0.027 A 
ENDBRANCH  12  15
ENDBRANCH   7  11
ENDBRANCH   2   5
BRANCH   1  18
HETATM   18  C   UNL     1      -5.193   1.534 -32.292  1.00  0.00     0.147 A 
HETATM   19  N   UNL     1      -6.168   1.073 -31.484  1.00  0.00    -0.169 NA
HETATM   20  N   UNL     1      -6.389  -0.180 -31.937  1.00  0.00    -0.277 N 
HETATM   21  C   UNL     1      -5.602  -0.548 -32.998  1.00  0.00     0.063 A 
HETATM   22  H   UNL     1      -7.084  -0.745 -31.462  1.00  0.00     0.189 HD
HETATM   23  C   UNL     1      -4.812   0.556 -33.241  1.00  0.00     0.071 A 
BRANCH  21  24
HETATM   24  C   UNL     1      -5.640  -1.855 -33.647  1.00  0.00    -0.008 A 
HETATM   25  C   UNL     1      -6.821  -2.362 -34.204  1.00  0.00     0.014 A 
HETATM   26  C   UNL     1      -6.829  -3.607 -34.840  1.00  0.00     0.001 A 
HETATM   27  C   UNL     1      -5.658  -4.358 -34.926  1.00  0.00     0.000 A 
HETATM   28  C   UNL     1      -4.477  -3.866 -34.377  1.00  0.00     0.001 A 
HETATM   29  C   UNL     1      -4.469  -2.621 -33.743  1.00  0.00     0.014 A 
ENDBRANCH  21  24
ENDBRANCH   1  18
TORSDOF 5
ENDMDL
MODEL 2
REMARK VINA RESULT:      -8.6      2.132     10.019
REMARK  5 active torsions:
REMARK  status: ('A' for Active; 'I' for Inactive)
REMARK    1  A    between atoms: C_4  and  C_5 
REMARK    2  A    between atoms: C_9  and  C_10 
REMARK       I    between atoms: C_10  and  N_11 
REMARK    3  A    between atoms: N_11  and  C_12 
REMARK    4  A    between atoms: C_14  and  C_15 
REMARK       I    between atoms: C_15  and  N_16 
REMARK    5  A    between atoms: N_16  and  C_17 
ROOT
HETATM    1  C   UNL     1      -2.935   3.714 -32.063  1.00  0.00     0.276 C 
HETATM    2  N   UNL     1      -3.151   2.684 -31.164  1.00  0.00    -0.322 N 
HETATM    3  O   UNL     1      -3.500   3.866 -33.141  1.00  0.00    -0.266 OA
HETATM    4  H   UNL     1      -2.630   2.783 -30.294  1.00  0.00     0.169 HD
ENDROOT
BRANCH   2   5
HETATM    5  C   UNL     1      -4.047   1.608 -31.300  1.00  0.00     0.036 A 
HETATM    6  C   UNL     1      -3.745   0.456 -32.030  1.00  0.00     0.046 A 
HETATM    7  C   UNL     1      -4.693  -0.563 -32.191  1.00  0.00     0.034 A 
HETATM    8  C   UNL     1      -5.937  -0.455 -31.564  1.00  0.00     0.017 A 
HETATM    9  C   UNL     1      -6.236   0.678 -30.805  1.00  0.00     0.003 A 
HETATM   10  C   UNL     1      -5.296   1.706 -30.677  1.00  0.00     0.029 A 
BRANCH   7  11
HETATM   11  C   UNL     1      -4.391  -1.776 -33.005  1.00  0.00     0.252 C 
HETATM   12  N   UNL     1      -5.336  -2.113 -33.959  1.00  0.00    -0.352 N 
HETATM   13  H   UNL     1      -6.212  -1.606 -33.988  1.00  0.00     0.163 HD
HETATM   14  O   UNL     1      -3.366  -2.415 -32.792  1.00  0.00    -0.268 OA
BRANCH  12  15
HETATM   15  C   UNL     1      -5.188  -3.211 -34.861  1.00  0.00     0.084 A 
HETATM   16  C   UNL     1      -5.286  -4.625 -34.360  1.00  0.00     0.027 A 
HETATM   17  C   UNL     1      -6.385  -4.057 -35.207  1.00  0.00     0.027 A 
ENDBRANCH  12  15
ENDBRANCH   7  11
ENDBRANCH   2   5
BRANCH   1  18
HETATM   18  C   UNL     1      -1.944   4.691 -31.585  1.00  0.00     0.147 A 
HETATM   19  N   UNL     1      -0.743   4.865 -32.171  1.00  0.00    -0.169 NA
HETATM   20  N   UNL     1      -0.161   5.827 -31.423  1.00  0.00    -0.277 N 
HETATM   21  C   UNL     1      -0.931   6.281 -30.383  1.00  0.00     0.063 A 
HETATM   22  H   UNL     1       0.778   6.120 -31.666  1.00  0.00     0.189 HD
HETATM   23  C   UNL     1      -2.095   5.548 -30.469  1.00  0.00     0.071 A 
BRANCH  21  24
HETATM   24  C   UNL     1      -0.514   7.300 -29.424  1.00  0.00    -0.008 A 
HETATM   25  C   UNL     1       0.767   7.291 -28.856  1.00  0.00     0.014 A 
HETATM   26  C   UNL     1       1.152   8.289 -27.957  1.00  0.00     0.001 A 
HETATM   27  C   UNL     1       0.263   9.307 -27.616  1.00  0.00     0.000 A 
HETATM   28  C   UNL     1      -1.013   9.329 -28.174  1.00  0.00     0.001 A 
HETATM   29  C   UNL     1      -1.397   8.332 -29.073  1.00  0.00     0.014 A 
ENDBRANCH  21  24
ENDBRANCH   1  18
TORSDOF 5
ENDMDL
MODEL 3
REMARK VINA RESULT:      -8.5      1.897     10.038
REMARK  5 active torsions:
REMARK  status: ('A' for Active; 'I' for Inactive)
REMARK    1  A    between atoms: C_4  and  C_5 
REMARK    2  A    between atoms: C_9  and  C_10 
REMARK       I    between atoms: C_10  and  N_11 
REMARK    3  A    between atoms: N_11  and  C_12 
REMARK    4  A    between atoms: C_14  and  C_15 
REMARK       I    between atoms: C_15  and  N_16 
REMARK    5  A    between atoms: N_16  and  C_17 
ROOT
HETATM    1  C   UNL     1      -1.928   4.562 -31.891  1.00  0.00     0.276 C 
HETATM    2  N   UNL     1      -3.063   3.978 -31.356  1.00  0.00    -0.322 N 
HETATM    3  O   UNL     1      -1.625   4.603 -33.079  1.00  0.00    -0.266 OA
HETATM    4  H   UNL     1      -3.161   4.118 -30.351  1.00  0.00     0.169 HD
ENDROOT
BRANCH   2   5
HETATM    5  C   UNL     1      -4.089   3.314 -32.052  1.00  0.00     0.036 A 
HETATM    6  C   UNL     1      -4.301   1.936 -31.962  1.00  0.00     0.046 A 
HETATM    7  C   UNL     1      -5.295   1.308 -32.723  1.00  0.00     0.034 A 
HETATM    8  C   UNL     1      -6.128   2.078 -33.540  1.00  0.00     0.017 A 
HETATM    9  C   UNL     1      -5.947   3.460 -33.611  1.00  0.00     0.003 A 
HETATM   10  C   UNL     1      -4.929   4.074 -32.874  1.00  0.00     0.029 A 
BRANCH   7  11
HETATM   11  C   UNL     1      -5.497  -0.169 -32.663  1.00  0.00     0.252 C 
HETATM   12  N   UNL     1      -5.325  -0.850 -33.855  1.00  0.00    -0.352 N 
HETATM   13  H   UNL     1      -5.185  -0.325 -34.710  1.00  0.00     0.163 HD
HETATM   14  O   UNL     1      -5.814  -0.699 -31.603  1.00  0.00    -0.268 OA
BRANCH  12  15
HETATM   15  C   UNL     1      -5.427  -2.270 -33.973  1.00  0.00     0.084 A 
HETATM   16  C   UNL     1      -6.675  -2.899 -34.529  1.00  0.00     0.027 A 
HETATM   17  C   UNL     1      -5.412  -2.907 -35.337  1.00  0.00     0.027 A 
ENDBRANCH  12  15
ENDBRANCH   7  11
ENDBRANCH   2   5
BRANCH   1  18
HETATM   18  C   UNL     1      -1.079   5.199 -30.872  1.00  0.00     0.147 A 
HETATM   19  N   UNL     1      -0.019   4.584 -30.312  1.00  0.00    -0.169 NA
HETATM   20  N   UNL     1       0.457   5.501 -29.443  1.00  0.00    -0.277 N 
HETATM   21  C   UNL     1      -0.247   6.678 -29.416  1.00  0.00     0.063 A 
HETATM   22  H   UNL     1       1.262   5.254 -28.878  1.00  0.00     0.189 HD
HETATM   23  C   UNL     1      -1.256   6.497 -30.338  1.00  0.00     0.071 A 
BRANCH  21  24
HETATM   24  C   UNL     1       0.059   7.810 -28.546  1.00  0.00    -0.008 A 
HETATM   25  C   UNL     1      -0.870   8.833 -28.321  1.00  0.00     0.014 A 
HETATM   26  C   UNL     1      -0.563   9.895 -27.466  1.00  0.00     0.001 A 
HETATM   27  C   UNL     1       0.674   9.947 -26.827  1.00  0.00     0.000 A 
HETATM   28  C   UNL     1       1.607   8.936 -27.041  1.00  0.00     0.001 A 
HETATM   29  C   UNL     1       1.299   7.873 -27.894  1.00  0.00     0.014 A 
ENDBRANCH  21  24
ENDBRANCH   1  18
TORSDOF 5
ENDMDL
MODEL 4
REMARK VINA RESULT:      -8.4      1.338      1.400
REMARK  5 active torsions:
REMARK  status: ('A' for Active; 'I' for Inactive)
REMARK    1  A    between atoms: C_4  and  C_5 
REMARK    2  A    between atoms: C_9  and  C_10 
REMARK       I    between atoms: C_10  and  N_11 
REMARK    3  A    between atoms: N_11  and  C_12 
REMARK    4  A    between atoms: C_14  and  C_15 
REMARK       I    between atoms: C_15  and  N_16 
REMARK    5  A    between atoms: N_16  and  C_17 
ROOT
HETATM    1  C   UNL     1      -3.796   2.518 -32.247  1.00  0.00     0.276 C 
HETATM    2  N   UNL     1      -2.675   3.031 -32.876  1.00  0.00    -0.322 N 
HETATM    3  O   UNL     1      -4.652   3.163 -31.650  1.00  0.00    -0.266 OA
HETATM    4  H   UNL     1      -2.129   2.330 -33.375  1.00  0.00     0.169 HD
ENDROOT
BRANCH   2   5
HETATM    5  C   UNL     1      -2.285   4.380 -32.956  1.00  0.00     0.036 A 
HETATM    6  C   UNL     1      -1.516   5.008 -31.973  1.00  0.00     0.046 A 
HETATM    7  C   UNL     1      -1.206   6.371 -32.064  1.00  0.00     0.034 A 
HETATM    8  C   UNL     1      -1.617   7.100 -33.183  1.00  0.00     0.017 A 
HETATM    9  C   UNL     1      -2.356   6.473 -34.187  1.00  0.00     0.003 A 
HETATM   10  C   UNL     1      -2.692   5.120 -34.071  1.00  0.00     0.029 A 
BRANCH   7  11
HETATM   11  C   UNL     1      -0.422   7.057 -30.996  1.00  0.00     0.252 C 
HETATM   12  N   UNL     1      -1.163   7.603 -29.962  1.00  0.00    -0.352 N 
HETATM   13  H   UNL     1      -2.173   7.611 -30.027  1.00  0.00     0.163 HD
HETATM   14  O   UNL     1       0.799   7.126 -31.082  1.00  0.00    -0.268 OA
BRANCH  12  15
HETATM   15  C   UNL     1      -0.578   8.250 -28.830  1.00  0.00     0.084 A 
HETATM   16  C   UNL     1      -1.397   9.181 -27.980  1.00  0.00     0.027 A 
HETATM   17  C   UNL     1      -0.994   7.841 -27.441  1.00  0.00     0.027 A 
ENDBRANCH  12  15
ENDBRANCH   7  11
ENDBRANCH   2   5
BRANCH   1  18
HETATM   18  C   UNL     1      -3.911   1.057 -32.386  1.00  0.00     0.147 A 
HETATM   19  N   UNL     1      -3.172   0.191 -31.665  1.00  0.00    -0.169 NA
HETATM   20  N   UNL     1      -3.580  -1.018 -32.106  1.00  0.00    -0.277 N 
HETATM   21  C   UNL     1      -4.547  -0.972 -33.078  1.00  0.00     0.063 A 
HETATM   22  H   UNL     1      -3.142  -1.844 -31.714  1.00  0.00     0.189 HD
HETATM   23  C   UNL     1      -4.772   0.374 -33.277  1.00  0.00     0.071 A 
BRANCH  21  24
HETATM   24  C   UNL     1      -5.131  -2.143 -33.725  1.00  0.00    -0.008 A 
HETATM   25  C   UNL     1      -6.453  -2.142 -34.186  1.00  0.00     0.014 A 
HETATM   26  C   UNL     1      -6.984  -3.268 -34.823  1.00  0.00     0.001 A 
HETATM   27  C   UNL     1      -6.200  -4.405 -35.006  1.00  0.00     0.000 A 
HETATM   28  C   UNL     1      -4.883  -4.419 -34.553  1.00  0.00     0.001 A 
HETATM   29  C   UNL     1      -4.352  -3.294 -33.919  1.00  0.00     0.014 A 
ENDBRANCH  21  24
ENDBRANCH   1  18
TORSDOF 5
ENDMDL
MODEL 5
REMARK VINA RESULT:      -8.3      2.431      3.606
REMARK  5 active torsions:
REMARK  status: ('A' for Active; 'I' for Inactive)
REMARK    1  A    between atoms: C_4  and  C_5 
REMARK    2  A    between atoms: C_9  and  C_10 
REMARK       I    between atoms: C_10  and  N_11 
REMARK    3  A    between atoms: N_11  and  C_12 
REMARK    4  A    between atoms: C_14  and  C_15 
REMARK       I    between atoms: C_15  and  N_16 
REMARK    5  A    between atoms: N_16  and  C_17 
ROOT
HETATM    1  C   UNL     1      -6.473   2.642 -33.298  1.00  0.00     0.276 C 
HETATM    2  N   UNL     1      -6.232   2.582 -31.936  1.00  0.00    -0.322 N 
HETATM    3  O   UNL     1      -6.597   3.661 -33.969  1.00  0.00    -0.266 OA
HETATM    4  H   UNL     1      -6.091   1.636 -31.586  1.00  0.00     0.169 HD
ENDROOT
BRANCH   2   5
HETATM    5  C   UNL     1      -6.085   3.664 -31.049  1.00  0.00     0.036 A 
HETATM    6  C   UNL     1      -4.934   4.455 -30.999  1.00  0.00     0.046 A 
HETATM    7  C   UNL     1      -4.807   5.483 -30.055  1.00  0.00     0.034 A 
HETATM    8  C   UNL     1      -5.869   5.762 -29.191  1.00  0.00     0.017 A 
HETATM    9  C   UNL     1      -7.036   4.999 -29.256  1.00  0.00     0.003 A 
HETATM   10  C   UNL     1      -7.141   3.952 -30.178  1.00  0.00     0.029 A 
BRANCH   7  11
HETATM   11  C   UNL     1      -3.563   6.302 -29.970  1.00  0.00     0.252 C 
HETATM   12  N   UNL     1      -2.455   5.784 -30.617  1.00  0.00    -0.352 N 
HETATM   13  H   UNL     1      -2.502   4.853 -31.012  1.00  0.00     0.163 HD
HETATM   14  O   UNL     1      -3.565   7.351 -29.336  1.00  0.00    -0.268 OA
BRANCH  12  15
HETATM   15  C   UNL     1      -1.196   6.456 -30.683  1.00  0.00     0.084 A 
HETATM   16  C   UNL     1       0.059   5.689 -30.996  1.00  0.00     0.027 A 
HETATM   17  C   UNL     1      -0.513   6.629 -32.015  1.00  0.00     0.027 A 
ENDBRANCH  12  15
ENDBRANCH   7  11
ENDBRANCH   2   5
BRANCH   1  18
HETATM   18  C   UNL     1      -6.539   1.312 -33.924  1.00  0.00     0.147 A 
HETATM   19  N   UNL     1      -7.342   1.033 -34.970  1.00  0.00    -0.169 NA
HETATM   20  N   UNL     1      -7.102  -0.273 -35.214  1.00  0.00    -0.277 N 
HETATM   21  C   UNL     1      -6.183  -0.849 -34.375  1.00  0.00     0.063 A 
HETATM   22  H   UNL     1      -7.616  -0.723 -35.963  1.00  0.00     0.189 HD
HETATM   23  C   UNL     1      -5.808   0.169 -33.523  1.00  0.00     0.071 A 
BRANCH  21  24
HETATM   24  C   UNL     1      -5.773  -2.250 -34.426  1.00  0.00    -0.008 A 
HETATM   25  C   UNL     1      -4.469  -2.644 -34.100  1.00  0.00     0.014 A 
HETATM   26  C   UNL     1      -4.107  -3.993 -34.135  1.00  0.00     0.001 A 
HETATM   27  C   UNL     1      -5.041  -4.963 -34.495  1.00  0.00     0.000 A 
HETATM   28  C   UNL     1      -6.341  -4.584 -34.820  1.00  0.00     0.001 A 
HETATM   29  C   UNL     1      -6.704  -3.236 -34.784  1.00  0.00     0.014 A 
ENDBRANCH  21  24
ENDBRANCH   1  18
TORSDOF 5
ENDMDL
MODEL 6
REMARK VINA RESULT:      -8.0      1.529      2.239
REMARK  5 active torsions:
REMARK  status: ('A' for Active; 'I' for Inactive)
REMARK    1  A    between atoms: C_4  and  C_5 
REMARK    2  A    between atoms: C_9  and  C_10 
REMARK       I    between atoms: C_10  and  N_11 
REMARK    3  A    between atoms: N_11  and  C_12 
REMARK    4  A    between atoms: C_14  and  C_15 
REMARK       I    between atoms: C_15  and  N_16 
REMARK    5  A    between atoms: N_16  and  C_17 
ROOT
HETATM    1  C   UNL     1      -3.889   3.900 -31.287  1.00  0.00     0.276 C 
HETATM    2  N   UNL     1      -2.508   3.895 -31.386  1.00  0.00    -0.322 N 
HETATM    3  O   UNL     1      -4.601   4.885 -31.124  1.00  0.00    -0.266 OA
HETATM    4  H   UNL     1      -2.115   2.978 -31.592  1.00  0.00     0.169 HD
ENDROOT
BRANCH   2   5
HETATM    5  C   UNL     1      -1.646   5.004 -31.316  1.00  0.00     0.036 A 
HETATM    6  C   UNL     1      -1.239   5.576 -30.108  1.00  0.00     0.046 A 
HETATM    7  C   UNL     1      -0.430   6.719 -30.088  1.00  0.00     0.034 A 
HETATM    8  C   UNL     1       0.029   7.261 -31.292  1.00  0.00     0.017 A 
HETATM    9  C   UNL     1      -0.344   6.677 -32.503  1.00  0.00     0.003 A 
HETATM   10  C   UNL     1      -1.181   5.556 -32.515  1.00  0.00     0.029 A 
BRANCH   7  11
HETATM   11  C   UNL     1      -0.029   7.359 -28.801  1.00  0.00     0.252 C 
HETATM   12  N   UNL     1      -0.927   7.226 -27.757  1.00  0.00    -0.352 N 
HETATM   13  H   UNL     1      -1.834   6.812 -27.934  1.00  0.00     0.163 HD
HETATM   14  O   UNL     1       1.031   7.972 -28.728  1.00  0.00    -0.268 OA
BRANCH  12  15
HETATM   15  C   UNL     1      -0.686   7.729 -26.442  1.00  0.00     0.084 A 
HETATM   16  C   UNL     1      -1.022   9.154 -26.100  1.00  0.00     0.027 A 
HETATM   17  C   UNL     1      -1.850   8.038 -25.537  1.00  0.00     0.027 A 
ENDBRANCH  12  15
ENDBRANCH   7  11
ENDBRANCH   2   5
BRANCH   1  18
HETATM   18  C   UNL     1      -4.476   2.559 -31.435  1.00  0.00     0.147 A 
HETATM   19  N   UNL     1      -5.073   1.903 -30.421  1.00  0.00    -0.169 NA
HETATM   20  N   UNL     1      -5.451   0.733 -30.979  1.00  0.00    -0.277 N 
HETATM   21  C   UNL     1      -5.125   0.603 -32.305  1.00  0.00     0.063 A 
HETATM   22  H   UNL     1      -5.916   0.050 -30.391  1.00  0.00     0.189 HD
HETATM   23  C   UNL     1      -4.484   1.783 -32.619  1.00  0.00     0.071 A 
BRANCH  21  24
HETATM   24  C   UNL     1      -5.408  -0.575 -33.119  1.00  0.00    -0.008 A 
HETATM   25  C   UNL     1      -4.390  -1.450 -33.519  1.00  0.00     0.014 A 
HETATM   26  C   UNL     1      -4.688  -2.585 -34.279  1.00  0.00     0.001 A 
HETATM   27  C   UNL     1      -6.004  -2.857 -34.649  1.00  0.00     0.000 A 
HETATM   28  C   UNL     1      -7.025  -1.995 -34.258  1.00  0.00     0.001 A 
HETATM   29  C   UNL     1      -6.728  -0.863 -33.496  1.00  0.00     0.014 A 
ENDBRANCH  21  24
ENDBRANCH   1  18
TORSDOF 5
ENDMDL
MODEL 7
REMARK VINA RESULT:      -7.9      3.200      3.881
REMARK  5 active torsions:
REMARK  status: ('A' for Active; 'I' for Inactive)
REMARK    1  A    between atoms: C_4  and  C_5 
REMARK    2  A    between atoms: C_9  and  C_10 
REMARK       I    between atoms: C_10  and  N_11 
REMARK    3  A    between atoms: N_11  and  C_12 
REMARK    4  A    between atoms: C_14  and  C_15 
REMARK       I    between atoms: C_15  and  N_16 
REMARK    5  A    between atoms: N_16  and  C_17 
ROOT
HETATM    1  C   UNL     1      -3.624   2.195 -31.481  1.00  0.00     0.276 C 
HETATM    2  N   UNL     1      -4.933   2.555 -31.210  1.00  0.00    -0.322 N 
HETATM    3  O   UNL     1      -2.658   2.950 -31.523  1.00  0.00    -0.266 OA
HETATM    4  H   UNL     1      -5.572   1.763 -31.153  1.00  0.00     0.169 HD
ENDROOT
BRANCH   2   5
HETATM    5  C   UNL     1      -5.422   3.845 -30.936  1.00  0.00     0.036 A 
HETATM    6  C   UNL     1      -5.237   4.482 -29.706  1.00  0.00     0.046 A 
HETATM    7  C   UNL     1      -5.798   5.741 -29.456  1.00  0.00     0.034 A 
HETATM    8  C   UNL     1      -6.500   6.398 -30.469  1.00  0.00     0.017 A 
HETATM    9  C   UNL     1      -6.662   5.785 -31.713  1.00  0.00     0.003 A 
HETATM   10  C   UNL     1      -6.128   4.512 -31.943  1.00  0.00     0.029 A 
BRANCH   7  11
HETATM   11  C   UNL     1      -5.639   6.406 -28.130  1.00  0.00     0.252 C 
HETATM   12  N   UNL     1      -4.349   6.459 -27.632  1.00  0.00    -0.352 N 
HETATM   13  H   UNL     1      -3.610   5.965 -28.118  1.00  0.00     0.163 HD
HETATM   14  O   UNL     1      -6.624   6.845 -27.545  1.00  0.00    -0.268 OA
BRANCH  12  15
HETATM   15  C   UNL     1      -4.004   7.102 -26.404  1.00  0.00     0.084 A 
HETATM   16  C   UNL     1      -2.608   6.996 -25.857  1.00  0.00     0.027 A 
HETATM   17  C   UNL     1      -3.089   8.299 -26.422  1.00  0.00     0.027 A 
ENDBRANCH  12  15
ENDBRANCH   7  11
ENDBRANCH   2   5
BRANCH   1  18
HETATM   18  C   UNL     1      -3.462   0.748 -31.693  1.00  0.00     0.147 A 
HETATM   19  N   UNL     1      -2.535   0.011 -31.049  1.00  0.00    -0.169 NA
HETATM   20  N   UNL     1      -2.724  -1.233 -31.538  1.00  0.00    -0.277 N 
HETATM   21  C   UNL     1      -3.729  -1.333 -32.466  1.00  0.00     0.063 A 
HETATM   22  H   UNL     1      -2.117  -1.975 -31.208  1.00  0.00     0.189 HD
HETATM   23  C   UNL     1      -4.219  -0.050 -32.584  1.00  0.00     0.071 A 
BRANCH  21  24
HETATM   24  C   UNL     1      -4.108  -2.566 -33.151  1.00  0.00    -0.008 A 
HETATM   25  C   UNL     1      -5.113  -2.582 -34.126  1.00  0.00     0.014 A 
HETATM   26  C   UNL     1      -5.443  -3.770 -34.785  1.00  0.00     0.001 A 
HETATM   27  C   UNL     1      -4.774  -4.953 -34.477  1.00  0.00     0.000 A 
HETATM   28  C   UNL     1      -3.772  -4.950 -33.510  1.00  0.00     0.001 A 
HETATM   29  C   UNL     1      -3.441  -3.763 -32.853  1.00  0.00     0.014 A 
ENDBRANCH  21  24
ENDBRANCH   1  18
TORSDOF 5
ENDMDL
MODEL 8
REMARK VINA RESULT:      -7.9      6.144      8.397
REMARK  5 active torsions:
REMARK  status: ('A' for Active; 'I' for Inactive)
REMARK    1  A    between atoms: C_4  and  C_5 
REMARK    2  A    between atoms: C_9  and  C_10 
REMARK       I    between atoms: C_10  and  N_11 
REMARK    3  A    between atoms: N_11  and  C_12 
REMARK    4  A    between atoms: C_14  and  C_15 
REMARK       I    between atoms: C_15  and  N_16 
REMARK    5  A    between atoms: N_16  and  C_17 
ROOT
HETATM    1  C   UNL     1      -8.408   2.229 -33.447  1.00  0.00     0.276 C 
HETATM    2  N   UNL     1      -9.208   2.345 -34.571  1.00  0.00    -0.322 N 
HETATM    3  O   UNL     1      -8.517   2.873 -32.409  1.00  0.00    -0.266 OA
HETATM    4  H   UNL     1      -8.994   1.665 -35.298  1.00  0.00     0.169 HD
ENDROOT
BRANCH   2   5
HETATM    5  C   UNL     1     -10.295   3.219 -34.755  1.00  0.00     0.036 A 
HETATM    6  C   UNL     1     -10.144   4.601 -34.893  1.00  0.00     0.046 A 
HETATM    7  C   UNL     1     -11.261   5.439 -35.012  1.00  0.00     0.034 A 
HETATM    8  C   UNL     1     -12.541   4.882 -35.055  1.00  0.00     0.017 A 
HETATM    9  C   UNL     1     -12.700   3.499 -34.952  1.00  0.00     0.003 A 
HETATM   10  C   UNL     1     -11.582   2.672 -34.799  1.00  0.00     0.029 A 
BRANCH   7  11
HETATM   11  C   UNL     1     -11.106   6.919 -35.115  1.00  0.00     0.252 C 
HETATM   12  N   UNL     1     -11.166   7.443 -36.395  1.00  0.00    -0.352 N 
HETATM   13  H   UNL     1     -11.198   6.813 -37.187  1.00  0.00     0.163 HD
HETATM   14  O   UNL     1     -10.919   7.586 -34.103  1.00  0.00    -0.268 OA
BRANCH  12  15
HETATM   15  C   UNL     1     -11.089   8.842 -36.678  1.00  0.00     0.084 A 
HETATM   16  C   UNL     1     -10.009   9.377 -37.576  1.00  0.00     0.027 A 
HETATM   17  C   UNL     1     -11.429   9.342 -38.057  1.00  0.00     0.027 A 
ENDBRANCH  12  15
ENDBRANCH   7  11
ENDBRANCH   2   5
BRANCH   1  18
HETATM   18  C   UNL     1      -7.378   1.187 -33.586  1.00  0.00     0.147 A 
HETATM   19  N   UNL     1      -6.058   1.443 -33.487  1.00  0.00    -0.169 NA
HETATM   20  N   UNL     1      -5.486   0.236 -33.684  1.00  0.00    -0.277 N 
HETATM   21  C   UNL     1      -6.374  -0.785 -33.905  1.00  0.00     0.063 A 
HETATM   22  H   UNL     1      -4.474   0.178 -33.673  1.00  0.00     0.189 HD
HETATM   23  C   UNL     1      -7.613  -0.183 -33.850  1.00  0.00     0.071 A 
BRANCH  21  24
HETATM   24  C   UNL     1      -5.998  -2.172 -34.164  1.00  0.00    -0.008 A 
HETATM   25  C   UNL     1      -6.926  -3.105 -34.643  1.00  0.00     0.014 A 
HETATM   26  C   UNL     1      -6.538  -4.422 -34.906  1.00  0.00     0.001 A 
HETATM   27  C   UNL     1      -5.220  -4.821 -34.692  1.00  0.00     0.000 A 
HETATM   28  C   UNL     1      -4.287  -3.903 -34.217  1.00  0.00     0.001 A 
HETATM   29  C   UNL     1      -4.674  -2.587 -33.957  1.00  0.00     0.014 A 
ENDBRANCH  21  24
ENDBRANCH   1  18
TORSDOF 5
ENDMDL
MODEL 9
REMARK VINA RESULT:      -7.8      3.465      4.028
REMARK  5 active torsions:
REMARK  status: ('A' for Active; 'I' for Inactive)
REMARK    1  A    between atoms: C_4  and  C_5 
REMARK    2  A    between atoms: C_9  and  C_10 
REMARK       I    between atoms: C_10  and  N_11 
REMARK    3  A    between atoms: N_11  and  C_12 
REMARK    4  A    between atoms: C_14  and  C_15 
REMARK       I    between atoms: C_15  and  N_16 
REMARK    5  A    between atoms: N_16  and  C_17 
ROOT
HETATM    1  C   UNL     1      -5.490   4.161 -30.905  1.00  0.00     0.276 C 
HETATM    2  N   UNL     1      -4.740   3.888 -32.036  1.00  0.00    -0.322 N 
HETATM    3  O   UNL     1      -5.159   4.885 -29.972  1.00  0.00    -0.266 OA
HETATM    4  H   UNL     1      -5.229   3.319 -32.725  1.00  0.00     0.169 HD
ENDROOT
BRANCH   2   5
HETATM    5  C   UNL     1      -3.456   4.373 -32.343  1.00  0.00     0.036 A 
HETATM    6  C   UNL     1      -2.425   4.445 -31.403  1.00  0.00     0.046 A 
HETATM    7  C   UNL     1      -1.181   4.994 -31.738  1.00  0.00     0.034 A 
HETATM    8  C   UNL     1      -0.945   5.420 -33.048  1.00  0.00     0.017 A 
HETATM    9  C   UNL     1      -1.957   5.321 -34.004  1.00  0.00     0.003 A 
HETATM   10  C   UNL     1      -3.208   4.803 -33.651  1.00  0.00     0.029 A 
BRANCH   7  11
HETATM   11  C   UNL     1      -0.092   5.114 -30.726  1.00  0.00     0.252 C 
HETATM   12  N   UNL     1      -0.443   5.719 -29.532  1.00  0.00    -0.352 N 
HETATM   13  H   UNL     1      -1.360   6.139 -29.440  1.00  0.00     0.163 HD
HETATM   14  O   UNL     1       1.034   4.705 -30.989  1.00  0.00    -0.268 OA
BRANCH  12  15
HETATM   15  C   UNL     1       0.456   5.871 -28.432  1.00  0.00     0.084 A 
HETATM   16  C   UNL     1       0.855   7.242 -27.960  1.00  0.00     0.027 A 
HETATM   17  C   UNL     1      -0.057   6.401 -27.118  1.00  0.00     0.027 A 
ENDBRANCH  12  15
ENDBRANCH   7  11
ENDBRANCH   2   5
BRANCH   1  18
HETATM   18  C   UNL     1      -6.809   3.507 -30.924  1.00  0.00     0.147 A 
HETATM   19  N   UNL     1      -7.448   3.112 -29.805  1.00  0.00    -0.169 NA
HETATM   20  N   UNL     1      -8.591   2.565 -30.269  1.00  0.00    -0.277 N 
HETATM   21  C   UNL     1      -8.719   2.588 -31.635  1.00  0.00     0.063 A 
HETATM   22  H   UNL     1      -9.241   2.172 -29.598  1.00  0.00     0.189 HD
HETATM   23  C   UNL     1      -7.564   3.195 -32.079  1.00  0.00     0.071 A 
BRANCH  21  24
HETATM   24  C   UNL     1      -9.853   2.039 -32.372  1.00  0.00    -0.008 A 
HETATM   25  C   UNL     1      -9.945   0.672 -32.663  1.00  0.00     0.014 A 
HETATM   26  C   UNL     1     -11.050   0.165 -33.351  1.00  0.00     0.001 A 
HETATM   27  C   UNL     1     -12.076   1.017 -33.757  1.00  0.00     0.000 A 
HETATM   28  C   UNL     1     -11.998   2.378 -33.474  1.00  0.00     0.001 A 
HETATM   29  C   UNL     1     -10.893   2.884 -32.784  1.00  0.00     0.014 A 
ENDBRANCH  21  24
ENDBRANCH   1  18
TORSDOF 5
ENDMDL
MODEL 10
REMARK VINA RESULT:      -7.6      7.247      9.957
REMARK  5 active torsions:
REMARK  status: ('A' for Active; 'I' for Inactive)
REMARK    1  A    between atoms: C_4  and  C_5 
REMARK    2  A    between atoms: C_9  and  C_10 
REMARK       I    between atoms: C_10  and  N_11 
REMARK    3  A    between atoms: N_11  and  C_12 
REMARK    4  A    between atoms: C_14  and  C_15 
REMARK       I    between atoms: C_15  and  N_16 
REMARK    5  A    between atoms: N_16  and  C_17 
ROOT
HETATM    1  C   UNL     1      -9.976   1.163 -34.007  1.00  0.00     0.276 C 
HETATM    2  N   UNL     1      -9.992   2.490 -34.402  1.00  0.00    -0.322 N 
HETATM    3  O   UNL     1     -10.917   0.536 -33.532  1.00  0.00    -0.266 OA
HETATM    4  H   UNL     1      -9.124   2.797 -34.838  1.00  0.00     0.169 HD
ENDROOT
BRANCH   2   5
HETATM    5  C   UNL     1     -11.075   3.385 -34.338  1.00  0.00     0.036 A 
HETATM    6  C   UNL     1     -12.034   3.345 -33.322  1.00  0.00     0.046 A 
HETATM    7  C   UNL     1     -13.131   4.217 -33.334  1.00  0.00     0.034 A 
HETATM    8  C   UNL     1     -13.238   5.179 -34.340  1.00  0.00     0.017 A 
HETATM    9  C   UNL     1     -12.267   5.249 -35.341  1.00  0.00     0.003 A 
HETATM   10  C   UNL     1     -11.193   4.352 -35.341  1.00  0.00     0.029 A 
BRANCH   7  11
HETATM   11  C   UNL     1     -14.180   4.150 -32.275  1.00  0.00     0.252 C 
HETATM   12  N   UNL     1     -15.490   4.134 -32.724  1.00  0.00    -0.352 N 
HETATM   13  H   UNL     1     -15.677   4.276 -33.709  1.00  0.00     0.163 HD
HETATM   14  O   UNL     1     -13.855   4.132 -31.093  1.00  0.00    -0.268 OA
BRANCH  12  15
HETATM   15  C   UNL     1     -16.619   4.021 -31.856  1.00  0.00     0.084 A 
HETATM   16  C   UNL     1     -18.014   4.087 -32.412  1.00  0.00     0.027 A 
HETATM   17  C   UNL     1     -17.475   2.782 -31.906  1.00  0.00     0.027 A 
ENDBRANCH  12  15
ENDBRANCH   7  11
ENDBRANCH   2   5
BRANCH   1  18
HETATM   18  C   UNL     1      -8.678   0.512 -34.246  1.00  0.00     0.147 A 
HETATM   19  N   UNL     1      -7.603   1.171 -34.722  1.00  0.00    -0.169 NA
HETATM   20  N   UNL     1      -6.653   0.215 -34.796  1.00  0.00    -0.277 N 
HETATM   21  C   UNL     1      -7.064  -1.029 -34.390  1.00  0.00     0.063 A 
HETATM   22  H   UNL     1      -5.740   0.474 -35.153  1.00  0.00     0.189 HD
HETATM   23  C   UNL     1      -8.384  -0.855 -34.032  1.00  0.00     0.071 A 
BRANCH  21  24
HETATM   24  C   UNL     1      -6.227  -2.225 -34.399  1.00  0.00    -0.008 A 
HETATM   25  C   UNL     1      -4.868  -2.170 -34.064  1.00  0.00     0.014 A 
HETATM   26  C   UNL     1      -4.091  -3.331 -34.058  1.00  0.00     0.001 A 
HETATM   27  C   UNL     1      -4.662  -4.560 -34.386  1.00  0.00     0.000 A 
HETATM   28  C   UNL     1      -6.012  -4.629 -34.720  1.00  0.00     0.001 A 
HETATM   29  C   UNL     1      -6.789  -3.468 -34.725  1.00  0.00     0.014 A 
ENDBRANCH  21  24
ENDBRANCH   1  18
TORSDOF 5
ENDMDL
