MODEL 1
REMARK VINA RESULT:      -7.9      0.000      0.000
REMARK  5 active torsions:
REMARK  status: ('A' for Active; 'I' for Inactive)
REMARK    1  A    between atoms: C_8  and  N_9 
REMARK       I    between atoms: N_9  and  C_10 
REMARK       I    between atoms: C_10  and  N_11 
REMARK    2  A    between atoms: N_11  and  C_12 
REMARK    3  A    between atoms: C_13  and  O_14 
REMARK    4  A    between atoms: O_14  and  C_15 
REMARK    5  A    between atoms: C_15  and  C_16 
ROOT
HETATM    1  N   UNL     1     -10.273   1.349 -34.675  1.00  0.00    -0.305 N 
HETATM    2  C   UNL     1      -9.385   1.125 -33.638  1.00  0.00     0.325 C 
HETATM    3  N   UNL     1      -8.182   0.652 -34.135  1.00  0.00    -0.306 N 
HETATM    4  O   UNL     1      -9.621   1.320 -32.454  1.00  0.00    -0.247 OA
HETATM    5  H   UNL     1      -9.864   1.501 -35.584  1.00  0.00     0.171 HD
HETATM    6  H   UNL     1      -8.190   0.291 -35.079  1.00  0.00     0.171 HD
ENDROOT
BRANCH   3   7
HETATM    7  C   UNL     1      -6.986   0.414 -33.424  1.00  0.00     0.069 A 
HETATM    8  C   UNL     1      -6.488  -0.901 -33.422  1.00  0.00     0.095 A 
HETATM    9  C   UNL     1      -5.288  -1.216 -32.781  1.00  0.00     0.039 A 
HETATM   10  C   UNL     1      -4.590  -0.220 -32.102  1.00  0.00     0.003 A 
HETATM   11  C   UNL     1      -5.085   1.083 -32.079  1.00  0.00     0.002 A 
HETATM   12  C   UNL     1      -6.276   1.401 -32.742  1.00  0.00     0.032 A 
BRANCH   8  13
HETATM   13  O   UNL     1      -7.195  -1.859 -34.109  1.00  0.00    -0.340 OA
BRANCH  13  14
HETATM   14  C   UNL     1      -6.327  -2.673 -34.922  1.00  0.00     0.293 C 
BRANCH  14  15
HETATM   15  C   UNL     1      -6.704  -4.137 -34.773  1.00  0.00     0.408 C 
HETATM   16  F   UNL     1      -7.736  -4.292 -33.911  1.00  0.00    -0.169 F 
HETATM   17  F   UNL     1      -7.065  -4.683 -35.955  1.00  0.00    -0.169 F 
HETATM   18  F   UNL     1      -5.662  -4.854 -34.295  1.00  0.00    -0.169 F 
ENDBRANCH  14  15
ENDBRANCH  13  14
ENDBRANCH   8  13
ENDBRANCH   3   7
BRANCH   1  19
HETATM   19  C   UNL     1     -11.614   1.673 -34.555  1.00  0.00     0.086 A 
HETATM   20  C   UNL     1     -12.116   2.896 -34.962  1.00  0.00     0.052 A 
HETATM   21  C   UNL     1     -11.481   4.097 -35.554  1.00  0.00     0.072 C 
HETATM   22  N   UNL     1     -13.456   2.854 -34.704  1.00  0.00    -0.280 N 
HETATM   23  H   UNL     1     -14.148   3.578 -34.864  1.00  0.00     0.189 HD
HETATM   24  N   UNL     1     -13.871   1.696 -34.186  1.00  0.00    -0.177 NA
HETATM   25  C   UNL     1     -12.757   0.954 -34.093  1.00  0.00     0.079 A 
HETATM   26  C   UNL     1     -12.882  -0.440 -33.598  1.00  0.00     0.075 C 
ENDBRANCH   1  19
TORSDOF 5
ENDMDL
MODEL 2
REMARK VINA RESULT:      -7.6      3.516      5.167
REMARK  5 active torsions:
REMARK  status: ('A' for Active; 'I' for Inactive)
REMARK    1  A    between atoms: C_8  and  N_9 
REMARK       I    between atoms: N_9  and  C_10 
REMARK       I    between atoms: C_10  and  N_11 
REMARK    2  A    between atoms: N_11  and  C_12 
REMARK    3  A    between atoms: C_13  and  O_14 
REMARK    4  A    between atoms: O_14  and  C_15 
REMARK    5  A    between atoms: C_15  and  C_16 
ROOT
HETATM    1  N   UNL     1      -6.659   1.236 -33.690  1.00  0.00    -0.305 N 
HETATM    2  C   UNL     1      -6.626  -0.111 -33.376  1.00  0.00     0.325 C 
HETATM    3  N   UNL     1      -6.055  -0.828 -34.414  1.00  0.00    -0.306 N 
HETATM    4  O   UNL     1      -7.033  -0.601 -32.332  1.00  0.00    -0.247 OA
HETATM    5  H   UNL     1      -5.992   1.547 -34.378  1.00  0.00     0.171 HD
HETATM    6  H   UNL     1      -5.997  -0.364 -35.310  1.00  0.00     0.171 HD
ENDROOT
BRANCH   3   7
HETATM    7  C   UNL     1      -5.732  -2.202 -34.441  1.00  0.00     0.069 A 
HETATM    8  C   UNL     1      -4.465  -2.577 -33.959  1.00  0.00     0.095 A 
HETATM    9  C   UNL     1      -4.081  -3.919 -33.908  1.00  0.00     0.039 A 
HETATM   10  C   UNL     1      -4.953  -4.900 -34.374  1.00  0.00     0.003 A 
HETATM   11  C   UNL     1      -6.204  -4.539 -34.873  1.00  0.00     0.002 A 
HETATM   12  C   UNL     1      -6.595  -3.196 -34.902  1.00  0.00     0.032 A 
BRANCH   8  13
HETATM   13  O   UNL     1      -3.632  -1.585 -33.498  1.00  0.00    -0.340 OA
BRANCH  13  14
HETATM   14  C   UNL     1      -3.456  -1.667 -32.070  1.00  0.00     0.293 C 
BRANCH  14  15
HETATM   15  C   UNL     1      -3.431  -0.269 -31.474  1.00  0.00     0.408 C 
HETATM   16  F   UNL     1      -2.273  -0.039 -30.813  1.00  0.00    -0.169 F 
HETATM   17  F   UNL     1      -3.562   0.682 -32.424  1.00  0.00    -0.169 F 
HETATM   18  F   UNL     1      -4.444  -0.106 -30.593  1.00  0.00    -0.169 F 
ENDBRANCH  14  15
ENDBRANCH  13  14
ENDBRANCH   8  13
ENDBRANCH   3   7
BRANCH   1  19
HETATM   19  C   UNL     1      -7.293   2.234 -32.968  1.00  0.00     0.086 A 
HETATM   20  C   UNL     1      -8.615   2.576 -33.190  1.00  0.00     0.052 A 
HETATM   21  C   UNL     1      -9.636   2.081 -34.142  1.00  0.00     0.072 C 
HETATM   22  N   UNL     1      -8.894   3.575 -32.302  1.00  0.00    -0.280 N 
HETATM   23  H   UNL     1      -9.766   4.080 -32.181  1.00  0.00     0.189 HD
HETATM   24  N   UNL     1      -7.872   3.894 -31.506  1.00  0.00    -0.177 NA
HETATM   25  C   UNL     1      -6.881   3.078 -31.894  1.00  0.00     0.079 A 
HETATM   26  C   UNL     1      -5.594   3.136 -31.155  1.00  0.00     0.075 C 
ENDBRANCH   1  19
TORSDOF 5
ENDMDL
MODEL 3
REMARK VINA RESULT:      -7.4      2.868      3.848
REMARK  5 active torsions:
REMARK  status: ('A' for Active; 'I' for Inactive)
REMARK    1  A    between atoms: C_8  and  N_9 
REMARK       I    between atoms: N_9  and  C_10 
REMARK       I    between atoms: C_10  and  N_11 
REMARK    2  A    between atoms: N_11  and  C_12 
REMARK    3  A    between atoms: C_13  and  O_14 
REMARK    4  A    between atoms: O_14  and  C_15 
REMARK    5  A    between atoms: C_15  and  C_16 
ROOT
HETATM    1  N   UNL     1      -9.309   1.943 -33.823  1.00  0.00    -0.305 N 
HETATM    2  C   UNL     1      -8.699   0.727 -33.571  1.00  0.00     0.325 C 
HETATM    3  N   UNL     1      -7.534   0.617 -34.312  1.00  0.00    -0.306 N 
HETATM    4  O   UNL     1      -9.119  -0.126 -32.802  1.00  0.00    -0.247 OA
HETATM    5  H   UNL     1      -8.710   2.677 -34.169  1.00  0.00     0.171 HD
HETATM    6  H   UNL     1      -7.427   1.253 -35.090  1.00  0.00     0.171 HD
ENDROOT
BRANCH   3   7
HETATM    7  C   UNL     1      -6.567  -0.410 -34.254  1.00  0.00     0.069 A 
HETATM    8  C   UNL     1      -5.434  -0.186 -33.451  1.00  0.00     0.095 A 
HETATM    9  C   UNL     1      -4.451  -1.166 -33.301  1.00  0.00     0.039 A 
HETATM   10  C   UNL     1      -4.575  -2.373 -33.986  1.00  0.00     0.003 A 
HETATM   11  C   UNL     1      -5.683  -2.599 -34.802  1.00  0.00     0.002 A 
HETATM   12  C   UNL     1      -6.678  -1.624 -34.932  1.00  0.00     0.032 A 
BRANCH   8  13
HETATM   13  O   UNL     1      -5.347   1.011 -32.781  1.00  0.00    -0.340 OA
BRANCH  13  14
HETATM   14  C   UNL     1      -4.911   0.823 -31.421  1.00  0.00     0.293 C 
BRANCH  14  15
HETATM   15  C   UNL     1      -6.117   0.651 -30.512  1.00  0.00     0.408 C 
HETATM   16  F   UNL     1      -5.782   0.831 -29.214  1.00  0.00    -0.169 F 
HETATM   17  F   UNL     1      -7.098   1.530 -30.813  1.00  0.00    -0.169 F 
HETATM   18  F   UNL     1      -6.634  -0.592 -30.633  1.00  0.00    -0.169 F 
ENDBRANCH  14  15
ENDBRANCH  13  14
ENDBRANCH   8  13
ENDBRANCH   3   7
BRANCH   1  19
HETATM   19  C   UNL     1     -10.562   2.342 -33.387  1.00  0.00     0.086 A 
HETATM   20  C   UNL     1     -10.741   3.058 -32.218  1.00  0.00     0.052 A 
HETATM   21  C   UNL     1      -9.799   3.548 -31.184  1.00  0.00     0.072 C 
HETATM   22  N   UNL     1     -12.084   3.279 -32.118  1.00  0.00    -0.280 N 
HETATM   23  H   UNL     1     -12.587   3.765 -31.383  1.00  0.00     0.189 HD
HETATM   24  N   UNL     1     -12.791   2.787 -33.138  1.00  0.00    -0.177 NA
HETATM   25  C   UNL     1     -11.874   2.213 -33.932  1.00  0.00     0.079 A 
HETATM   26  C   UNL     1     -12.332   1.611 -35.210  1.00  0.00     0.075 C 
ENDBRANCH   1  19
TORSDOF 5
ENDMDL
MODEL 4
REMARK VINA RESULT:      -7.4      3.019      4.376
REMARK  5 active torsions:
REMARK  status: ('A' for Active; 'I' for Inactive)
REMARK    1  A    between atoms: C_8  and  N_9 
REMARK       I    between atoms: N_9  and  C_10 
REMARK       I    between atoms: C_10  and  N_11 
REMARK    2  A    between atoms: N_11  and  C_12 
REMARK    3  A    between atoms: C_13  and  O_14 
REMARK    4  A    between atoms: O_14  and  C_15 
REMARK    5  A    between atoms: C_15  and  C_16 
ROOT
HETATM    1  N   UNL     1      -9.315   0.808 -33.367  1.00  0.00    -0.305 N 
HETATM    2  C   UNL     1      -8.301   0.240 -34.116  1.00  0.00     0.325 C 
HETATM    3  N   UNL     1      -7.656  -0.739 -33.378  1.00  0.00    -0.306 N 
HETATM    4  O   UNL     1      -8.016   0.547 -35.265  1.00  0.00    -0.247 OA
HETATM    5  H   UNL     1      -9.678   0.248 -32.613  1.00  0.00     0.171 HD
HETATM    6  H   UNL     1      -7.802  -0.726 -32.378  1.00  0.00     0.171 HD
ENDROOT
BRANCH   3   7
HETATM    7  C   UNL     1      -6.651  -1.629 -33.815  1.00  0.00     0.069 A 
HETATM    8  C   UNL     1      -5.325  -1.336 -33.448  1.00  0.00     0.095 A 
HETATM    9  C   UNL     1      -4.275  -2.187 -33.798  1.00  0.00     0.039 A 
HETATM   10  C   UNL     1      -4.538  -3.326 -34.555  1.00  0.00     0.003 A 
HETATM   11  C   UNL     1      -5.846  -3.617 -34.942  1.00  0.00     0.002 A 
HETATM   12  C   UNL     1      -6.900  -2.775 -34.570  1.00  0.00     0.032 A 
BRANCH   8  13
HETATM   13  O   UNL     1      -5.100  -0.209 -32.693  1.00  0.00    -0.340 OA
BRANCH  13  14
HETATM   14  C   UNL     1      -3.704   0.147 -32.682  1.00  0.00     0.293 C 
BRANCH  14  15
HETATM   15  C   UNL     1      -3.243   0.380 -31.252  1.00  0.00     0.408 C 
HETATM   16  F   UNL     1      -2.109  -0.307 -30.985  1.00  0.00    -0.169 F 
HETATM   17  F   UNL     1      -3.003   1.687 -31.011  1.00  0.00    -0.169 F 
HETATM   18  F   UNL     1      -4.186  -0.030 -30.373  1.00  0.00    -0.169 F 
ENDBRANCH  14  15
ENDBRANCH  13  14
ENDBRANCH   8  13
ENDBRANCH   3   7
BRANCH   1  19
HETATM   19  C   UNL     1     -10.071   1.917 -33.712  1.00  0.00     0.086 A 
HETATM   20  C   UNL     1     -11.443   1.851 -33.876  1.00  0.00     0.052 A 
HETATM   21  C   UNL     1     -12.416   0.738 -33.774  1.00  0.00     0.072 C 
HETATM   22  N   UNL     1     -11.841   3.117 -34.198  1.00  0.00    -0.280 N 
HETATM   23  H   UNL     1     -12.779   3.446 -34.400  1.00  0.00     0.189 HD
HETATM   24  N   UNL     1     -10.846   4.005 -34.233  1.00  0.00    -0.177 NA
HETATM   25  C   UNL     1      -9.751   3.290 -33.931  1.00  0.00     0.079 A 
HETATM   26  C   UNL     1      -8.454   4.005 -33.826  1.00  0.00     0.075 C 
ENDBRANCH   1  19
TORSDOF 5
ENDMDL
MODEL 5
REMARK VINA RESULT:      -7.4      1.087      2.051
REMARK  5 active torsions:
REMARK  status: ('A' for Active; 'I' for Inactive)
REMARK    1  A    between atoms: C_8  and  N_9 
REMARK       I    between atoms: N_9  and  C_10 
REMARK       I    between atoms: C_10  and  N_11 
REMARK    2  A    between atoms: N_11  and  C_12 
REMARK    3  A    between atoms: C_13  and  O_14 
REMARK    4  A    between atoms: O_14  and  C_15 
REMARK    5  A    between atoms: C_15  and  C_16 
ROOT
HETATM    1  N   UNL     1      -9.241   1.672 -34.609  1.00  0.00    -0.305 N 
HETATM    2  C   UNL     1      -8.232   1.477 -33.683  1.00  0.00     0.325 C 
HETATM    3  N   UNL     1      -7.261   0.639 -34.205  1.00  0.00    -0.306 N 
HETATM    4  O   UNL     1      -8.195   1.975 -32.567  1.00  0.00    -0.247 OA
HETATM    5  H   UNL     1      -8.992   1.521 -35.574  1.00  0.00     0.171 HD
HETATM    6  H   UNL     1      -7.519   0.093 -35.016  1.00  0.00     0.171 HD
ENDROOT
BRANCH   3   7
HETATM    7  C   UNL     1      -6.021   0.288 -33.629  1.00  0.00     0.069 A 
HETATM    8  C   UNL     1      -5.624  -1.058 -33.723  1.00  0.00     0.095 A 
HETATM    9  C   UNL     1      -4.392  -1.483 -33.221  1.00  0.00     0.039 A 
HETATM   10  C   UNL     1      -3.558  -0.567 -32.584  1.00  0.00     0.003 A 
HETATM   11  C   UNL     1      -3.950   0.766 -32.466  1.00  0.00     0.002 A 
HETATM   12  C   UNL     1      -5.174   1.194 -32.991  1.00  0.00     0.032 A 
BRANCH   8  13
HETATM   13  O   UNL     1      -6.465  -1.934 -34.366  1.00  0.00    -0.340 OA
BRANCH  13  14
HETATM   14  C   UNL     1      -5.728  -2.963 -35.056  1.00  0.00     0.293 C 
BRANCH  14  15
HETATM   15  C   UNL     1      -6.410  -4.306 -34.857  1.00  0.00     0.408 C 
HETATM   16  F   UNL     1      -7.524  -4.184 -34.100  1.00  0.00    -0.169 F 
HETATM   17  F   UNL     1      -6.769  -4.863 -36.035  1.00  0.00    -0.169 F 
HETATM   18  F   UNL     1      -5.584  -5.175 -34.232  1.00  0.00    -0.169 F 
ENDBRANCH  14  15
ENDBRANCH  13  14
ENDBRANCH   8  13
ENDBRANCH   3   7
BRANCH   1  19
HETATM   19  C   UNL     1     -10.446   2.320 -34.391  1.00  0.00     0.086 A 
HETATM   20  C   UNL     1     -11.556   1.661 -33.894  1.00  0.00     0.052 A 
HETATM   21  C   UNL     1     -11.799   0.252 -33.506  1.00  0.00     0.072 C 
HETATM   22  N   UNL     1     -12.538   2.604 -33.802  1.00  0.00    -0.280 N 
HETATM   23  H   UNL     1     -13.495   2.485 -33.486  1.00  0.00     0.189 HD
HETATM   24  N   UNL     1     -12.153   3.826 -34.176  1.00  0.00    -0.177 NA
HETATM   25  C   UNL     1     -10.869   3.675 -34.535  1.00  0.00     0.079 A 
HETATM   26  C   UNL     1     -10.111   4.881 -34.954  1.00  0.00     0.075 C 
ENDBRANCH   1  19
TORSDOF 5
ENDMDL
MODEL 6
REMARK VINA RESULT:      -7.2      3.137      4.268
REMARK  5 active torsions:
REMARK  status: ('A' for Active; 'I' for Inactive)
REMARK    1  A    between atoms: C_8  and  N_9 
REMARK       I    between atoms: N_9  and  C_10 
REMARK       I    between atoms: C_10  and  N_11 
REMARK    2  A    between atoms: N_11  and  C_12 
REMARK    3  A    between atoms: C_13  and  O_14 
REMARK    4  A    between atoms: O_14  and  C_15 
REMARK    5  A    between atoms: C_15  and  C_16 
ROOT
HETATM    1  N   UNL     1     -10.611   0.816 -33.091  1.00  0.00    -0.305 N 
HETATM    2  C   UNL     1      -9.406   0.614 -33.739  1.00  0.00     0.325 C 
HETATM    3  N   UNL     1      -8.566  -0.158 -32.954  1.00  0.00    -0.306 N 
HETATM    4  O   UNL     1      -9.121   1.045 -34.847  1.00  0.00    -0.247 OA
HETATM    5  H   UNL     1     -10.855   0.138 -32.386  1.00  0.00     0.171 HD
HETATM    6  H   UNL     1      -8.803  -0.235 -31.974  1.00  0.00     0.171 HD
ENDROOT
BRANCH   3   7
HETATM    7  C   UNL     1      -7.301  -0.683 -33.297  1.00  0.00     0.069 A 
HETATM    8  C   UNL     1      -6.174  -0.099 -32.693  1.00  0.00     0.095 A 
HETATM    9  C   UNL     1      -4.889  -0.586 -32.941  1.00  0.00     0.039 A 
HETATM   10  C   UNL     1      -4.716  -1.645 -33.829  1.00  0.00     0.003 A 
HETATM   11  C   UNL     1      -5.824  -2.220 -34.450  1.00  0.00     0.002 A 
HETATM   12  C   UNL     1      -7.113  -1.745 -34.181  1.00  0.00     0.032 A 
BRANCH   8  13
HETATM   13  O   UNL     1      -6.379   0.939 -31.815  1.00  0.00    -0.340 OA
BRANCH  13  14
HETATM   14  C   UNL     1      -5.577   2.086 -32.158  1.00  0.00     0.293 C 
BRANCH  14  15
HETATM   15  C   UNL     1      -6.378   3.029 -33.040  1.00  0.00     0.408 C 
HETATM   16  F   UNL     1      -7.663   3.117 -32.625  1.00  0.00    -0.169 F 
HETATM   17  F   UNL     1      -5.856   4.275 -33.042  1.00  0.00    -0.169 F 
HETATM   18  F   UNL     1      -6.391   2.592 -34.320  1.00  0.00    -0.169 F 
ENDBRANCH  14  15
ENDBRANCH  13  14
ENDBRANCH   8  13
ENDBRANCH   3   7
BRANCH   1  19
HETATM   19  C   UNL     1     -11.632   1.660 -33.495  1.00  0.00     0.086 A 
HETATM   20  C   UNL     1     -12.912   1.200 -33.744  1.00  0.00     0.052 A 
HETATM   21  C   UNL     1     -13.525  -0.148 -33.691  1.00  0.00     0.072 C 
HETATM   22  N   UNL     1     -13.639   2.299 -34.105  1.00  0.00    -0.280 N 
HETATM   23  H   UNL     1     -14.617   2.344 -34.369  1.00  0.00     0.189 HD
HETATM   24  N   UNL     1     -12.943   3.438 -34.088  1.00  0.00    -0.177 NA
HETATM   25  C   UNL     1     -11.710   3.069 -33.709  1.00  0.00     0.079 A 
HETATM   26  C   UNL     1     -10.685   4.129 -33.531  1.00  0.00     0.075 C 
ENDBRANCH   1  19
TORSDOF 5
ENDMDL
MODEL 7
REMARK VINA RESULT:      -7.2      3.036      4.071
REMARK  5 active torsions:
REMARK  status: ('A' for Active; 'I' for Inactive)
REMARK    1  A    between atoms: C_8  and  N_9 
REMARK       I    between atoms: N_9  and  C_10 
REMARK       I    between atoms: C_10  and  N_11 
REMARK    2  A    between atoms: N_11  and  C_12 
REMARK    3  A    between atoms: C_13  and  O_14 
REMARK    4  A    between atoms: O_14  and  C_15 
REMARK    5  A    between atoms: C_15  and  C_16 
ROOT
HETATM    1  N   UNL     1      -9.188   2.234 -33.418  1.00  0.00    -0.305 N 
HETATM    2  C   UNL     1      -8.630   0.983 -33.227  1.00  0.00     0.325 C 
HETATM    3  N   UNL     1      -7.544   0.812 -34.068  1.00  0.00    -0.306 N 
HETATM    4  O   UNL     1      -9.029   0.149 -32.427  1.00  0.00    -0.247 OA
HETATM    5  H   UNL     1      -8.581   2.935 -33.812  1.00  0.00     0.171 HD
HETATM    6  H   UNL     1      -7.469   1.449 -34.850  1.00  0.00     0.171 HD
ENDROOT
BRANCH   3   7
HETATM    7  C   UNL     1      -6.637  -0.269 -34.101  1.00  0.00     0.069 A 
HETATM    8  C   UNL     1      -5.474  -0.160 -33.318  1.00  0.00     0.095 A 
HETATM    9  C   UNL     1      -4.546  -1.201 -33.256  1.00  0.00     0.039 A 
HETATM   10  C   UNL     1      -4.756  -2.353 -34.010  1.00  0.00     0.003 A 
HETATM   11  C   UNL     1      -5.895  -2.465 -34.807  1.00  0.00     0.002 A 
HETATM   12  C   UNL     1      -6.835  -1.430 -34.848  1.00  0.00     0.032 A 
BRANCH   8  13
HETATM   13  O   UNL     1      -5.300   0.986 -32.578  1.00  0.00    -0.340 OA
BRANCH  13  14
HETATM   14  C   UNL     1      -4.841   0.688 -31.245  1.00  0.00     0.293 C 
BRANCH  14  15
HETATM   15  C   UNL     1      -6.029   0.575 -30.305  1.00  0.00     0.408 C 
HETATM   16  F   UNL     1      -5.634   0.596 -29.011  1.00  0.00    -0.169 F 
HETATM   17  F   UNL     1      -6.908   1.586 -30.486  1.00  0.00    -0.169 F 
HETATM   18  F   UNL     1      -6.695  -0.584 -30.510  1.00  0.00    -0.169 F 
ENDBRANCH  14  15
ENDBRANCH  13  14
ENDBRANCH   8  13
ENDBRANCH   3   7
BRANCH   1  19
HETATM   19  C   UNL     1     -10.372   2.700 -32.871  1.00  0.00     0.086 A 
HETATM   20  C   UNL     1     -11.607   2.370 -33.398  1.00  0.00     0.052 A 
HETATM   21  C   UNL     1     -12.017   1.548 -34.561  1.00  0.00     0.072 C 
HETATM   22  N   UNL     1     -12.529   2.992 -32.606  1.00  0.00    -0.280 N 
HETATM   23  H   UNL     1     -13.540   2.984 -32.695  1.00  0.00     0.189 HD
HETATM   24  N   UNL     1     -11.997   3.679 -31.593  1.00  0.00    -0.177 NA
HETATM   25  C   UNL     1     -10.674   3.508 -31.734  1.00  0.00     0.079 A 
HETATM   26  C   UNL     1      -9.777   4.108 -30.714  1.00  0.00     0.075 C 
ENDBRANCH   1  19
TORSDOF 5
ENDMDL
MODEL 8
REMARK VINA RESULT:      -7.2      4.272      6.953
REMARK  5 active torsions:
REMARK  status: ('A' for Active; 'I' for Inactive)
REMARK    1  A    between atoms: C_8  and  N_9 
REMARK       I    between atoms: N_9  and  C_10 
REMARK       I    between atoms: C_10  and  N_11 
REMARK    2  A    between atoms: N_11  and  C_12 
REMARK    3  A    between atoms: C_13  and  O_14 
REMARK    4  A    between atoms: O_14  and  C_15 
REMARK    5  A    between atoms: C_15  and  C_16 
ROOT
HETATM    1  N   UNL     1      -4.353  -1.794 -33.810  1.00  0.00    -0.305 N 
HETATM    2  C   UNL     1      -4.930  -0.983 -32.850  1.00  0.00     0.325 C 
HETATM    3  N   UNL     1      -4.531   0.330 -33.033  1.00  0.00    -0.306 N 
HETATM    4  O   UNL     1      -5.689  -1.364 -31.969  1.00  0.00    -0.247 OA
HETATM    5  H   UNL     1      -4.062  -1.338 -34.659  1.00  0.00     0.171 HD
HETATM    6  H   UNL     1      -3.718   0.482 -33.614  1.00  0.00     0.171 HD
ENDROOT
BRANCH   3   7
HETATM    7  C   UNL     1      -4.984   1.476 -32.343  1.00  0.00     0.069 A 
HETATM    8  C   UNL     1      -5.995   2.239 -32.954  1.00  0.00     0.095 A 
HETATM    9  C   UNL     1      -6.533   3.361 -32.321  1.00  0.00     0.039 A 
HETATM   10  C   UNL     1      -6.036   3.754 -31.081  1.00  0.00     0.003 A 
HETATM   11  C   UNL     1      -5.019   3.018 -30.475  1.00  0.00     0.002 A 
HETATM   12  C   UNL     1      -4.498   1.879 -31.100  1.00  0.00     0.032 A 
BRANCH   8  13
HETATM   13  O   UNL     1      -6.471   1.819 -34.174  1.00  0.00    -0.340 OA
BRANCH  13  14
HETATM   14  C   UNL     1      -7.905   1.932 -34.247  1.00  0.00     0.293 C 
BRANCH  14  15
HETATM   15  C   UNL     1      -8.521   0.555 -34.432  1.00  0.00     0.408 C 
HETATM   16  F   UNL     1      -8.200  -0.268 -33.407  1.00  0.00    -0.169 F 
HETATM   17  F   UNL     1      -9.869   0.616 -34.508  1.00  0.00    -0.169 F 
HETATM   18  F   UNL     1      -8.075  -0.020 -35.572  1.00  0.00    -0.169 F 
ENDBRANCH  14  15
ENDBRANCH  13  14
ENDBRANCH   8  13
ENDBRANCH   3   7
BRANCH   1  19
HETATM   19  C   UNL     1      -4.395  -3.178 -33.852  1.00  0.00     0.086 A 
HETATM   20  C   UNL     1      -3.640  -3.965 -33.001  1.00  0.00     0.052 A 
HETATM   21  C   UNL     1      -2.665  -3.642 -31.933  1.00  0.00     0.072 C 
HETATM   22  N   UNL     1      -3.943  -5.257 -33.321  1.00  0.00    -0.280 N 
HETATM   23  H   UNL     1      -3.573  -6.108 -32.911  1.00  0.00     0.189 HD
HETATM   24  N   UNL     1      -4.850  -5.376 -34.293  1.00  0.00    -0.177 NA
HETATM   25  C   UNL     1      -5.145  -4.111 -34.629  1.00  0.00     0.079 A 
HETATM   26  C   UNL     1      -6.187  -3.885 -35.663  1.00  0.00     0.075 C 
ENDBRANCH   1  19
TORSDOF 5
ENDMDL
MODEL 9
REMARK VINA RESULT:      -6.9      3.551      7.134
REMARK  5 active torsions:
REMARK  status: ('A' for Active; 'I' for Inactive)
REMARK    1  A    between atoms: C_8  and  N_9 
REMARK       I    between atoms: N_9  and  C_10 
REMARK       I    between atoms: C_10  and  N_11 
REMARK    2  A    between atoms: N_11  and  C_12 
REMARK    3  A    between atoms: C_13  and  O_14 
REMARK    4  A    between atoms: O_14  and  C_15 
REMARK    5  A    between atoms: C_15  and  C_16 
ROOT
HETATM    1  N   UNL     1      -6.667  -1.365 -34.783  1.00  0.00    -0.305 N 
HETATM    2  C   UNL     1      -7.410  -0.574 -33.925  1.00  0.00     0.325 C 
HETATM    3  N   UNL     1      -8.180   0.321 -34.649  1.00  0.00    -0.306 N 
HETATM    4  O   UNL     1      -7.397  -0.654 -32.705  1.00  0.00    -0.247 OA
HETATM    5  H   UNL     1      -7.022  -1.456 -35.722  1.00  0.00     0.171 HD
HETATM    6  H   UNL     1      -7.919   0.469 -35.614  1.00  0.00     0.171 HD
ENDROOT
BRANCH   3   7
HETATM    7  C   UNL     1      -9.157   1.215 -34.159  1.00  0.00     0.069 A 
HETATM    8  C   UNL     1      -8.760   2.545 -33.936  1.00  0.00     0.095 A 
HETATM    9  C   UNL     1      -9.672   3.506 -33.495  1.00  0.00     0.039 A 
HETATM   10  C   UNL     1     -10.990   3.134 -33.237  1.00  0.00     0.003 A 
HETATM   11  C   UNL     1     -11.390   1.813 -33.435  1.00  0.00     0.002 A 
HETATM   12  C   UNL     1     -10.479   0.857 -33.899  1.00  0.00     0.032 A 
BRANCH   8  13
HETATM   13  O   UNL     1      -7.455   2.883 -34.209  1.00  0.00    -0.340 OA
BRANCH  13  14
HETATM   14  C   UNL     1      -6.876   3.657 -33.140  1.00  0.00     0.293 C 
BRANCH  14  15
HETATM   15  C   UNL     1      -5.979   2.772 -32.291  1.00  0.00     0.408 C 
HETATM   16  F   UNL     1      -5.043   3.502 -31.642  1.00  0.00    -0.169 F 
HETATM   17  F   UNL     1      -6.685   2.087 -31.365  1.00  0.00    -0.169 F 
HETATM   18  F   UNL     1      -5.331   1.868 -33.060  1.00  0.00    -0.169 F 
ENDBRANCH  14  15
ENDBRANCH  13  14
ENDBRANCH   8  13
ENDBRANCH   3   7
BRANCH   1  19
HETATM   19  C   UNL     1      -5.673  -2.261 -34.425  1.00  0.00     0.086 A 
HETATM   20  C   UNL     1      -5.743  -3.605 -34.746  1.00  0.00     0.052 A 
HETATM   21  C   UNL     1      -6.759  -4.419 -35.454  1.00  0.00     0.072 C 
HETATM   22  N   UNL     1      -4.602  -4.166 -34.249  1.00  0.00    -0.280 N 
HETATM   23  H   UNL     1      -4.313  -5.138 -34.287  1.00  0.00     0.189 HD
HETATM   24  N   UNL     1      -3.785  -3.295 -33.653  1.00  0.00    -0.177 NA
HETATM   25  C   UNL     1      -4.421  -2.118 -33.756  1.00  0.00     0.079 A 
HETATM   26  C   UNL     1      -3.741  -0.905 -33.234  1.00  0.00     0.075 C 
ENDBRANCH   1  19
TORSDOF 5
ENDMDL
MODEL 10
REMARK VINA RESULT:      -6.8     14.028     15.808
REMARK  5 active torsions:
REMARK  status: ('A' for Active; 'I' for Inactive)
REMARK    1  A    between atoms: C_8  and  N_9 
REMARK       I    between atoms: N_9  and  C_10 
REMARK       I    between atoms: C_10  and  N_11 
REMARK    2  A    between atoms: N_11  and  C_12 
REMARK    3  A    between atoms: C_13  and  O_14 
REMARK    4  A    between atoms: O_14  and  C_15 
REMARK    5  A    between atoms: C_15  and  C_16 
ROOT
HETATM    1  N   UNL     1      -5.405 -14.278 -34.912  1.00  0.00    -0.305 N 
HETATM    2  C   UNL     1      -5.690 -14.368 -36.263  1.00  0.00     0.325 C 
HETATM    3  N   UNL     1      -6.078 -13.132 -36.751  1.00  0.00    -0.306 N 
HETATM    4  O   UNL     1      -5.606 -15.387 -36.934  1.00  0.00    -0.247 OA
HETATM    5  H   UNL     1      -5.163 -13.361 -34.570  1.00  0.00     0.171 HD
HETATM    6  H   UNL     1      -6.357 -12.440 -36.069  1.00  0.00     0.171 HD
ENDROOT
BRANCH   3   7
HETATM    7  C   UNL     1      -6.338 -12.775 -38.092  1.00  0.00     0.069 A 
HETATM    8  C   UNL     1      -5.269 -12.250 -38.839  1.00  0.00     0.095 A 
HETATM    9  C   UNL     1      -5.427 -11.913 -40.185  1.00  0.00     0.039 A 
HETATM   10  C   UNL     1      -6.673 -12.065 -40.789  1.00  0.00     0.003 A 
HETATM   11  C   UNL     1      -7.746 -12.564 -40.053  1.00  0.00     0.002 A 
HETATM   12  C   UNL     1      -7.579 -12.924 -38.711  1.00  0.00     0.032 A 
BRANCH   8  13
HETATM   13  O   UNL     1      -4.050 -12.121 -38.217  1.00  0.00    -0.340 OA
BRANCH  13  14
HETATM   14  C   UNL     1      -3.097 -13.076 -38.722  1.00  0.00     0.293 C 
BRANCH  14  15
HETATM   15  C   UNL     1      -1.684 -12.570 -38.484  1.00  0.00     0.408 C 
HETATM   16  F   UNL     1      -0.847 -12.970 -39.468  1.00  0.00    -0.169 F 
HETATM   17  F   UNL     1      -1.640 -11.221 -38.427  1.00  0.00    -0.169 F 
HETATM   18  F   UNL     1      -1.196 -13.043 -37.315  1.00  0.00    -0.169 F 
ENDBRANCH  14  15
ENDBRANCH  13  14
ENDBRANCH   8  13
ENDBRANCH   3   7
BRANCH   1  19
HETATM   19  C   UNL     1      -5.137 -15.332 -34.055  1.00  0.00     0.086 A 
HETATM   20  C   UNL     1      -6.105 -15.872 -33.227  1.00  0.00     0.052 A 
HETATM   21  C   UNL     1      -7.531 -15.543 -32.998  1.00  0.00     0.072 C 
HETATM   22  N   UNL     1      -5.490 -16.883 -32.546  1.00  0.00    -0.280 N 
HETATM   23  H   UNL     1      -5.887 -17.498 -31.843  1.00  0.00     0.189 HD
HETATM   24  N   UNL     1      -4.209 -17.061 -32.879  1.00  0.00    -0.177 NA
HETATM   25  C   UNL     1      -3.975 -16.123 -33.809  1.00  0.00     0.079 A 
HETATM   26  C   UNL     1      -2.633 -16.084 -34.443  1.00  0.00     0.075 C 
ENDBRANCH   1  19
TORSDOF 5
ENDMDL
