MODEL 1
REMARK VINA RESULT:      -8.2      0.000      0.000
REMARK  3 active torsions:
REMARK  status: ('A' for Active; 'I' for Inactive)
REMARK    1  A    between atoms: C_9  and  C_10 
REMARK    2  A    between atoms: C_16  and  C_17 
REMARK       I    between atoms: C_17  and  N_18 
REMARK    3  A    between atoms: N_18  and  C_19 
ROOT
HETATM    1  C   UNL     1      -3.561   1.979 -32.287  1.00  0.00     0.070 C 
HETATM    2  C   UNL     1      -4.971   2.344 -31.897  1.00  0.00     0.037 C 
HETATM    3  N   UNL     1      -5.181   3.684 -31.586  1.00  0.00    -0.191 N 
HETATM    4  C   UNL     1      -6.311   4.128 -30.996  1.00  0.00     0.735 A 
HETATM    5  N   UNL     1      -7.357   3.267 -30.817  1.00  0.00    -0.092 N 
HETATM    6  N   UNL     1      -8.348   3.875 -30.147  1.00  0.00     0.012 NA
HETATM    7  N   UNL     1      -7.915   5.119 -29.967  1.00  0.00     0.033 NA
HETATM    8  N   UNL     1      -6.646   5.289 -30.491  1.00  0.00     0.030 NA
HETATM    9  C   UNL     1      -7.364   1.869 -31.245  1.00  0.00     0.198 C 
HETATM   10  C   UNL     1      -5.992   1.457 -31.770  1.00  0.00     0.062 C 
HETATM   11  H   UNL     1      -4.372   4.302 -31.602  1.00  0.00     0.184 HD
ENDROOT
BRANCH  10  12
HETATM   12  C   UNL     1      -5.855  -0.006 -32.007  1.00  0.00     0.257 C 
HETATM   13  N   UNL     1      -5.917  -0.341 -33.339  1.00  0.00    -0.308 N 
HETATM   14  H   UNL     1      -6.085   0.394 -34.009  1.00  0.00     0.170 HD
HETATM   15  O   UNL     1      -5.750  -0.739 -31.033  1.00  0.00    -0.267 OA
BRANCH  13  16
HETATM   16  C   UNL     1      -5.762  -1.634 -33.855  1.00  0.00     0.129 A 
HETATM   17  N   UNL     1      -4.547  -2.199 -33.943  1.00  0.00    -0.243 NA
HETATM   18  C   UNL     1      -4.460  -3.442 -34.461  1.00  0.00     0.119 A 
HETATM   19  C   UNL     1      -5.547  -4.162 -34.919  1.00  0.00     0.019 A 
HETATM   20  C   UNL     1      -6.800  -3.570 -34.833  1.00  0.00     0.005 A 
HETATM   21  C   UNL     1      -6.911  -2.290 -34.289  1.00  0.00     0.050 A 
ENDBRANCH  13  16
ENDBRANCH  10  12
BRANCH   9  22
HETATM   22  C   UNL     1      -8.466   1.634 -32.274  1.00  0.00    -0.029 A 
HETATM   23  C   UNL     1      -9.379   0.570 -32.159  1.00  0.00     0.009 A 
HETATM   24  C   UNL     1     -10.375   0.382 -33.119  1.00  0.00     0.001 A 
HETATM   25  C   UNL     1     -10.479   1.255 -34.199  1.00  0.00     0.000 A 
HETATM   26  C   UNL     1      -9.593   2.323 -34.319  1.00  0.00     0.001 A 
HETATM   27  C   UNL     1      -8.596   2.515 -33.362  1.00  0.00     0.009 A 
ENDBRANCH   9  22
TORSDOF 3
ENDMDL
MODEL 2
REMARK VINA RESULT:      -8.0      3.416      6.025
REMARK  3 active torsions:
REMARK  status: ('A' for Active; 'I' for Inactive)
REMARK    1  A    between atoms: C_9  and  C_10 
REMARK    2  A    between atoms: C_16  and  C_17 
REMARK       I    between atoms: C_17  and  N_18 
REMARK    3  A    between atoms: N_18  and  C_19 
ROOT
HETATM    1  C   UNL     1      -9.765   5.081 -35.043  1.00  0.00     0.070 C 
HETATM    2  C   UNL     1      -9.904   3.663 -34.548  1.00  0.00     0.037 C 
HETATM    3  N   UNL     1     -11.066   3.002 -34.933  1.00  0.00    -0.191 N 
HETATM    4  C   UNL     1     -11.455   1.830 -34.390  1.00  0.00     0.735 A 
HETATM    5  N   UNL     1     -10.617   1.181 -33.526  1.00  0.00    -0.092 N 
HETATM    6  N   UNL     1     -11.215   0.083 -33.036  1.00  0.00     0.012 NA
HETATM    7  N   UNL     1     -12.395   0.047 -33.647  1.00  0.00     0.033 NA
HETATM    8  N   UNL     1     -12.557   1.130 -34.491  1.00  0.00     0.030 NA
HETATM    9  C   UNL     1      -9.286   1.654 -33.149  1.00  0.00     0.198 C 
HETATM   10  C   UNL     1      -9.023   3.044 -33.720  1.00  0.00     0.062 C 
HETATM   11  H   UNL     1     -11.747   3.529 -35.477  1.00  0.00     0.184 HD
ENDROOT
BRANCH  10  12
HETATM   12  C   UNL     1      -7.790   3.687 -33.191  1.00  0.00     0.257 C 
HETATM   13  N   UNL     1      -6.703   3.522 -34.017  1.00  0.00    -0.308 N 
HETATM   14  H   UNL     1      -6.819   2.968 -34.853  1.00  0.00     0.170 HD
HETATM   15  O   UNL     1      -7.850   4.236 -32.099  1.00  0.00    -0.267 OA
BRANCH  13  16
HETATM   16  C   UNL     1      -5.431   4.066 -33.798  1.00  0.00     0.129 A 
HETATM   17  N   UNL     1      -5.028   5.161 -34.461  1.00  0.00    -0.243 NA
HETATM   18  C   UNL     1      -3.786   5.631 -34.217  1.00  0.00     0.119 A 
HETATM   19  C   UNL     1      -2.901   5.042 -33.334  1.00  0.00     0.019 A 
HETATM   20  C   UNL     1      -3.320   3.905 -32.657  1.00  0.00     0.005 A 
HETATM   21  C   UNL     1      -4.605   3.411 -32.887  1.00  0.00     0.050 A 
ENDBRANCH  13  16
ENDBRANCH  10  12
BRANCH   9  22
HETATM   22  C   UNL     1      -8.223   0.647 -33.579  1.00  0.00    -0.029 A 
HETATM   23  C   UNL     1      -8.016   0.314 -34.931  1.00  0.00     0.009 A 
HETATM   24  C   UNL     1      -7.036  -0.613 -35.291  1.00  0.00     0.001 A 
HETATM   25  C   UNL     1      -6.247  -1.213 -34.312  1.00  0.00     0.000 A 
HETATM   26  C   UNL     1      -6.429  -0.882 -32.972  1.00  0.00     0.001 A 
HETATM   27  C   UNL     1      -7.407   0.044 -32.607  1.00  0.00     0.009 A 
ENDBRANCH   9  22
TORSDOF 3
ENDMDL
MODEL 3
REMARK VINA RESULT:      -7.9      2.149      4.009
REMARK  3 active torsions:
REMARK  status: ('A' for Active; 'I' for Inactive)
REMARK    1  A    between atoms: C_9  and  C_10 
REMARK    2  A    between atoms: C_16  and  C_17 
REMARK       I    between atoms: C_17  and  N_18 
REMARK    3  A    between atoms: N_18  and  C_19 
ROOT
HETATM    1  C   UNL     1     -10.556   0.133 -33.088  1.00  0.00     0.070 C 
HETATM    2  C   UNL     1      -9.707   1.375 -33.205  1.00  0.00     0.037 C 
HETATM    3  N   UNL     1     -10.398   2.552 -33.478  1.00  0.00    -0.191 N 
HETATM    4  C   UNL     1      -9.780   3.693 -33.844  1.00  0.00     0.735 A 
HETATM    5  N   UNL     1      -8.415   3.755 -33.817  1.00  0.00    -0.092 N 
HETATM    6  N   UNL     1      -7.994   4.939 -34.290  1.00  0.00     0.012 NA
HETATM    7  N   UNL     1      -9.112   5.607 -34.556  1.00  0.00     0.033 NA
HETATM    8  N   UNL     1     -10.231   4.842 -34.284  1.00  0.00     0.030 NA
HETATM    9  C   UNL     1      -7.543   2.662 -33.388  1.00  0.00     0.198 C 
HETATM   10  C   UNL     1      -8.352   1.394 -33.131  1.00  0.00     0.062 C 
HETATM   11  H   UNL     1     -11.405   2.483 -33.619  1.00  0.00     0.184 HD
ENDROOT
BRANCH  10  12
HETATM   12  C   UNL     1      -7.515   0.182 -32.918  1.00  0.00     0.257 C 
HETATM   13  N   UNL     1      -7.175  -0.447 -34.092  1.00  0.00    -0.308 N 
HETATM   14  H   UNL     1      -7.539  -0.075 -34.956  1.00  0.00     0.170 HD
HETATM   15  O   UNL     1      -7.261  -0.147 -31.767  1.00  0.00    -0.267 OA
BRANCH  13  16
HETATM   16  C   UNL     1      -6.351  -1.575 -34.195  1.00  0.00     0.129 A 
HETATM   17  N   UNL     1      -5.041  -1.499 -33.912  1.00  0.00    -0.243 NA
HETATM   18  C   UNL     1      -4.295  -2.616 -34.042  1.00  0.00     0.119 A 
HETATM   19  C   UNL     1      -4.800  -3.832 -34.464  1.00  0.00     0.019 A 
HETATM   20  C   UNL     1      -6.154  -3.904 -34.763  1.00  0.00     0.005 A 
HETATM   21  C   UNL     1      -6.943  -2.762 -34.623  1.00  0.00     0.050 A 
ENDBRANCH  13  16
ENDBRANCH  10  12
BRANCH   9  22
HETATM   22  C   UNL     1      -6.728   3.080 -32.167  1.00  0.00    -0.029 A 
HETATM   23  C   UNL     1      -5.324   3.160 -32.201  1.00  0.00     0.009 A 
HETATM   24  C   UNL     1      -4.608   3.544 -31.065  1.00  0.00     0.001 A 
HETATM   25  C   UNL     1      -5.282   3.862 -29.888  1.00  0.00     0.000 A 
HETATM   26  C   UNL     1      -6.672   3.803 -29.844  1.00  0.00     0.001 A 
HETATM   27  C   UNL     1      -7.392   3.419 -30.976  1.00  0.00     0.009 A 
ENDBRANCH   9  22
TORSDOF 3
ENDMDL
MODEL 4
REMARK VINA RESULT:      -7.8      2.599      5.569
REMARK  3 active torsions:
REMARK  status: ('A' for Active; 'I' for Inactive)
REMARK    1  A    between atoms: C_9  and  C_10 
REMARK    2  A    between atoms: C_16  and  C_17 
REMARK       I    between atoms: C_17  and  N_18 
REMARK    3  A    between atoms: N_18  and  C_19 
ROOT
HETATM    1  C   UNL     1      -8.370   4.520 -30.084  1.00  0.00     0.070 C 
HETATM    2  C   UNL     1      -7.606   4.224 -31.351  1.00  0.00     0.037 C 
HETATM    3  N   UNL     1      -6.449   4.973 -31.544  1.00  0.00    -0.191 N 
HETATM    4  C   UNL     1      -5.786   5.004 -32.718  1.00  0.00     0.735 A 
HETATM    5  N   UNL     1      -6.171   4.166 -33.727  1.00  0.00    -0.092 N 
HETATM    6  N   UNL     1      -5.445   4.404 -34.831  1.00  0.00     0.012 NA
HETATM    7  N   UNL     1      -4.589   5.355 -34.467  1.00  0.00     0.033 NA
HETATM    8  N   UNL     1      -4.792   5.738 -33.154  1.00  0.00     0.030 NA
HETATM    9  C   UNL     1      -7.257   3.193 -33.629  1.00  0.00     0.198 C 
HETATM   10  C   UNL     1      -8.007   3.351 -32.309  1.00  0.00     0.062 C 
HETATM   11  H   UNL     1      -6.229   5.684 -30.848  1.00  0.00     0.184 HD
ENDROOT
BRANCH  10  12
HETATM   12  C   UNL     1      -9.264   2.557 -32.235  1.00  0.00     0.257 C 
HETATM   13  N   UNL     1     -10.263   3.060 -33.036  1.00  0.00    -0.308 N 
HETATM   14  H   UNL     1     -10.081   3.909 -33.549  1.00  0.00     0.170 HD
HETATM   15  O   UNL     1      -9.299   1.604 -31.468  1.00  0.00    -0.267 OA
BRANCH  13  16
HETATM   16  C   UNL     1     -11.529   2.485 -33.205  1.00  0.00     0.129 A 
HETATM   17  N   UNL     1     -12.626   3.079 -32.708  1.00  0.00    -0.243 NA
HETATM   18  C   UNL     1     -13.817   2.470 -32.892  1.00  0.00     0.119 A 
HETATM   19  C   UNL     1     -13.970   1.264 -33.550  1.00  0.00     0.019 A 
HETATM   20  C   UNL     1     -12.832   0.651 -34.055  1.00  0.00     0.005 A 
HETATM   21  C   UNL     1     -11.593   1.271 -33.885  1.00  0.00     0.050 A 
ENDBRANCH  13  16
ENDBRANCH  10  12
BRANCH   9  22
HETATM   22  C   UNL     1      -6.721   1.776 -33.817  1.00  0.00    -0.029 A 
HETATM   23  C   UNL     1      -5.720   1.242 -32.985  1.00  0.00     0.009 A 
HETATM   24  C   UNL     1      -5.249  -0.057 -33.186  1.00  0.00     0.001 A 
HETATM   25  C   UNL     1      -5.775  -0.841 -34.211  1.00  0.00     0.000 A 
HETATM   26  C   UNL     1      -6.777  -0.332 -35.032  1.00  0.00     0.001 A 
HETATM   27  C   UNL     1      -7.251   0.966 -34.836  1.00  0.00     0.009 A 
ENDBRANCH   9  22
TORSDOF 3
ENDMDL
MODEL 5
REMARK VINA RESULT:      -7.6      3.098      6.184
REMARK  3 active torsions:
REMARK  status: ('A' for Active; 'I' for Inactive)
REMARK    1  A    between atoms: C_9  and  C_10 
REMARK    2  A    between atoms: C_16  and  C_17 
REMARK       I    between atoms: C_17  and  N_18 
REMARK    3  A    between atoms: N_18  and  C_19 
ROOT
HETATM    1  C   UNL     1      -3.003  -0.042 -31.224  1.00  0.00     0.070 C 
HETATM    2  C   UNL     1      -4.203   0.317 -32.065  1.00  0.00     0.037 C 
HETATM    3  N   UNL     1      -4.887  -0.757 -32.626  1.00  0.00    -0.191 N 
HETATM    4  C   UNL     1      -5.825  -0.606 -33.584  1.00  0.00     0.735 A 
HETATM    5  N   UNL     1      -6.232   0.652 -33.931  1.00  0.00    -0.092 N 
HETATM    6  N   UNL     1      -7.105   0.593 -34.949  1.00  0.00     0.012 NA
HETATM    7  N   UNL     1      -7.258  -0.707 -35.182  1.00  0.00     0.033 NA
HETATM    8  N   UNL     1      -6.465  -1.465 -34.339  1.00  0.00     0.030 NA
HETATM    9  C   UNL     1      -5.740   1.883 -33.315  1.00  0.00     0.198 C 
HETATM   10  C   UNL     1      -4.595   1.585 -32.350  1.00  0.00     0.062 C 
HETATM   11  H   UNL     1      -4.509  -1.689 -32.466  1.00  0.00     0.184 HD
ENDROOT
BRANCH  10  12
HETATM   12  C   UNL     1      -3.890   2.801 -31.863  1.00  0.00     0.257 C 
HETATM   13  N   UNL     1      -2.903   3.228 -32.720  1.00  0.00    -0.308 N 
HETATM   14  H   UNL     1      -2.721   2.682 -33.548  1.00  0.00     0.170 HD
HETATM   15  O   UNL     1      -4.212   3.256 -30.773  1.00  0.00    -0.267 OA
BRANCH  13  16
HETATM   16  C   UNL     1      -2.119   4.375 -32.543  1.00  0.00     0.129 A 
HETATM   17  N   UNL     1      -1.253   4.465 -31.521  1.00  0.00    -0.243 NA
HETATM   18  C   UNL     1      -0.534   5.601 -31.395  1.00  0.00     0.119 A 
HETATM   19  C   UNL     1      -0.649   6.682 -32.249  1.00  0.00     0.019 A 
HETATM   20  C   UNL     1      -1.552   6.587 -33.298  1.00  0.00     0.005 A 
HETATM   21  C   UNL     1      -2.294   5.416 -33.452  1.00  0.00     0.050 A 
ENDBRANCH  13  16
ENDBRANCH  10  12
BRANCH   9  22
HETATM   22  C   UNL     1      -6.883   2.631 -32.634  1.00  0.00    -0.029 A 
HETATM   23  C   UNL     1      -7.274   3.920 -33.039  1.00  0.00     0.009 A 
HETATM   24  C   UNL     1      -8.324   4.578 -32.394  1.00  0.00     0.001 A 
HETATM   25  C   UNL     1      -9.000   3.957 -31.346  1.00  0.00     0.000 A 
HETATM   26  C   UNL     1      -8.634   2.675 -30.945  1.00  0.00     0.001 A 
HETATM   27  C   UNL     1      -7.586   2.013 -31.586  1.00  0.00     0.009 A 
ENDBRANCH   9  22
TORSDOF 3
ENDMDL
MODEL 6
REMARK VINA RESULT:      -7.5     15.355     18.332
REMARK  3 active torsions:
REMARK  status: ('A' for Active; 'I' for Inactive)
REMARK    1  A    between atoms: C_9  and  C_10 
REMARK    2  A    between atoms: C_16  and  C_17 
REMARK       I    between atoms: C_17  and  N_18 
REMARK    3  A    between atoms: N_18  and  C_19 
ROOT
HETATM    1  C   UNL     1      -1.625 -14.620 -35.694  1.00  0.00     0.070 C 
HETATM    2  C   UNL     1      -0.937 -14.769 -37.028  1.00  0.00     0.037 C 
HETATM    3  N   UNL     1       0.241 -15.511 -37.017  1.00  0.00    -0.191 N 
HETATM    4  C   UNL     1       1.094 -15.541 -38.062  1.00  0.00     0.735 A 
HETATM    5  N   UNL     1       0.738 -14.939 -39.236  1.00  0.00    -0.092 N 
HETATM    6  N   UNL     1       1.748 -15.010 -40.118  1.00  0.00     0.012 NA
HETATM    7  N   UNL     1       2.693 -15.699 -39.487  1.00  0.00     0.033 NA
HETATM    8  N   UNL     1       2.299 -16.035 -38.205  1.00  0.00     0.030 NA
HETATM    9  C   UNL     1      -0.539 -14.266 -39.469  1.00  0.00     0.198 C 
HETATM   10  C   UNL     1      -1.351 -14.184 -38.180  1.00  0.00     0.062 C 
HETATM   11  H   UNL     1       0.570 -15.856 -36.117  1.00  0.00     0.184 HD
ENDROOT
BRANCH  10  12
HETATM   12  C   UNL     1      -2.553 -13.313 -38.283  1.00  0.00     0.257 C 
HETATM   13  N   UNL     1      -3.705 -14.019 -38.541  1.00  0.00    -0.308 N 
HETATM   14  H   UNL     1      -3.634 -15.016 -38.674  1.00  0.00     0.170 HD
HETATM   15  O   UNL     1      -2.399 -12.104 -38.178  1.00  0.00    -0.267 OA
BRANCH  13  16
HETATM   16  C   UNL     1      -4.988 -13.465 -38.633  1.00  0.00     0.129 A 
HETATM   17  N   UNL     1      -5.845 -13.540 -37.602  1.00  0.00    -0.243 NA
HETATM   18  C   UNL     1      -7.073 -12.999 -37.755  1.00  0.00     0.119 A 
HETATM   19  C   UNL     1      -7.503 -12.385 -38.916  1.00  0.00     0.019 A 
HETATM   20  C   UNL     1      -6.616 -12.318 -39.982  1.00  0.00     0.005 A 
HETATM   21  C   UNL     1      -5.338 -12.860 -39.838  1.00  0.00     0.050 A 
ENDBRANCH  13  16
ENDBRANCH  10  12
BRANCH   9  22
HETATM   22  C   UNL     1      -1.308 -14.961 -40.589  1.00  0.00    -0.029 A 
HETATM   23  C   UNL     1      -2.120 -14.247 -41.490  1.00  0.00     0.009 A 
HETATM   24  C   UNL     1      -2.813 -14.913 -42.502  1.00  0.00     0.001 A 
HETATM   25  C   UNL     1      -2.698 -16.295 -42.635  1.00  0.00     0.000 A 
HETATM   26  C   UNL     1      -1.886 -17.014 -41.762  1.00  0.00     0.001 A 
HETATM   27  C   UNL     1      -1.192 -16.352 -40.748  1.00  0.00     0.009 A 
ENDBRANCH   9  22
TORSDOF 3
ENDMDL
MODEL 7
REMARK VINA RESULT:      -7.3      2.571      5.433
REMARK  3 active torsions:
REMARK  status: ('A' for Active; 'I' for Inactive)
REMARK    1  A    between atoms: C_9  and  C_10 
REMARK    2  A    between atoms: C_16  and  C_17 
REMARK       I    between atoms: C_17  and  N_18 
REMARK    3  A    between atoms: N_18  and  C_19 
ROOT
HETATM    1  C   UNL     1      -6.242   4.891 -29.213  1.00  0.00     0.070 C 
HETATM    2  C   UNL     1      -5.308   4.360 -30.272  1.00  0.00     0.037 C 
HETATM    3  N   UNL     1      -4.056   4.965 -30.327  1.00  0.00    -0.191 N 
HETATM    4  C   UNL     1      -3.199   4.778 -31.352  1.00  0.00     0.735 A 
HETATM    5  N   UNL     1      -3.497   3.854 -32.315  1.00  0.00    -0.092 N 
HETATM    6  N   UNL     1      -2.566   3.876 -33.282  1.00  0.00     0.012 NA
HETATM    7  N   UNL     1      -1.682   4.781 -32.873  1.00  0.00     0.033 NA
HETATM    8  N   UNL     1      -2.066   5.351 -31.673  1.00  0.00     0.030 NA
HETATM    9  C   UNL     1      -4.690   3.009 -32.313  1.00  0.00     0.198 C 
HETATM   10  C   UNL     1      -5.635   3.409 -31.185  1.00  0.00     0.062 C 
HETATM   11  H   UNL     1      -3.880   5.738 -29.687  1.00  0.00     0.184 HD
ENDROOT
BRANCH  10  12
HETATM   12  C   UNL     1      -6.970   2.755 -31.259  1.00  0.00     0.257 C 
HETATM   13  N   UNL     1      -7.639   3.035 -32.427  1.00  0.00    -0.308 N 
HETATM   14  H   UNL     1      -7.207   3.665 -33.086  1.00  0.00     0.170 HD
HETATM   15  O   UNL     1      -7.343   2.097 -30.297  1.00  0.00    -0.267 OA
BRANCH  13  16
HETATM   16  C   UNL     1      -8.886   2.510 -32.790  1.00  0.00     0.129 A 
HETATM   17  N   UNL     1      -9.986   3.280 -32.778  1.00  0.00    -0.243 NA
HETATM   18  C   UNL     1     -11.162   2.715 -33.125  1.00  0.00     0.119 A 
HETATM   19  C   UNL     1     -11.301   1.386 -33.477  1.00  0.00     0.019 A 
HETATM   20  C   UNL     1     -10.162   0.593 -33.479  1.00  0.00     0.005 A 
HETATM   21  C   UNL     1      -8.936   1.162 -33.136  1.00  0.00     0.050 A 
ENDBRANCH  13  16
ENDBRANCH  10  12
BRANCH   9  22
HETATM   22  C   UNL     1      -4.297   1.536 -32.237  1.00  0.00    -0.029 A 
HETATM   23  C   UNL     1      -3.346   1.065 -31.314  1.00  0.00     0.009 A 
HETATM   24  C   UNL     1      -3.007  -0.289 -31.272  1.00  0.00     0.001 A 
HETATM   25  C   UNL     1      -3.618  -1.189 -32.141  1.00  0.00     0.000 A 
HETATM   26  C   UNL     1      -4.574  -0.742 -33.049  1.00  0.00     0.001 A 
HETATM   27  C   UNL     1      -4.915   0.611 -33.096  1.00  0.00     0.009 A 
ENDBRANCH   9  22
TORSDOF 3
ENDMDL
MODEL 8
REMARK VINA RESULT:      -7.3      2.672      6.215
REMARK  3 active torsions:
REMARK  status: ('A' for Active; 'I' for Inactive)
REMARK    1  A    between atoms: C_9  and  C_10 
REMARK    2  A    between atoms: C_16  and  C_17 
REMARK       I    between atoms: C_17  and  N_18 
REMARK    3  A    between atoms: N_18  and  C_19 
ROOT
HETATM    1  C   UNL     1      -2.869  -0.003 -30.994  1.00  0.00     0.070 C 
HETATM    2  C   UNL     1      -3.941  -0.259 -32.024  1.00  0.00     0.037 C 
HETATM    3  N   UNL     1      -4.094  -1.586 -32.413  1.00  0.00    -0.191 N 
HETATM    4  C   UNL     1      -4.833  -1.953 -33.482  1.00  0.00     0.735 A 
HETATM    5  N   UNL     1      -5.579  -1.012 -34.135  1.00  0.00    -0.092 N 
HETATM    6  N   UNL     1      -6.173  -1.556 -35.209  1.00  0.00     0.012 NA
HETATM    7  N   UNL     1      -5.821  -2.837 -35.172  1.00  0.00     0.033 NA
HETATM    8  N   UNL     1      -4.985  -3.097 -34.101  1.00  0.00     0.030 NA
HETATM    9  C   UNL     1      -5.665   0.395 -33.747  1.00  0.00     0.198 C 
HETATM   10  C   UNL     1      -4.688   0.706 -32.618  1.00  0.00     0.062 C 
HETATM   11  H   UNL     1      -3.454  -2.270 -32.014  1.00  0.00     0.184 HD
ENDROOT
BRANCH  10  12
HETATM   12  C   UNL     1      -4.550   2.159 -32.327  1.00  0.00     0.257 C 
HETATM   13  N   UNL     1      -3.416   2.710 -32.877  1.00  0.00    -0.308 N 
HETATM   14  H   UNL     1      -2.781   2.101 -33.372  1.00  0.00     0.170 HD
HETATM   15  O   UNL     1      -5.398   2.688 -31.621  1.00  0.00    -0.267 OA
BRANCH  13  16
HETATM   16  C   UNL     1      -3.062   4.063 -32.811  1.00  0.00     0.129 A 
HETATM   17  N   UNL     1      -3.535   4.943 -33.707  1.00  0.00    -0.243 NA
HETATM   18  C   UNL     1      -3.148   6.232 -33.600  1.00  0.00     0.119 A 
HETATM   19  C   UNL     1      -2.280   6.695 -32.628  1.00  0.00     0.019 A 
HETATM   20  C   UNL     1      -1.787   5.779 -31.709  1.00  0.00     0.005 A 
HETATM   21  C   UNL     1      -2.186   4.445 -31.797  1.00  0.00     0.050 A 
ENDBRANCH  13  16
ENDBRANCH  10  12
BRANCH   9  22
HETATM   22  C   UNL     1      -7.102   0.756 -33.379  1.00  0.00    -0.029 A 
HETATM   23  C   UNL     1      -7.878   1.622 -34.170  1.00  0.00     0.009 A 
HETATM   24  C   UNL     1      -9.189   1.935 -33.804  1.00  0.00     0.001 A 
HETATM   25  C   UNL     1      -9.743   1.383 -32.652  1.00  0.00     0.000 A 
HETATM   26  C   UNL     1      -8.993   0.511 -31.866  1.00  0.00     0.001 A 
HETATM   27  C   UNL     1      -7.682   0.196 -32.228  1.00  0.00     0.009 A 
ENDBRANCH   9  22
TORSDOF 3
ENDMDL
MODEL 9
REMARK VINA RESULT:      -7.1      3.527      6.737
REMARK  3 active torsions:
REMARK  status: ('A' for Active; 'I' for Inactive)
REMARK    1  A    between atoms: C_9  and  C_10 
REMARK    2  A    between atoms: C_16  and  C_17 
REMARK       I    between atoms: C_17  and  N_18 
REMARK    3  A    between atoms: N_18  and  C_19 
ROOT
HETATM    1  C   UNL     1      -2.991   0.490 -31.207  1.00  0.00     0.070 C 
HETATM    2  C   UNL     1      -4.279   1.266 -31.324  1.00  0.00     0.037 C 
HETATM    3  N   UNL     1      -5.441   0.545 -31.067  1.00  0.00    -0.191 N 
HETATM    4  C   UNL     1      -6.672   1.016 -31.355  1.00  0.00     0.735 A 
HETATM    5  N   UNL     1      -6.812   2.305 -31.788  1.00  0.00    -0.092 N 
HETATM    6  N   UNL     1      -8.095   2.555 -32.095  1.00  0.00     0.012 NA
HETATM    7  N   UNL     1      -8.733   1.427 -31.799  1.00  0.00     0.033 NA
HETATM    8  N   UNL     1      -7.858   0.461 -31.338  1.00  0.00     0.030 NA
HETATM    9  C   UNL     1      -5.709   3.252 -31.946  1.00  0.00     0.198 C 
HETATM   10  C   UNL     1      -4.367   2.562 -31.721  1.00  0.00     0.062 C 
HETATM   11  H   UNL     1      -5.342  -0.448 -30.863  1.00  0.00     0.184 HD
ENDROOT
BRANCH  10  12
HETATM   12  C   UNL     1      -3.193   3.398 -32.090  1.00  0.00     0.257 C 
HETATM   13  N   UNL     1      -2.693   4.117 -31.030  1.00  0.00    -0.308 N 
HETATM   14  H   UNL     1      -3.169   4.053 -30.143  1.00  0.00     0.170 HD
HETATM   15  O   UNL     1      -2.831   3.398 -33.259  1.00  0.00    -0.267 OA
BRANCH  13  16
HETATM   16  C   UNL     1      -1.562   4.942 -31.074  1.00  0.00     0.129 A 
HETATM   17  N   UNL     1      -0.360   4.483 -30.691  1.00  0.00    -0.243 NA
HETATM   18  C   UNL     1       0.691   5.329 -30.744  1.00  0.00     0.119 A 
HETATM   19  C   UNL     1       0.598   6.645 -31.157  1.00  0.00     0.019 A 
HETATM   20  C   UNL     1      -0.649   7.116 -31.545  1.00  0.00     0.005 A 
HETATM   21  C   UNL     1      -1.744   6.253 -31.509  1.00  0.00     0.050 A 
ENDBRANCH  13  16
ENDBRANCH  10  12
BRANCH   9  22
HETATM   22  C   UNL     1      -5.900   4.450 -31.020  1.00  0.00    -0.029 A 
HETATM   23  C   UNL     1      -6.007   5.763 -31.514  1.00  0.00     0.009 A 
HETATM   24  C   UNL     1      -6.180   6.838 -30.640  1.00  0.00     0.001 A 
HETATM   25  C   UNL     1      -6.257   6.618 -29.267  1.00  0.00     0.000 A 
HETATM   26  C   UNL     1      -6.169   5.322 -28.764  1.00  0.00     0.001 A 
HETATM   27  C   UNL     1      -5.996   4.245 -29.634  1.00  0.00     0.009 A 
ENDBRANCH   9  22
TORSDOF 3
ENDMDL
MODEL 10
REMARK VINA RESULT:      -7.1     14.713     16.354
REMARK  3 active torsions:
REMARK  status: ('A' for Active; 'I' for Inactive)
REMARK    1  A    between atoms: C_9  and  C_10 
REMARK    2  A    between atoms: C_16  and  C_17 
REMARK       I    between atoms: C_17  and  N_18 
REMARK    3  A    between atoms: N_18  and  C_19 
ROOT
HETATM    1  C   UNL     1      -2.504 -13.279 -37.236  1.00  0.00     0.070 C 
HETATM    2  C   UNL     1      -3.928 -13.481 -36.780  1.00  0.00     0.037 C 
HETATM    3  N   UNL     1      -4.253 -12.911 -35.553  1.00  0.00    -0.191 N 
HETATM    4  C   UNL     1      -5.397 -13.195 -34.896  1.00  0.00     0.735 A 
HETATM    5  N   UNL     1      -6.349 -13.961 -35.508  1.00  0.00    -0.092 N 
HETATM    6  N   UNL     1      -7.368 -14.194 -34.666  1.00  0.00     0.012 NA
HETATM    7  N   UNL     1      -7.049 -13.525 -33.563  1.00  0.00     0.033 NA
HETATM    8  N   UNL     1      -5.823 -12.898 -33.693  1.00  0.00     0.030 NA
HETATM    9  C   UNL     1      -6.238 -14.495 -36.865  1.00  0.00     0.198 C 
HETATM   10  C   UNL     1      -4.853 -14.220 -37.443  1.00  0.00     0.062 C 
HETATM   11  H   UNL     1      -3.507 -12.443 -35.041  1.00  0.00     0.184 HD
ENDROOT
BRANCH  10  12
HETATM   12  C   UNL     1      -4.586 -14.931 -38.723  1.00  0.00     0.257 C 
HETATM   13  N   UNL     1      -4.524 -14.083 -39.804  1.00  0.00    -0.308 N 
HETATM   14  H   UNL     1      -4.698 -13.102 -39.651  1.00  0.00     0.170 HD
HETATM   15  O   UNL     1      -4.497 -16.151 -38.696  1.00  0.00    -0.267 OA
BRANCH  13  16
HETATM   16  C   UNL     1      -4.231 -14.469 -41.118  1.00  0.00     0.129 A 
HETATM   17  N   UNL     1      -3.041 -15.007 -41.428  1.00  0.00    -0.243 NA
HETATM   18  C   UNL     1      -2.812 -15.347 -42.715  1.00  0.00     0.119 A 
HETATM   19  C   UNL     1      -3.729 -15.161 -43.733  1.00  0.00     0.019 A 
HETATM   20  C   UNL     1      -4.955 -14.598 -43.408  1.00  0.00     0.005 A 
HETATM   21  C   UNL     1      -5.213 -14.251 -42.081  1.00  0.00     0.050 A 
ENDBRANCH  13  16
ENDBRANCH  10  12
BRANCH   9  22
HETATM   22  C   UNL     1      -7.350 -13.937 -37.748  1.00  0.00    -0.029 A 
HETATM   23  C   UNL     1      -7.369 -12.592 -38.161  1.00  0.00     0.009 A 
HETATM   24  C   UNL     1      -8.403 -12.112 -38.967  1.00  0.00     0.001 A 
HETATM   25  C   UNL     1      -9.423 -12.965 -39.378  1.00  0.00     0.000 A 
HETATM   26  C   UNL     1      -9.410 -14.303 -38.991  1.00  0.00     0.001 A 
HETATM   27  C   UNL     1      -8.380 -14.788 -38.185  1.00  0.00     0.009 A 
ENDBRANCH   9  22
TORSDOF 3
ENDMDL
