MODEL 1
REMARK VINA RESULT:      -8.9      0.000      0.000
REMARK  5 active torsions:
REMARK  status: ('A' for Active; 'I' for Inactive)
REMARK    1  A    between atoms: C_4  and  C_5 
REMARK    2  A    between atoms: C_5  and  N_6 
REMARK    3  A    between atoms: C_9  and  N_10 
REMARK       I    between atoms: N_10  and  C_11 
REMARK       I    between atoms: C_11  and  N_12 
REMARK    4  A    between atoms: N_12  and  N_13 
REMARK       I    between atoms: N_13  and  C_14 
REMARK    5  A    between atoms: C_14  and  C_15 
ROOT
HETATM    1  N   UNL     1      -6.260   3.273 -31.879  1.00  0.00    -0.336 N 
HETATM    2  C   UNL     1      -5.075   3.575 -31.249  1.00  0.00     0.335 C 
HETATM    3  N   UNL     1      -4.928   4.921 -31.029  1.00  0.00    -0.249 N 
HETATM    4  O   UNL     1      -4.261   2.723 -30.911  1.00  0.00    -0.246 OA
HETATM    5  H   UNL     1      -6.984   3.961 -31.698  1.00  0.00     0.164 HD
HETATM    6  H   UNL     1      -5.402   5.599 -31.625  1.00  0.00     0.192 HD
ENDROOT
BRANCH   1   7
HETATM    7  C   UNL     1      -6.685   1.884 -32.015  1.00  0.00     0.112 C 
HETATM    8  C   UNL     1      -6.474   1.312 -33.442  1.00  0.00     0.260 C 
HETATM    9  N   UNL     1      -6.990  -0.115 -33.515  1.00  0.00    -0.065 N 
HETATM   10  H   UNL     1      -6.484  -0.640 -32.791  1.00  0.00     0.280 HD
HETATM   11  C   UNL     1      -8.455  -0.199 -33.187  1.00  0.00     0.235 C 
HETATM   12  C   UNL     1      -8.675   0.325 -31.775  1.00  0.00     0.030 C 
HETATM   13  C   UNL     1      -8.161   1.753 -31.613  1.00  0.00     0.028 C 
BRANCH   9  14
HETATM   14  C   UNL     1      -6.611  -0.818 -34.806  1.00  0.00     0.273 C 
BRANCH  14  15
HETATM   15  C   UNL     1      -6.014  -2.192 -34.658  1.00  0.00    -0.033 A 
HETATM   16  C   UNL     1      -6.770  -3.334 -34.966  1.00  0.00     0.009 A 
HETATM   17  C   UNL     1      -6.222  -4.608 -34.815  1.00  0.00     0.001 A 
HETATM   18  C   UNL     1      -4.915  -4.756 -34.358  1.00  0.00     0.000 A 
HETATM   19  C   UNL     1      -4.150  -3.632 -34.059  1.00  0.00     0.001 A 
HETATM   20  C   UNL     1      -4.694  -2.355 -34.209  1.00  0.00     0.009 A 
ENDBRANCH  14  15
ENDBRANCH   9  14
ENDBRANCH   1   7
BRANCH   3  21
HETATM   21  N   UNL     1      -3.712   5.373 -30.500  1.00  0.00    -0.261 N 
HETATM   22  C   UNL     1      -2.776   5.924 -31.358  1.00  0.00     0.277 C 
HETATM   23  O   UNL     1      -3.007   5.981 -32.568  1.00  0.00    -0.265 OA
HETATM   24  H   UNL     1      -3.563   5.297 -29.496  1.00  0.00     0.190 HD
BRANCH  22  25
HETATM   25  C   UNL     1      -1.549   6.414 -30.751  1.00  0.00     0.075 A 
HETATM   26  S   UNL     1      -1.527   7.182 -29.216  1.00  0.00    -0.077 SA
HETATM   27  C   UNL     1       0.151   7.396 -29.281  1.00  0.00     0.052 A 
HETATM   28 BR   UNL     1       1.131   8.216 -27.911  1.00  0.00    -0.043 Br
HETATM   29  C   UNL     1       0.717   6.911 -30.432  1.00  0.00     0.028 A 
HETATM   30  C   UNL     1      -0.273   6.337 -31.285  1.00  0.00     0.026 A 
ENDBRANCH  22  25
ENDBRANCH   3  21
TORSDOF 5
ENDMDL
MODEL 2
REMARK VINA RESULT:      -8.4      6.407     10.193
REMARK  5 active torsions:
REMARK  status: ('A' for Active; 'I' for Inactive)
REMARK    1  A    between atoms: C_4  and  C_5 
REMARK    2  A    between atoms: C_5  and  N_6 
REMARK    3  A    between atoms: C_9  and  N_10 
REMARK       I    between atoms: N_10  and  C_11 
REMARK       I    between atoms: C_11  and  N_12 
REMARK    4  A    between atoms: N_12  and  N_13 
REMARK       I    between atoms: N_13  and  C_14 
REMARK    5  A    between atoms: C_14  and  C_15 
ROOT
HETATM    1  N   UNL     1      -5.435   5.929 -33.481  1.00  0.00    -0.336 N 
HETATM    2  C   UNL     1      -6.380   4.941 -33.628  1.00  0.00     0.335 C 
HETATM    3  N   UNL     1      -7.644   5.446 -33.801  1.00  0.00    -0.249 N 
HETATM    4  O   UNL     1      -6.105   3.746 -33.622  1.00  0.00    -0.246 OA
HETATM    5  H   UNL     1      -5.707   6.797 -33.930  1.00  0.00     0.164 HD
HETATM    6  H   UNL     1      -7.888   6.366 -33.437  1.00  0.00     0.192 HD
ENDROOT
BRANCH   1   7
HETATM    7  C   UNL     1      -4.015   5.594 -33.488  1.00  0.00     0.112 C 
HETATM    8  C   UNL     1      -3.118   6.697 -32.866  1.00  0.00     0.260 C 
HETATM    9  N   UNL     1      -1.657   6.297 -32.960  1.00  0.00    -0.065 N 
HETATM   10  H   UNL     1      -1.574   5.392 -32.481  1.00  0.00     0.280 HD
HETATM   11  C   UNL     1      -1.223   6.088 -34.385  1.00  0.00     0.235 C 
HETATM   12  C   UNL     1      -2.070   4.983 -35.001  1.00  0.00     0.030 C 
HETATM   13  C   UNL     1      -3.561   5.300 -34.925  1.00  0.00     0.028 C 
BRANCH   9  14
HETATM   14  C   UNL     1      -0.738   7.212 -32.170  1.00  0.00     0.273 C 
BRANCH  14  15
HETATM   15  C   UNL     1      -0.197   6.650 -30.883  1.00  0.00    -0.033 A 
HETATM   16  C   UNL     1      -0.198   7.424 -29.711  1.00  0.00     0.009 A 
HETATM   17  C   UNL     1       0.317   6.908 -28.522  1.00  0.00     0.001 A 
HETATM   18  C   UNL     1       0.835   5.617 -28.487  1.00  0.00     0.000 A 
HETATM   19  C   UNL     1       0.834   4.834 -29.639  1.00  0.00     0.001 A 
HETATM   20  C   UNL     1       0.319   5.346 -30.831  1.00  0.00     0.009 A 
ENDBRANCH  14  15
ENDBRANCH   9  14
ENDBRANCH   1   7
BRANCH   3  21
HETATM   21  N   UNL     1      -8.713   4.542 -33.845  1.00  0.00    -0.261 N 
HETATM   22  C   UNL     1      -9.722   4.749 -34.772  1.00  0.00     0.277 C 
HETATM   23  O   UNL     1      -9.684   5.732 -35.515  1.00  0.00    -0.265 OA
HETATM   24  H   UNL     1      -8.706   3.750 -33.206  1.00  0.00     0.190 HD
BRANCH  22  25
HETATM   25  C   UNL     1     -10.786   3.759 -34.804  1.00  0.00     0.075 A 
HETATM   26  S   UNL     1     -10.847   2.440 -33.706  1.00  0.00    -0.077 SA
HETATM   27  C   UNL     1     -12.281   1.859 -34.392  1.00  0.00     0.052 A 
HETATM   28 BR   UNL     1     -13.160   0.324 -33.776  1.00  0.00    -0.043 Br
HETATM   29  C   UNL     1     -12.732   2.622 -35.438  1.00  0.00     0.028 A 
HETATM   30  C   UNL     1     -11.863   3.728 -35.674  1.00  0.00     0.026 A 
ENDBRANCH  22  25
ENDBRANCH   3  21
TORSDOF 5
ENDMDL
MODEL 3
REMARK VINA RESULT:      -8.0      4.006     10.575
REMARK  5 active torsions:
REMARK  status: ('A' for Active; 'I' for Inactive)
REMARK    1  A    between atoms: C_4  and  C_5 
REMARK    2  A    between atoms: C_5  and  N_6 
REMARK    3  A    between atoms: C_9  and  N_10 
REMARK       I    between atoms: N_10  and  C_11 
REMARK       I    between atoms: C_11  and  N_12 
REMARK    4  A    between atoms: N_12  and  N_13 
REMARK       I    between atoms: N_13  and  C_14 
REMARK    5  A    between atoms: C_14  and  C_15 
ROOT
HETATM    1  N   UNL     1      -4.028   4.693 -30.874  1.00  0.00    -0.336 N 
HETATM    2  C   UNL     1      -3.822   3.462 -31.452  1.00  0.00     0.335 C 
HETATM    3  N   UNL     1      -4.941   2.669 -31.406  1.00  0.00    -0.249 N 
HETATM    4  O   UNL     1      -2.758   3.132 -31.963  1.00  0.00    -0.246 OA
HETATM    5  H   UNL     1      -5.001   4.980 -30.904  1.00  0.00     0.164 HD
HETATM    6  H   UNL     1      -5.644   2.806 -30.681  1.00  0.00     0.192 HD
ENDROOT
BRANCH   1   7
HETATM    7  C   UNL     1      -3.023   5.742 -31.005  1.00  0.00     0.112 C 
HETATM    8  C   UNL     1      -3.156   6.860 -29.937  1.00  0.00     0.260 C 
HETATM    9  N   UNL     1      -2.112   7.936 -30.174  1.00  0.00    -0.065 N 
HETATM   10  H   UNL     1      -1.200   7.463 -30.151  1.00  0.00     0.280 HD
HETATM   11  C   UNL     1      -2.253   8.566 -31.533  1.00  0.00     0.235 C 
HETATM   12  C   UNL     1      -2.089   7.487 -32.595  1.00  0.00     0.030 C 
HETATM   13  C   UNL     1      -3.093   6.352 -32.412  1.00  0.00     0.028 C 
BRANCH   9  14
HETATM   14  C   UNL     1      -2.027   8.943 -29.040  1.00  0.00     0.273 C 
BRANCH  14  15
HETATM   15  C   UNL     1      -0.732   8.966 -28.275  1.00  0.00    -0.033 A 
HETATM   16  C   UNL     1       0.260   8.004 -28.523  1.00  0.00     0.009 A 
HETATM   17  C   UNL     1       1.455   8.018 -27.803  1.00  0.00     0.001 A 
HETATM   18  C   UNL     1       1.674   8.991 -26.831  1.00  0.00     0.000 A 
HETATM   19  C   UNL     1       0.704   9.957 -26.582  1.00  0.00     0.001 A 
HETATM   20  C   UNL     1      -0.493   9.949 -27.300  1.00  0.00     0.009 A 
ENDBRANCH  14  15
ENDBRANCH   9  14
ENDBRANCH   1   7
BRANCH   3  21
HETATM   21  N   UNL     1      -4.830   1.347 -31.857  1.00  0.00    -0.261 N 
HETATM   22  C   UNL     1      -5.474   0.986 -33.028  1.00  0.00     0.277 C 
HETATM   23  O   UNL     1      -6.156   1.813 -33.636  1.00  0.00    -0.265 OA
HETATM   24  H   UNL     1      -4.262   0.697 -31.317  1.00  0.00     0.190 HD
BRANCH  22  25
HETATM   25  C   UNL     1      -5.290  -0.386 -33.473  1.00  0.00     0.075 A 
HETATM   26  S   UNL     1      -4.032  -1.387 -32.870  1.00  0.00    -0.077 SA
HETATM   27  C   UNL     1      -4.528  -2.690 -33.831  1.00  0.00     0.052 A 
HETATM   28 BR   UNL     1      -3.663  -4.351 -33.824  1.00  0.00    -0.043 Br
HETATM   29  C   UNL     1      -5.620  -2.406 -34.610  1.00  0.00     0.028 A 
HETATM   30  C   UNL     1      -6.065  -1.067 -34.398  1.00  0.00     0.026 A 
ENDBRANCH  22  25
ENDBRANCH   3  21
TORSDOF 5
ENDMDL
MODEL 4
REMARK VINA RESULT:      -7.8      2.111      3.129
REMARK  5 active torsions:
REMARK  status: ('A' for Active; 'I' for Inactive)
REMARK    1  A    between atoms: C_4  and  C_5 
REMARK    2  A    between atoms: C_5  and  N_6 
REMARK    3  A    between atoms: C_9  and  N_10 
REMARK       I    between atoms: N_10  and  C_11 
REMARK       I    between atoms: C_11  and  N_12 
REMARK    4  A    between atoms: N_12  and  N_13 
REMARK       I    between atoms: N_13  and  C_14 
REMARK    5  A    between atoms: C_14  and  C_15 
ROOT
HETATM    1  N   UNL     1      -3.280   4.402 -32.089  1.00  0.00    -0.336 N 
HETATM    2  C   UNL     1      -3.064   5.354 -31.120  1.00  0.00     0.335 C 
HETATM    3  N   UNL     1      -1.793   5.868 -31.165  1.00  0.00    -0.249 N 
HETATM    4  O   UNL     1      -3.928   5.706 -30.324  1.00  0.00    -0.246 OA
HETATM    5  H   UNL     1      -2.685   4.531 -32.901  1.00  0.00     0.164 HD
HETATM    6  H   UNL     1      -1.026   5.321 -31.554  1.00  0.00     0.192 HD
ENDROOT
BRANCH   1   7
HETATM    7  C   UNL     1      -4.625   3.889 -32.328  1.00  0.00     0.112 C 
HETATM    8  C   UNL     1      -4.760   2.367 -32.063  1.00  0.00     0.260 C 
HETATM    9  N   UNL     1      -6.169   1.903 -32.385  1.00  0.00    -0.065 N 
HETATM   10  H   UNL     1      -6.798   2.470 -31.804  1.00  0.00     0.280 HD
HETATM   11  C   UNL     1      -6.531   2.163 -33.822  1.00  0.00     0.235 C 
HETATM   12  C   UNL     1      -6.439   3.659 -34.090  1.00  0.00     0.030 C 
HETATM   13  C   UNL     1      -5.052   4.209 -33.768  1.00  0.00     0.028 C 
BRANCH   9  14
HETATM   14  C   UNL     1      -6.444   0.479 -31.934  1.00  0.00     0.273 C 
BRANCH  14  15
HETATM   15  C   UNL     1      -6.112  -0.603 -32.926  1.00  0.00    -0.033 A 
HETATM   16  C   UNL     1      -7.120  -1.178 -33.717  1.00  0.00     0.009 A 
HETATM   17  C   UNL     1      -6.814  -2.191 -34.627  1.00  0.00     0.001 A 
HETATM   18  C   UNL     1      -5.502  -2.638 -34.759  1.00  0.00     0.000 A 
HETATM   19  C   UNL     1      -4.491  -2.069 -33.989  1.00  0.00     0.001 A 
HETATM   20  C   UNL     1      -4.792  -1.055 -33.078  1.00  0.00     0.009 A 
ENDBRANCH  14  15
ENDBRANCH   9  14
ENDBRANCH   1   7
BRANCH   3  21
HETATM   21  N   UNL     1      -1.409   6.762 -30.157  1.00  0.00    -0.261 N 
HETATM   22  C   UNL     1      -0.318   6.444 -29.365  1.00  0.00     0.277 C 
HETATM   23  O   UNL     1       0.274   5.376 -29.533  1.00  0.00    -0.265 OA
HETATM   24  H   UNL     1      -1.933   7.628 -30.051  1.00  0.00     0.190 HD
BRANCH  22  25
HETATM   25  C   UNL     1       0.063   7.425 -28.363  1.00  0.00     0.075 A 
HETATM   26  S   UNL     1      -0.961   7.844 -27.051  1.00  0.00    -0.077 SA
HETATM   27  C   UNL     1       0.173   8.943 -26.439  1.00  0.00     0.052 A 
HETATM   28 BR   UNL     1      -0.115   9.949 -24.886  1.00  0.00    -0.043 Br
HETATM   29  C   UNL     1       1.316   9.020 -27.192  1.00  0.00     0.028 A 
HETATM   30  C   UNL     1       1.253   8.134 -28.308  1.00  0.00     0.026 A 
ENDBRANCH  22  25
ENDBRANCH   3  21
TORSDOF 5
ENDMDL
MODEL 5
REMARK VINA RESULT:      -7.8      2.438      2.789
REMARK  5 active torsions:
REMARK  status: ('A' for Active; 'I' for Inactive)
REMARK    1  A    between atoms: C_4  and  C_5 
REMARK    2  A    between atoms: C_5  and  N_6 
REMARK    3  A    between atoms: C_9  and  N_10 
REMARK       I    between atoms: N_10  and  C_11 
REMARK       I    between atoms: C_11  and  N_12 
REMARK    4  A    between atoms: N_12  and  N_13 
REMARK       I    between atoms: N_13  and  C_14 
REMARK    5  A    between atoms: C_14  and  C_15 
ROOT
HETATM    1  N   UNL     1      -6.802   1.540 -30.011  1.00  0.00    -0.336 N 
HETATM    2  C   UNL     1      -6.254   2.756 -30.348  1.00  0.00     0.335 C 
HETATM    3  N   UNL     1      -5.585   3.336 -29.300  1.00  0.00    -0.249 N 
HETATM    4  O   UNL     1      -6.345   3.244 -31.469  1.00  0.00    -0.246 OA
HETATM    5  H   UNL     1      -6.301   1.082 -29.257  1.00  0.00     0.164 HD
HETATM    6  H   UNL     1      -5.837   3.114 -28.337  1.00  0.00     0.192 HD
ENDROOT
BRANCH   1   7
HETATM    7  C   UNL     1      -7.375   0.682 -31.043  1.00  0.00     0.112 C 
HETATM    8  C   UNL     1      -6.453   0.501 -32.277  1.00  0.00     0.260 C 
HETATM    9  N   UNL     1      -7.142  -0.357 -33.323  1.00  0.00    -0.065 N 
HETATM   10  H   UNL     1      -7.375  -1.244 -32.860  1.00  0.00     0.280 HD
HETATM   11  C   UNL     1      -8.434   0.255 -33.789  1.00  0.00     0.235 C 
HETATM   12  C   UNL     1      -9.366   0.408 -32.595  1.00  0.00     0.030 C 
HETATM   13  C   UNL     1      -8.735   1.244 -31.485  1.00  0.00     0.028 C 
BRANCH   9  14
HETATM   14  C   UNL     1      -6.218  -0.771 -34.455  1.00  0.00     0.273 C 
BRANCH  14  15
HETATM   15  C   UNL     1      -5.812  -2.219 -34.479  1.00  0.00    -0.033 A 
HETATM   16  C   UNL     1      -6.744  -3.216 -34.808  1.00  0.00     0.009 A 
HETATM   17  C   UNL     1      -6.371  -4.560 -34.816  1.00  0.00     0.001 A 
HETATM   18  C   UNL     1      -5.065  -4.924 -34.499  1.00  0.00     0.000 A 
HETATM   19  C   UNL     1      -4.127  -3.945 -34.181  1.00  0.00     0.001 A 
HETATM   20  C   UNL     1      -4.495  -2.599 -34.173  1.00  0.00     0.009 A 
ENDBRANCH  14  15
ENDBRANCH   9  14
ENDBRANCH   1   7
BRANCH   3  21
HETATM   21  N   UNL     1      -5.080   4.631 -29.478  1.00  0.00    -0.261 N 
HETATM   22  C   UNL     1      -5.559   5.649 -28.670  1.00  0.00     0.277 C 
HETATM   23  O   UNL     1      -6.436   5.414 -27.836  1.00  0.00    -0.265 OA
HETATM   24  H   UNL     1      -4.363   4.779 -30.184  1.00  0.00     0.190 HD
BRANCH  22  25
HETATM   25  C   UNL     1      -4.971   6.964 -28.868  1.00  0.00     0.075 A 
HETATM   26  S   UNL     1      -3.370   7.339 -28.375  1.00  0.00    -0.077 SA
HETATM   27  C   UNL     1      -3.501   8.927 -28.947  1.00  0.00     0.052 A 
HETATM   28 BR   UNL     1      -2.110  10.174 -28.828  1.00  0.00    -0.043 Br
HETATM   29  C   UNL     1      -4.723   9.204 -29.504  1.00  0.00     0.028 A 
HETATM   30  C   UNL     1      -5.576   8.061 -29.460  1.00  0.00     0.026 A 
ENDBRANCH  22  25
ENDBRANCH   3  21
TORSDOF 5
ENDMDL
MODEL 6
REMARK VINA RESULT:      -7.6      6.654      9.238
REMARK  5 active torsions:
REMARK  status: ('A' for Active; 'I' for Inactive)
REMARK    1  A    between atoms: C_4  and  C_5 
REMARK    2  A    between atoms: C_5  and  N_6 
REMARK    3  A    between atoms: C_9  and  N_10 
REMARK       I    between atoms: N_10  and  C_11 
REMARK       I    between atoms: C_11  and  N_12 
REMARK    4  A    between atoms: N_12  and  N_13 
REMARK       I    between atoms: N_13  and  C_14 
REMARK    5  A    between atoms: C_14  and  C_15 
ROOT
HETATM    1  N   UNL     1      -8.706   3.370 -31.560  1.00  0.00    -0.336 N 
HETATM    2  C   UNL     1      -9.968   2.989 -31.951  1.00  0.00     0.335 C 
HETATM    3  N   UNL     1     -10.952   3.665 -31.275  1.00  0.00    -0.249 N 
HETATM    4  O   UNL     1     -10.175   2.152 -32.823  1.00  0.00    -0.246 OA
HETATM    5  H   UNL     1      -8.680   4.318 -31.198  1.00  0.00     0.164 HD
HETATM    6  H   UNL     1     -10.775   4.046 -30.346  1.00  0.00     0.192 HD
ENDROOT
BRANCH   1   7
HETATM    7  C   UNL     1      -7.537   2.912 -32.304  1.00  0.00     0.112 C 
HETATM    8  C   UNL     1      -6.879   1.645 -31.698  1.00  0.00     0.260 C 
HETATM    9  N   UNL     1      -5.643   1.266 -32.496  1.00  0.00    -0.065 N 
HETATM   10  H   UNL     1      -5.956   1.133 -33.465  1.00  0.00     0.280 HD
HETATM   11  C   UNL     1      -4.621   2.368 -32.503  1.00  0.00     0.235 C 
HETATM   12  C   UNL     1      -5.240   3.611 -33.128  1.00  0.00     0.030 C 
HETATM   13  C   UNL     1      -6.505   4.046 -32.394  1.00  0.00     0.028 C 
BRANCH   9  14
HETATM   14  C   UNL     1      -5.078  -0.089 -32.108  1.00  0.00     0.273 C 
BRANCH  14  15
HETATM   15  C   UNL     1      -5.292  -1.201 -33.099  1.00  0.00    -0.033 A 
HETATM   16  C   UNL     1      -4.234  -2.050 -33.458  1.00  0.00     0.009 A 
HETATM   17  C   UNL     1      -4.429  -3.072 -34.388  1.00  0.00     0.001 A 
HETATM   18  C   UNL     1      -5.681  -3.259 -34.967  1.00  0.00     0.000 A 
HETATM   19  C   UNL     1      -6.743  -2.430 -34.613  1.00  0.00     0.001 A 
HETATM   20  C   UNL     1      -6.553  -1.407 -33.683  1.00  0.00     0.009 A 
ENDBRANCH  14  15
ENDBRANCH   9  14
ENDBRANCH   1   7
BRANCH   3  21
HETATM   21  N   UNL     1     -12.283   3.286 -31.497  1.00  0.00    -0.261 N 
HETATM   22  C   UNL     1     -13.275   4.247 -31.389  1.00  0.00     0.277 C 
HETATM   23  O   UNL     1     -12.984   5.401 -31.071  1.00  0.00    -0.265 OA
HETATM   24  H   UNL     1     -12.476   2.320 -31.749  1.00  0.00     0.190 HD
BRANCH  22  25
HETATM   25  C   UNL     1     -14.633   3.809 -31.671  1.00  0.00     0.075 A 
HETATM   26  S   UNL     1     -15.947   4.908 -31.787  1.00  0.00    -0.077 SA
HETATM   27  C   UNL     1     -17.040   3.658 -32.116  1.00  0.00     0.052 A 
HETATM   28 BR   UNL     1     -18.866   3.949 -32.416  1.00  0.00    -0.043 Br
HETATM   29  C   UNL     1     -16.456   2.417 -32.141  1.00  0.00     0.028 A 
HETATM   30  C   UNL     1     -15.056   2.507 -31.886  1.00  0.00     0.026 A 
ENDBRANCH  22  25
ENDBRANCH   3  21
TORSDOF 5
ENDMDL
MODEL 7
REMARK VINA RESULT:      -7.5      4.335      9.546
REMARK  5 active torsions:
REMARK  status: ('A' for Active; 'I' for Inactive)
REMARK    1  A    between atoms: C_4  and  C_5 
REMARK    2  A    between atoms: C_5  and  N_6 
REMARK    3  A    between atoms: C_9  and  N_10 
REMARK       I    between atoms: N_10  and  C_11 
REMARK       I    between atoms: C_11  and  N_12 
REMARK    4  A    between atoms: N_12  and  N_13 
REMARK       I    between atoms: N_13  and  C_14 
REMARK    5  A    between atoms: C_14  and  C_15 
ROOT
HETATM    1  N   UNL     1      -5.244   4.280 -28.959  1.00  0.00    -0.336 N 
HETATM    2  C   UNL     1      -5.791   3.524 -29.969  1.00  0.00     0.335 C 
HETATM    3  N   UNL     1      -5.767   2.181 -29.688  1.00  0.00    -0.249 N 
HETATM    4  O   UNL     1      -6.260   4.011 -30.991  1.00  0.00    -0.246 OA
HETATM    5  H   UNL     1      -5.312   3.828 -28.053  1.00  0.00     0.164 HD
HETATM    6  H   UNL     1      -5.069   1.796 -29.053  1.00  0.00     0.192 HD
ENDROOT
BRANCH   1   7
HETATM    7  C   UNL     1      -5.361   5.735 -28.985  1.00  0.00     0.112 C 
HETATM    8  C   UNL     1      -4.160   6.438 -29.669  1.00  0.00     0.260 C 
HETATM    9  N   UNL     1      -4.332   7.945 -29.606  1.00  0.00    -0.065 N 
HETATM   10  H   UNL     1      -5.231   8.151 -30.060  1.00  0.00     0.280 HD
HETATM   11  C   UNL     1      -4.422   8.442 -28.190  1.00  0.00     0.235 C 
HETATM   12  C   UNL     1      -5.620   7.788 -27.514  1.00  0.00     0.030 C 
HETATM   13  C   UNL     1      -5.532   6.265 -27.554  1.00  0.00     0.028 C 
BRANCH   9  14
HETATM   14  C   UNL     1      -3.319   8.695 -30.453  1.00  0.00     0.273 C 
BRANCH  14  15
HETATM   15  C   UNL     1      -1.978   8.031 -30.619  1.00  0.00    -0.033 A 
HETATM   16  C   UNL     1      -1.601   7.487 -31.857  1.00  0.00     0.009 A 
HETATM   17  C   UNL     1      -0.364   6.859 -32.007  1.00  0.00     0.001 A 
HETATM   18  C   UNL     1       0.509   6.770 -30.926  1.00  0.00     0.000 A 
HETATM   19  C   UNL     1       0.152   7.314 -29.695  1.00  0.00     0.001 A 
HETATM   20  C   UNL     1      -1.084   7.944 -29.540  1.00  0.00     0.009 A 
ENDBRANCH  14  15
ENDBRANCH   9  14
ENDBRANCH   1   7
BRANCH   3  21
HETATM   21  N   UNL     1      -6.189   1.293 -30.686  1.00  0.00    -0.261 N 
HETATM   22  C   UNL     1      -5.230   0.617 -31.424  1.00  0.00     0.277 C 
HETATM   23  O   UNL     1      -4.034   0.827 -31.219  1.00  0.00    -0.265 OA
HETATM   24  H   UNL     1      -7.188   1.158 -30.825  1.00  0.00     0.190 HD
BRANCH  22  25
HETATM   25  C   UNL     1      -5.722  -0.323 -32.418  1.00  0.00     0.075 A 
HETATM   26  S   UNL     1      -4.727  -1.545 -33.098  1.00  0.00    -0.077 SA
HETATM   27  C   UNL     1      -5.995  -2.126 -34.059  1.00  0.00     0.052 A 
HETATM   28 BR   UNL     1      -5.810  -3.579 -35.226  1.00  0.00    -0.043 Br
HETATM   29  C   UNL     1      -7.163  -1.428 -33.897  1.00  0.00     0.028 A 
HETATM   30  C   UNL     1      -7.005  -0.382 -32.939  1.00  0.00     0.026 A 
ENDBRANCH  22  25
ENDBRANCH   3  21
TORSDOF 5
ENDMDL
MODEL 8
REMARK VINA RESULT:      -7.4      5.163     10.746
REMARK  5 active torsions:
REMARK  status: ('A' for Active; 'I' for Inactive)
REMARK    1  A    between atoms: C_4  and  C_5 
REMARK    2  A    between atoms: C_5  and  N_6 
REMARK    3  A    between atoms: C_9  and  N_10 
REMARK       I    between atoms: N_10  and  C_11 
REMARK       I    between atoms: C_11  and  N_12 
REMARK    4  A    between atoms: N_12  and  N_13 
REMARK       I    between atoms: N_13  and  C_14 
REMARK    5  A    between atoms: C_14  and  C_15 
ROOT
HETATM    1  N   UNL     1      -3.288   4.798 -32.565  1.00  0.00    -0.336 N 
HETATM    2  C   UNL     1      -4.314   3.909 -32.350  1.00  0.00     0.335 C 
HETATM    3  N   UNL     1      -5.103   3.742 -33.460  1.00  0.00    -0.249 N 
HETATM    4  O   UNL     1      -4.481   3.324 -31.286  1.00  0.00    -0.246 OA
HETATM    5  H   UNL     1      -3.015   4.850 -33.541  1.00  0.00     0.164 HD
HETATM    6  H   UNL     1      -5.175   4.480 -34.161  1.00  0.00     0.192 HD
ENDROOT
BRANCH   1   7
HETATM    7  C   UNL     1      -2.230   4.953 -31.571  1.00  0.00     0.112 C 
HETATM    8  C   UNL     1      -2.494   6.103 -30.564  1.00  0.00     0.260 C 
HETATM    9  N   UNL     1      -1.326   6.232 -29.602  1.00  0.00    -0.065 N 
HETATM   10  H   UNL     1      -1.224   5.316 -29.149  1.00  0.00     0.280 HD
HETATM   11  C   UNL     1      -0.037   6.523 -30.319  1.00  0.00     0.235 C 
HETATM   12  C   UNL     1       0.255   5.385 -31.287  1.00  0.00     0.030 C 
HETATM   13  C   UNL     1      -0.886   5.175 -32.279  1.00  0.00     0.028 C 
BRANCH   9  14
HETATM   14  C   UNL     1      -1.610   7.177 -28.447  1.00  0.00     0.273 C 
BRANCH  14  15
HETATM   15  C   UNL     1      -0.404   7.751 -27.754  1.00  0.00    -0.033 A 
HETATM   16  C   UNL     1       0.479   6.916 -27.051  1.00  0.00     0.009 A 
HETATM   17  C   UNL     1       1.589   7.450 -26.397  1.00  0.00     0.001 A 
HETATM   18  C   UNL     1       1.832   8.820 -26.437  1.00  0.00     0.000 A 
HETATM   19  C   UNL     1       0.970   9.659 -27.139  1.00  0.00     0.001 A 
HETATM   20  C   UNL     1      -0.141   9.130 -27.796  1.00  0.00     0.009 A 
ENDBRANCH  14  15
ENDBRANCH   9  14
ENDBRANCH   1   7
BRANCH   3  21
HETATM   21  N   UNL     1      -6.253   2.951 -33.338  1.00  0.00    -0.261 N 
HETATM   22  C   UNL     1      -7.469   3.475 -33.745  1.00  0.00     0.277 C 
HETATM   23  O   UNL     1      -7.529   4.628 -34.175  1.00  0.00    -0.265 OA
HETATM   24  H   UNL     1      -6.155   2.007 -32.970  1.00  0.00     0.190 HD
BRANCH  22  25
HETATM   25  C   UNL     1      -8.622   2.596 -33.636  1.00  0.00     0.075 A 
HETATM   26  S   UNL     1     -10.153   3.003 -34.297  1.00  0.00    -0.077 SA
HETATM   27  C   UNL     1     -10.836   1.548 -33.764  1.00  0.00     0.052 A 
HETATM   28 BR   UNL     1     -12.625   1.087 -34.069  1.00  0.00    -0.043 Br
HETATM   29  C   UNL     1      -9.951   0.747 -33.089  1.00  0.00     0.028 A 
HETATM   30  C   UNL     1      -8.662   1.356 -33.019  1.00  0.00     0.026 A 
ENDBRANCH  22  25
ENDBRANCH   3  21
TORSDOF 5
ENDMDL
MODEL 9
REMARK VINA RESULT:      -7.4      4.507     10.117
REMARK  5 active torsions:
REMARK  status: ('A' for Active; 'I' for Inactive)
REMARK    1  A    between atoms: C_4  and  C_5 
REMARK    2  A    between atoms: C_5  and  N_6 
REMARK    3  A    between atoms: C_9  and  N_10 
REMARK       I    between atoms: N_10  and  C_11 
REMARK       I    between atoms: C_11  and  N_12 
REMARK    4  A    between atoms: N_12  and  N_13 
REMARK       I    between atoms: N_13  and  C_14 
REMARK    5  A    between atoms: C_14  and  C_15 
ROOT
HETATM    1  N   UNL     1      -6.675   4.500 -28.500  1.00  0.00    -0.336 N 
HETATM    2  C   UNL     1      -6.308   3.622 -29.493  1.00  0.00     0.335 C 
HETATM    3  N   UNL     1      -7.155   2.546 -29.579  1.00  0.00    -0.249 N 
HETATM    4  O   UNL     1      -5.341   3.805 -30.224  1.00  0.00    -0.246 OA
HETATM    5  H   UNL     1      -7.669   4.467 -28.299  1.00  0.00     0.164 HD
HETATM    6  H   UNL     1      -7.686   2.238 -28.766  1.00  0.00     0.192 HD
ENDROOT
BRANCH   1   7
HETATM    7  C   UNL     1      -6.019   5.799 -28.388  1.00  0.00     0.112 C 
HETATM    8  C   UNL     1      -4.917   5.841 -27.297  1.00  0.00     0.260 C 
HETATM    9  N   UNL     1      -4.323   7.235 -27.207  1.00  0.00    -0.065 N 
HETATM   10  H   UNL     1      -3.969   7.458 -28.146  1.00  0.00     0.280 HD
HETATM   11  C   UNL     1      -5.362   8.267 -26.865  1.00  0.00     0.235 C 
HETATM   12  C   UNL     1      -6.434   8.264 -27.946  1.00  0.00     0.030 C 
HETATM   13  C   UNL     1      -7.068   6.886 -28.114  1.00  0.00     0.028 C 
BRANCH   9  14
HETATM   14  C   UNL     1      -3.085   7.299 -26.329  1.00  0.00     0.273 C 
BRANCH  14  15
HETATM   15  C   UNL     1      -1.767   7.372 -27.051  1.00  0.00    -0.033 A 
HETATM   16  C   UNL     1      -0.604   6.847 -26.466  1.00  0.00     0.009 A 
HETATM   17  C   UNL     1       0.620   6.928 -27.130  1.00  0.00     0.001 A 
HETATM   18  C   UNL     1       0.698   7.530 -28.383  1.00  0.00     0.000 A 
HETATM   19  C   UNL     1      -0.450   8.046 -28.979  1.00  0.00     0.001 A 
HETATM   20  C   UNL     1      -1.678   7.967 -28.320  1.00  0.00     0.009 A 
ENDBRANCH  14  15
ENDBRANCH   9  14
ENDBRANCH   1   7
BRANCH   3  21
HETATM   21  N   UNL     1      -6.825   1.519 -30.474  1.00  0.00    -0.261 N 
HETATM   22  C   UNL     1      -7.697   1.233 -31.510  1.00  0.00     0.277 C 
HETATM   23  O   UNL     1      -8.756   1.855 -31.614  1.00  0.00    -0.265 OA
HETATM   24  H   UNL     1      -5.943   1.028 -30.343  1.00  0.00     0.190 HD
BRANCH  22  25
HETATM   25  C   UNL     1      -7.286   0.188 -32.433  1.00  0.00     0.075 A 
HETATM   26  S   UNL     1      -5.742  -0.557 -32.350  1.00  0.00    -0.077 SA
HETATM   27  C   UNL     1      -6.090  -1.564 -33.665  1.00  0.00     0.052 A 
HETATM   28 BR   UNL     1      -4.878  -2.824 -34.336  1.00  0.00    -0.043 Br
HETATM   29  C   UNL     1      -7.343  -1.364 -34.186  1.00  0.00     0.028 A 
HETATM   30  C   UNL     1      -8.039  -0.348 -33.466  1.00  0.00     0.026 A 
ENDBRANCH  22  25
ENDBRANCH   3  21
TORSDOF 5
ENDMDL
MODEL 10
REMARK VINA RESULT:      -7.3      6.053      7.820
REMARK  5 active torsions:
REMARK  status: ('A' for Active; 'I' for Inactive)
REMARK    1  A    between atoms: C_4  and  C_5 
REMARK    2  A    between atoms: C_5  and  N_6 
REMARK    3  A    between atoms: C_9  and  N_10 
REMARK       I    between atoms: N_10  and  C_11 
REMARK       I    between atoms: C_11  and  N_12 
REMARK    4  A    between atoms: N_12  and  N_13 
REMARK       I    between atoms: N_13  and  C_14 
REMARK    5  A    between atoms: C_14  and  C_15 
ROOT
HETATM    1  N   UNL     1      -8.342   0.733 -31.910  1.00  0.00    -0.336 N 
HETATM    2  C   UNL     1      -8.997   1.684 -32.657  1.00  0.00     0.335 C 
HETATM    3  N   UNL     1     -10.344   1.715 -32.400  1.00  0.00    -0.249 N 
HETATM    4  O   UNL     1      -8.423   2.426 -33.446  1.00  0.00    -0.246 OA
HETATM    5  H   UNL     1      -8.818   0.527 -31.038  1.00  0.00     0.164 HD
HETATM    6  H   UNL     1     -10.825   0.886 -32.054  1.00  0.00     0.192 HD
ENDROOT
BRANCH   1   7
HETATM    7  C   UNL     1      -6.883   0.686 -31.896  1.00  0.00     0.112 C 
HETATM    8  C   UNL     1      -6.289  -0.323 -32.913  1.00  0.00     0.260 C 
HETATM    9  N   UNL     1      -4.775  -0.351 -32.798  1.00  0.00    -0.065 N 
HETATM   10  H   UNL     1      -4.458   0.613 -32.955  1.00  0.00     0.280 HD
HETATM   11  C   UNL     1      -4.324  -0.751 -31.420  1.00  0.00     0.235 C 
HETATM   12  C   UNL     1      -4.870   0.251 -30.412  1.00  0.00     0.030 C 
HETATM   13  C   UNL     1      -6.391   0.354 -30.480  1.00  0.00     0.028 C 
BRANCH   9  14
HETATM   14  C   UNL     1      -4.109  -1.139 -33.912  1.00  0.00     0.273 C 
BRANCH  14  15
HETATM   15  C   UNL     1      -4.711  -2.482 -34.221  1.00  0.00    -0.033 A 
HETATM   16  C   UNL     1      -5.970  -2.575 -34.837  1.00  0.00     0.009 A 
HETATM   17  C   UNL     1      -6.534  -3.821 -35.110  1.00  0.00     0.001 A 
HETATM   18  C   UNL     1      -5.850  -4.986 -34.776  1.00  0.00     0.000 A 
HETATM   19  C   UNL     1      -4.597  -4.910 -34.174  1.00  0.00     0.001 A 
HETATM   20  C   UNL     1      -4.027  -3.665 -33.899  1.00  0.00     0.009 A 
ENDBRANCH  14  15
ENDBRANCH   9  14
ENDBRANCH   1   7
BRANCH   3  21
HETATM   21  N   UNL     1     -11.144   2.560 -33.180  1.00  0.00    -0.261 N 
HETATM   22  C   UNL     1     -11.489   3.803 -32.676  1.00  0.00     0.277 C 
HETATM   23  O   UNL     1     -11.121   4.134 -31.548  1.00  0.00    -0.265 OA
HETATM   24  H   UNL     1     -11.430   2.240 -34.103  1.00  0.00     0.190 HD
BRANCH  22  25
HETATM   25  C   UNL     1     -12.284   4.656 -33.545  1.00  0.00     0.075 A 
HETATM   26  S   UNL     1     -13.484   5.723 -32.937  1.00  0.00    -0.077 SA
HETATM   27  C   UNL     1     -13.865   6.276 -34.491  1.00  0.00     0.052 A 
HETATM   28 BR   UNL     1     -15.176   7.571 -34.822  1.00  0.00    -0.043 Br
HETATM   29  C   UNL     1     -13.120   5.681 -35.477  1.00  0.00     0.028 A 
HETATM   30  C   UNL     1     -12.199   4.742 -34.925  1.00  0.00     0.026 A 
ENDBRANCH  22  25
ENDBRANCH   3  21
TORSDOF 5
ENDMDL
