MODEL 1
REMARK VINA RESULT:      -8.9      0.000      0.000
REMARK  7 active torsions:
REMARK  status: ('A' for Active; 'I' for Inactive)
REMARK    1  A    between atoms: C_6  and  O_7 
REMARK    2  A    between atoms: O_7  and  C_8 
REMARK    3  A    between atoms: C_8  and  C_9 
REMARK       I    between atoms: C_9  and  N_10 
REMARK    4  A    between atoms: N_10  and  C_11 
REMARK    5  A    between atoms: C_14  and  N_15 
REMARK    6  A    between atoms: N_18  and  C_20 
REMARK    7  A    between atoms: C_20  and  C_21 
ROOT
HETATM    1  C   UNL     1      -1.732   6.258 -31.032  1.00  0.00     0.034 A 
HETATM    2  C   UNL     1      -2.504   6.855 -30.036  1.00  0.00     0.032 A 
HETATM    3  C   UNL     1      -1.895   7.513 -28.957  1.00  0.00     0.031 A 
HETATM    4  C   UNL     1      -0.500   7.583 -28.831  1.00  0.00     0.030 A 
HETATM    5  C   UNL     1       0.257   7.035 -29.870  1.00  0.00     0.031 A 
HETATM    6  C   UNL     1      -0.346   6.385 -30.957  1.00  0.00     0.032 A 
ENDROOT
BRANCH   1   7
HETATM    7  N   UNL     1      -2.396   5.500 -32.017  1.00  0.00    -0.325 N 
HETATM    8  C   UNL     1      -2.685   4.147 -31.975  1.00  0.00     0.246 C 
HETATM    9  O   UNL     1      -2.258   3.339 -31.154  1.00  0.00    -0.271 OA
HETATM   10  H   UNL     1      -2.762   5.993 -32.827  1.00  0.00     0.169 HD
BRANCH   8  11
HETATM   11  C   UNL     1      -3.720   3.713 -33.015  1.00  0.00     0.278 C 
BRANCH  11  12
HETATM   12  O   UNL     1      -4.880   3.118 -32.439  1.00  0.00    -0.342 OA
BRANCH  12  13
HETATM   13  C   UNL     1      -5.207   1.893 -32.966  1.00  0.00     0.069 A 
HETATM   14  C   UNL     1      -6.255   1.658 -33.860  1.00  0.00     0.044 A 
HETATM   15  C   UNL     1      -6.520   0.364 -34.348  1.00  0.00    -0.053 A 
HETATM   16  C   UNL     1      -5.732  -0.714 -33.907  1.00  0.00    -0.056 A 
HETATM   17  C   UNL     1      -7.676   0.166 -35.291  1.00  0.00     0.049 C 
HETATM   18  C   UNL     1      -5.991  -2.121 -34.371  1.00  0.00     0.049 C 
HETATM   19  C   UNL     1      -4.658  -0.463 -33.039  1.00  0.00     0.010 A 
HETATM   20  C   UNL     1      -4.395   0.831 -32.579  1.00  0.00     0.037 A 
ENDBRANCH  12  13
ENDBRANCH  11  12
ENDBRANCH   8  11
ENDBRANCH   1   7
BRANCH   4  21
HETATM   21  N   UNL     1       0.069   8.094 -27.670  1.00  0.00    -0.378 N 
HETATM   22  C   UNL     1      -0.695   9.036 -26.843  1.00  0.00     0.150 C 
HETATM   23  C   UNL     1       0.287   9.991 -26.136  1.00  0.00     0.255 C 
HETATM   24  N   UNL     1       1.347   9.217 -25.340  1.00  0.00    -0.064 N 
HETATM   25  H   UNL     1       0.853   8.748 -24.573  1.00  0.00     0.280 HD
HETATM   26  C   UNL     1       2.029   8.140 -26.194  1.00  0.00     0.255 C 
HETATM   27  C   UNL     1       1.006   7.244 -26.925  1.00  0.00     0.150 C 
BRANCH  24  28
HETATM   28  C   UNL     1       2.386  10.130 -24.727  1.00  0.00     0.273 C 
BRANCH  28  29
HETATM   29  C   UNL     1       3.300   9.452 -23.743  1.00  0.00    -0.033 A 
HETATM   30  C   UNL     1       4.688   9.437 -23.942  1.00  0.00     0.009 A 
HETATM   31  C   UNL     1       5.522   8.783 -23.035  1.00  0.00     0.001 A 
HETATM   32  C   UNL     1       4.982   8.140 -21.924  1.00  0.00     0.000 A 
HETATM   33  C   UNL     1       3.606   8.149 -21.714  1.00  0.00     0.001 A 
HETATM   34  C   UNL     1       2.767   8.802 -22.616  1.00  0.00     0.009 A 
ENDBRANCH  28  29
ENDBRANCH  24  28
ENDBRANCH   4  21
TORSDOF 7
ENDMDL
MODEL 2
REMARK VINA RESULT:      -8.7      2.171      4.136
REMARK  7 active torsions:
REMARK  status: ('A' for Active; 'I' for Inactive)
REMARK    1  A    between atoms: C_6  and  O_7 
REMARK    2  A    between atoms: O_7  and  C_8 
REMARK    3  A    between atoms: C_8  and  C_9 
REMARK       I    between atoms: C_9  and  N_10 
REMARK    4  A    between atoms: N_10  and  C_11 
REMARK    5  A    between atoms: C_14  and  N_15 
REMARK    6  A    between atoms: N_18  and  C_20 
REMARK    7  A    between atoms: C_20  and  C_21 
ROOT
HETATM    1  C   UNL     1      -4.819   3.579 -31.742  1.00  0.00     0.034 A 
HETATM    2  C   UNL     1      -5.186   4.710 -31.012  1.00  0.00     0.032 A 
HETATM    3  C   UNL     1      -4.218   5.634 -30.589  1.00  0.00     0.031 A 
HETATM    4  C   UNL     1      -2.856   5.451 -30.869  1.00  0.00     0.030 A 
HETATM    5  C   UNL     1      -2.514   4.347 -31.653  1.00  0.00     0.031 A 
HETATM    6  C   UNL     1      -3.477   3.425 -32.088  1.00  0.00     0.032 A 
ENDROOT
BRANCH   1   7
HETATM    7  N   UNL     1      -5.814   2.623 -32.022  1.00  0.00    -0.325 N 
HETATM    8  C   UNL     1      -6.366   2.330 -33.257  1.00  0.00     0.246 C 
HETATM    9  O   UNL     1      -6.212   2.974 -34.292  1.00  0.00    -0.271 OA
HETATM   10  H   UNL     1      -6.132   2.032 -31.258  1.00  0.00     0.169 HD
BRANCH   8  11
HETATM   11  C   UNL     1      -7.141   1.011 -33.280  1.00  0.00     0.278 C 
BRANCH  11  12
HETATM   12  O   UNL     1      -7.013   0.306 -34.512  1.00  0.00    -0.342 OA
BRANCH  12  13
HETATM   13  C   UNL     1      -6.309  -0.869 -34.420  1.00  0.00     0.069 A 
HETATM   14  C   UNL     1      -6.735  -2.103 -34.921  1.00  0.00     0.044 A 
HETATM   15  C   UNL     1      -5.945  -3.259 -34.778  1.00  0.00    -0.053 A 
HETATM   16  C   UNL     1      -4.718  -3.176 -34.096  1.00  0.00    -0.056 A 
HETATM   17  C   UNL     1      -6.465  -4.565 -35.317  1.00  0.00     0.049 C 
HETATM   18  C   UNL     1      -3.849  -4.386 -33.886  1.00  0.00     0.049 C 
HETATM   19  C   UNL     1      -4.280  -1.926 -33.629  1.00  0.00     0.010 A 
HETATM   20  C   UNL     1      -5.067  -0.783 -33.797  1.00  0.00     0.037 A 
ENDBRANCH  12  13
ENDBRANCH  11  12
ENDBRANCH   8  11
ENDBRANCH   1   7
BRANCH   4  21
HETATM   21  N   UNL     1      -1.909   6.293 -30.295  1.00  0.00    -0.378 N 
HETATM   22  C   UNL     1      -0.964   7.013 -31.158  1.00  0.00     0.150 C 
HETATM   23  C   UNL     1       0.354   7.225 -30.387  1.00  0.00     0.255 C 
HETATM   24  N   UNL     1       0.112   7.927 -29.044  1.00  0.00    -0.064 N 
HETATM   25  H   UNL     1      -0.208   8.877 -29.263  1.00  0.00     0.280 HD
HETATM   26  C   UNL     1      -0.984   7.233 -28.226  1.00  0.00     0.255 C 
HETATM   27  C   UNL     1      -2.265   6.994 -29.055  1.00  0.00     0.150 C 
BRANCH  24  28
HETATM   28  C   UNL     1       1.377   8.048 -28.222  1.00  0.00     0.273 C 
BRANCH  28  29
HETATM   29  C   UNL     1       1.253   8.953 -27.028  1.00  0.00    -0.033 A 
HETATM   30  C   UNL     1       1.899   8.646 -25.821  1.00  0.00     0.009 A 
HETATM   31  C   UNL     1       1.755   9.483 -24.714  1.00  0.00     0.001 A 
HETATM   32  C   UNL     1       0.968  10.629 -24.798  1.00  0.00     0.000 A 
HETATM   33  C   UNL     1       0.323  10.945 -25.990  1.00  0.00     0.001 A 
HETATM   34  C   UNL     1       0.464  10.115 -27.101  1.00  0.00     0.009 A 
ENDBRANCH  28  29
ENDBRANCH  24  28
ENDBRANCH   4  21
TORSDOF 7
ENDMDL
MODEL 3
REMARK VINA RESULT:      -8.7      4.002     13.474
REMARK  7 active torsions:
REMARK  status: ('A' for Active; 'I' for Inactive)
REMARK    1  A    between atoms: C_6  and  O_7 
REMARK    2  A    between atoms: O_7  and  C_8 
REMARK    3  A    between atoms: C_8  and  C_9 
REMARK       I    between atoms: C_9  and  N_10 
REMARK    4  A    between atoms: N_10  and  C_11 
REMARK    5  A    between atoms: C_14  and  N_15 
REMARK    6  A    between atoms: N_18  and  C_20 
REMARK    7  A    between atoms: C_20  and  C_21 
ROOT
HETATM    1  C   UNL     1      -3.633   3.539 -31.425  1.00  0.00     0.034 A 
HETATM    2  C   UNL     1      -4.671   4.388 -31.040  1.00  0.00     0.032 A 
HETATM    3  C   UNL     1      -6.006   4.056 -31.315  1.00  0.00     0.031 A 
HETATM    4  C   UNL     1      -6.345   2.876 -31.993  1.00  0.00     0.030 A 
HETATM    5  C   UNL     1      -5.299   2.008 -32.315  1.00  0.00     0.031 A 
HETATM    6  C   UNL     1      -3.963   2.329 -32.034  1.00  0.00     0.032 A 
ENDROOT
BRANCH   1   7
HETATM    7  N   UNL     1      -2.310   3.987 -31.241  1.00  0.00    -0.325 N 
HETATM    8  C   UNL     1      -1.547   4.723 -32.130  1.00  0.00     0.246 C 
HETATM    9  O   UNL     1      -1.826   4.959 -33.303  1.00  0.00    -0.271 OA
HETATM   10  H   UNL     1      -1.872   3.812 -30.341  1.00  0.00     0.169 HD
BRANCH   8  11
HETATM   11  C   UNL     1      -0.307   5.353 -31.493  1.00  0.00     0.278 C 
BRANCH  11  12
HETATM   12  O   UNL     1      -0.297   5.258 -30.071  1.00  0.00    -0.342 OA
BRANCH  12  13
HETATM   13  C   UNL     1      -0.342   6.468 -29.423  1.00  0.00     0.069 A 
HETATM   14  C   UNL     1       0.716   7.036 -28.709  1.00  0.00     0.044 A 
HETATM   15  C   UNL     1       0.578   8.285 -28.073  1.00  0.00    -0.053 A 
HETATM   16  C   UNL     1      -0.655   8.958 -28.136  1.00  0.00    -0.056 A 
HETATM   17  C   UNL     1       1.744   8.838 -27.298  1.00  0.00     0.049 C 
HETATM   18  C   UNL     1      -0.869  10.279 -27.448  1.00  0.00     0.049 C 
HETATM   19  C   UNL     1      -1.701   8.398 -28.887  1.00  0.00     0.010 A 
HETATM   20  C   UNL     1      -1.541   7.167 -29.530  1.00  0.00     0.037 A 
ENDBRANCH  12  13
ENDBRANCH  11  12
ENDBRANCH   8  11
ENDBRANCH   1   7
BRANCH   4  21
HETATM   21  N   UNL     1      -7.659   2.658 -32.396  1.00  0.00    -0.378 N 
HETATM   22  C   UNL     1      -8.533   1.805 -31.581  1.00  0.00     0.150 C 
HETATM   23  C   UNL     1      -9.559   1.117 -32.504  1.00  0.00     0.255 C 
HETATM   24  N   UNL     1     -10.333   2.141 -33.345  1.00  0.00    -0.064 N 
HETATM   25  H   UNL     1     -10.906   2.685 -32.690  1.00  0.00     0.280 HD
HETATM   26  C   UNL     1      -9.392   3.111 -34.072  1.00  0.00     0.255 C 
HETATM   27  C   UNL     1      -8.349   3.733 -33.119  1.00  0.00     0.150 C 
BRANCH  24  28
HETATM   28  C   UNL     1     -11.268   1.483 -34.335  1.00  0.00     0.273 C 
BRANCH  28  29
HETATM   29  C   UNL     1     -12.716   1.507 -33.928  1.00  0.00    -0.033 A 
HETATM   30  C   UNL     1     -13.641   0.624 -34.503  1.00  0.00     0.009 A 
HETATM   31  C   UNL     1     -14.985   0.674 -34.134  1.00  0.00     0.001 A 
HETATM   32  C   UNL     1     -15.419   1.603 -33.191  1.00  0.00     0.000 A 
HETATM   33  C   UNL     1     -14.511   2.484 -32.611  1.00  0.00     0.001 A 
HETATM   34  C   UNL     1     -13.166   2.438 -32.975  1.00  0.00     0.009 A 
ENDBRANCH  28  29
ENDBRANCH  24  28
ENDBRANCH   4  21
TORSDOF 7
ENDMDL
MODEL 4
REMARK VINA RESULT:      -8.6      1.731      2.753
REMARK  7 active torsions:
REMARK  status: ('A' for Active; 'I' for Inactive)
REMARK    1  A    between atoms: C_6  and  O_7 
REMARK    2  A    between atoms: O_7  and  C_8 
REMARK    3  A    between atoms: C_8  and  C_9 
REMARK       I    between atoms: C_9  and  N_10 
REMARK    4  A    between atoms: N_10  and  C_11 
REMARK    5  A    between atoms: C_14  and  N_15 
REMARK    6  A    between atoms: N_18  and  C_20 
REMARK    7  A    between atoms: C_20  and  C_21 
ROOT
HETATM    1  C   UNL     1      -1.432   7.341 -30.922  1.00  0.00     0.034 A 
HETATM    2  C   UNL     1      -2.050   8.346 -30.177  1.00  0.00     0.032 A 
HETATM    3  C   UNL     1      -1.416   8.893 -29.050  1.00  0.00     0.031 A 
HETATM    4  C   UNL     1      -0.157   8.446 -28.626  1.00  0.00     0.030 A 
HETATM    5  C   UNL     1       0.474   7.484 -29.420  1.00  0.00     0.031 A 
HETATM    6  C   UNL     1      -0.148   6.941 -30.553  1.00  0.00     0.032 A 
ENDROOT
BRANCH   1   7
HETATM    7  N   UNL     1      -2.171   6.740 -31.960  1.00  0.00    -0.325 N 
HETATM    8  C   UNL     1      -2.161   7.085 -33.300  1.00  0.00     0.246 C 
HETATM    9  O   UNL     1      -1.642   8.087 -33.788  1.00  0.00    -0.271 OA
HETATM   10  H   UNL     1      -2.733   5.925 -31.730  1.00  0.00     0.169 HD
BRANCH   8  11
HETATM   11  C   UNL     1      -2.780   6.020 -34.208  1.00  0.00     0.278 C 
BRANCH  11  12
HETATM   12  O   UNL     1      -4.186   5.875 -34.024  1.00  0.00    -0.342 OA
BRANCH  12  13
HETATM   13  C   UNL     1      -4.582   4.609 -33.670  1.00  0.00     0.069 A 
HETATM   14  C   UNL     1      -3.882   3.760 -32.809  1.00  0.00     0.044 A 
HETATM   15  C   UNL     1      -4.365   2.473 -32.503  1.00  0.00    -0.053 A 
HETATM   16  C   UNL     1      -5.559   2.026 -33.097  1.00  0.00    -0.056 A 
HETATM   17  C   UNL     1      -3.557   1.593 -31.587  1.00  0.00     0.049 C 
HETATM   18  C   UNL     1      -6.103   0.649 -32.831  1.00  0.00     0.049 C 
HETATM   19  C   UNL     1      -6.275   2.899 -33.931  1.00  0.00     0.010 A 
HETATM   20  C   UNL     1      -5.793   4.181 -34.208  1.00  0.00     0.037 A 
ENDBRANCH  12  13
ENDBRANCH  11  12
ENDBRANCH   8  11
ENDBRANCH   1   7
BRANCH   4  21
HETATM   21  N   UNL     1       0.367   8.888 -27.416  1.00  0.00    -0.378 N 
HETATM   22  C   UNL     1       1.751   8.550 -27.060  1.00  0.00     0.150 C 
HETATM   23  C   UNL     1       1.861   8.447 -25.526  1.00  0.00     0.255 C 
HETATM   24  N   UNL     1       1.359   9.725 -24.840  1.00  0.00    -0.064 N 
HETATM   25  H   UNL     1       2.018  10.471 -25.091  1.00  0.00     0.280 HD
HETATM   26  C   UNL     1      -0.032  10.133 -25.340  1.00  0.00     0.255 C 
HETATM   27  C   UNL     1      -0.109  10.170 -26.881  1.00  0.00     0.150 C 
BRANCH  24  28
HETATM   28  C   UNL     1       1.356   9.606 -23.332  1.00  0.00     0.273 C 
BRANCH  28  29
HETATM   29  C   UNL     1       2.726   9.523 -22.716  1.00  0.00    -0.033 A 
HETATM   30  C   UNL     1       3.130   8.380 -22.011  1.00  0.00     0.009 A 
HETATM   31  C   UNL     1       4.395   8.327 -21.424  1.00  0.00     0.001 A 
HETATM   32  C   UNL     1       5.265   9.409 -21.532  1.00  0.00     0.000 A 
HETATM   33  C   UNL     1       4.876  10.549 -22.231  1.00  0.00     0.001 A 
HETATM   34  C   UNL     1       3.614  10.608 -22.822  1.00  0.00     0.009 A 
ENDBRANCH  28  29
ENDBRANCH  24  28
ENDBRANCH   4  21
TORSDOF 7
ENDMDL
MODEL 5
REMARK VINA RESULT:      -8.5      4.373     12.131
REMARK  7 active torsions:
REMARK  status: ('A' for Active; 'I' for Inactive)
REMARK    1  A    between atoms: C_6  and  O_7 
REMARK    2  A    between atoms: O_7  and  C_8 
REMARK    3  A    between atoms: C_8  and  C_9 
REMARK       I    between atoms: C_9  and  N_10 
REMARK    4  A    between atoms: N_10  and  C_11 
REMARK    5  A    between atoms: C_14  and  N_15 
REMARK    6  A    between atoms: N_18  and  C_20 
REMARK    7  A    between atoms: C_20  and  C_21 
ROOT
HETATM    1  C   UNL     1      -5.662   5.714 -29.359  1.00  0.00     0.034 A 
HETATM    2  C   UNL     1      -4.769   5.363 -30.372  1.00  0.00     0.032 A 
HETATM    3  C   UNL     1      -4.968   4.198 -31.129  1.00  0.00     0.031 A 
HETATM    4  C   UNL     1      -6.053   3.342 -30.890  1.00  0.00     0.030 A 
HETATM    5  C   UNL     1      -6.970   3.741 -29.915  1.00  0.00     0.031 A 
HETATM    6  C   UNL     1      -6.784   4.909 -29.162  1.00  0.00     0.032 A 
ENDROOT
BRANCH   1   7
HETATM    7  N   UNL     1      -5.340   6.819 -28.548  1.00  0.00    -0.325 N 
HETATM    8  C   UNL     1      -4.758   6.792 -27.292  1.00  0.00     0.246 C 
HETATM    9  O   UNL     1      -4.586   5.795 -26.594  1.00  0.00    -0.271 OA
HETATM   10  H   UNL     1      -5.488   7.748 -28.933  1.00  0.00     0.169 HD
BRANCH   8  11
HETATM   11  C   UNL     1      -4.211   8.149 -26.844  1.00  0.00     0.278 C 
BRANCH  11  12
HETATM   12  O   UNL     1      -2.799   8.150 -26.654  1.00  0.00    -0.342 OA
BRANCH  12  13
HETATM   13  C   UNL     1      -2.075   7.889 -27.792  1.00  0.00     0.069 A 
HETATM   14  C   UNL     1      -2.342   8.425 -29.054  1.00  0.00     0.044 A 
HETATM   15  C   UNL     1      -1.546   8.098 -30.168  1.00  0.00    -0.053 A 
HETATM   16  C   UNL     1      -0.478   7.195 -30.011  1.00  0.00    -0.056 A 
HETATM   17  C   UNL     1      -1.894   8.687 -31.509  1.00  0.00     0.049 C 
HETATM   18  C   UNL     1       0.385   6.786 -31.173  1.00  0.00     0.049 C 
HETATM   19  C   UNL     1      -0.194   6.691 -28.732  1.00  0.00     0.010 A 
HETATM   20  C   UNL     1      -0.982   7.042 -27.632  1.00  0.00     0.037 A 
ENDBRANCH  12  13
ENDBRANCH  11  12
ENDBRANCH   8  11
ENDBRANCH   1   7
BRANCH   4  21
HETATM   21  N   UNL     1      -6.128   2.116 -31.542  1.00  0.00    -0.378 N 
HETATM   22  C   UNL     1      -4.892   1.413 -31.907  1.00  0.00     0.150 C 
HETATM   23  C   UNL     1      -5.147   0.582 -33.179  1.00  0.00     0.255 C 
HETATM   24  N   UNL     1      -6.345  -0.362 -33.002  1.00  0.00    -0.064 N 
HETATM   25  H   UNL     1      -6.069  -1.055 -32.298  1.00  0.00     0.280 HD
HETATM   26  C   UNL     1      -7.583   0.378 -32.481  1.00  0.00     0.255 C 
HETATM   27  C   UNL     1      -7.267   1.239 -31.240  1.00  0.00     0.150 C 
BRANCH  24  28
HETATM   28  C   UNL     1      -6.681  -1.109 -34.274  1.00  0.00     0.273 C 
BRANCH  28  29
HETATM   29  C   UNL     1      -6.057  -2.474 -34.372  1.00  0.00    -0.033 A 
HETATM   30  C   UNL     1      -4.715  -2.678 -34.021  1.00  0.00     0.009 A 
HETATM   31  C   UNL     1      -4.141  -3.945 -34.140  1.00  0.00     0.001 A 
HETATM   32  C   UNL     1      -4.898  -5.016 -34.610  1.00  0.00     0.000 A 
HETATM   33  C   UNL     1      -6.232  -4.826 -34.960  1.00  0.00     0.001 A 
HETATM   34  C   UNL     1      -6.811  -3.564 -34.841  1.00  0.00     0.009 A 
ENDBRANCH  28  29
ENDBRANCH  24  28
ENDBRANCH   4  21
TORSDOF 7
ENDMDL
MODEL 6
REMARK VINA RESULT:      -8.4      3.653     12.500
REMARK  7 active torsions:
REMARK  status: ('A' for Active; 'I' for Inactive)
REMARK    1  A    between atoms: C_6  and  O_7 
REMARK    2  A    between atoms: O_7  and  C_8 
REMARK    3  A    between atoms: C_8  and  C_9 
REMARK       I    between atoms: C_9  and  N_10 
REMARK    4  A    between atoms: N_10  and  C_11 
REMARK    5  A    between atoms: C_14  and  N_15 
REMARK    6  A    between atoms: N_18  and  C_20 
REMARK    7  A    between atoms: C_20  and  C_21 
ROOT
HETATM    1  C   UNL     1      -5.841   5.897 -29.282  1.00  0.00     0.034 A 
HETATM    2  C   UNL     1      -4.887   5.663 -30.272  1.00  0.00     0.032 A 
HETATM    3  C   UNL     1      -5.010   4.566 -31.138  1.00  0.00     0.031 A 
HETATM    4  C   UNL     1      -6.077   3.662 -31.034  1.00  0.00     0.030 A 
HETATM    5  C   UNL     1      -7.055   3.947 -30.078  1.00  0.00     0.031 A 
HETATM    6  C   UNL     1      -6.945   5.048 -29.216  1.00  0.00     0.032 A 
ENDROOT
BRANCH   1   7
HETATM    7  N   UNL     1      -5.596   6.934 -28.360  1.00  0.00    -0.325 N 
HETATM    8  C   UNL     1      -4.892   6.846 -27.172  1.00  0.00     0.246 C 
HETATM    9  O   UNL     1      -4.512   5.811 -26.629  1.00  0.00    -0.271 OA
HETATM   10  H   UNL     1      -5.911   7.869 -28.605  1.00  0.00     0.169 HD
BRANCH   8  11
HETATM   11  C   UNL     1      -4.498   8.207 -26.595  1.00  0.00     0.278 C 
BRANCH  11  12
HETATM   12  O   UNL     1      -3.882   9.065 -27.551  1.00  0.00    -0.342 OA
BRANCH  12  13
HETATM   13  C   UNL     1      -2.516   8.945 -27.622  1.00  0.00     0.069 A 
HETATM   14  C   UNL     1      -1.822   8.249 -28.615  1.00  0.00     0.044 A 
HETATM   15  C   UNL     1      -0.416   8.177 -28.606  1.00  0.00    -0.053 A 
HETATM   16  C   UNL     1       0.300   8.795 -27.564  1.00  0.00    -0.056 A 
HETATM   17  C   UNL     1       0.279   7.393 -29.687  1.00  0.00     0.049 C 
HETATM   18  C   UNL     1       1.800   8.722 -27.487  1.00  0.00     0.049 C 
HETATM   19  C   UNL     1      -0.404   9.524 -26.592  1.00  0.00     0.010 A 
HETATM   20  C   UNL     1      -1.799   9.603 -26.627  1.00  0.00     0.037 A 
ENDBRANCH  12  13
ENDBRANCH  11  12
ENDBRANCH   8  11
ENDBRANCH   1   7
BRANCH   4  21
HETATM   21  N   UNL     1      -6.080   2.498 -31.794  1.00  0.00    -0.378 N 
HETATM   22  C   UNL     1      -5.705   2.559 -33.212  1.00  0.00     0.150 C 
HETATM   23  C   UNL     1      -6.463   1.455 -33.977  1.00  0.00     0.255 C 
HETATM   24  N   UNL     1      -6.224   0.074 -33.351  1.00  0.00    -0.064 N 
HETATM   25  H   UNL     1      -5.234  -0.148 -33.502  1.00  0.00     0.280 HD
HETATM   26  C   UNL     1      -6.486   0.079 -31.840  1.00  0.00     0.255 C 
HETATM   27  C   UNL     1      -5.750   1.233 -31.126  1.00  0.00     0.150 C 
BRANCH  24  28
HETATM   28  C   UNL     1      -7.043  -1.009 -34.018  1.00  0.00     0.273 C 
BRANCH  28  29
HETATM   29  C   UNL     1      -6.305  -2.303 -34.225  1.00  0.00    -0.033 A 
HETATM   30  C   UNL     1      -4.935  -2.403 -33.943  1.00  0.00     0.009 A 
HETATM   31  C   UNL     1      -4.257  -3.603 -34.162  1.00  0.00     0.001 A 
HETATM   32  C   UNL     1      -4.936  -4.710 -34.664  1.00  0.00     0.000 A 
HETATM   33  C   UNL     1      -6.297  -4.624 -34.946  1.00  0.00     0.001 A 
HETATM   34  C   UNL     1      -6.981  -3.429 -34.727  1.00  0.00     0.009 A 
ENDBRANCH  28  29
ENDBRANCH  24  28
ENDBRANCH   4  21
TORSDOF 7
ENDMDL
MODEL 7
REMARK VINA RESULT:      -8.4      2.831      4.683
REMARK  7 active torsions:
REMARK  status: ('A' for Active; 'I' for Inactive)
REMARK    1  A    between atoms: C_6  and  O_7 
REMARK    2  A    between atoms: O_7  and  C_8 
REMARK    3  A    between atoms: C_8  and  C_9 
REMARK       I    between atoms: C_9  and  N_10 
REMARK    4  A    between atoms: N_10  and  C_11 
REMARK    5  A    between atoms: C_14  and  N_15 
REMARK    6  A    between atoms: N_18  and  C_20 
REMARK    7  A    between atoms: C_20  and  C_21 
ROOT
HETATM    1  C   UNL     1      -5.108   3.475 -31.780  1.00  0.00     0.034 A 
HETATM    2  C   UNL     1      -3.922   4.074 -32.206  1.00  0.00     0.032 A 
HETATM    3  C   UNL     1      -3.414   5.203 -31.546  1.00  0.00     0.031 A 
HETATM    4  C   UNL     1      -4.079   5.778 -30.453  1.00  0.00     0.030 A 
HETATM    5  C   UNL     1      -5.231   5.129 -30.002  1.00  0.00     0.031 A 
HETATM    6  C   UNL     1      -5.738   3.993 -30.649  1.00  0.00     0.032 A 
ENDROOT
BRANCH   1   7
HETATM    7  N   UNL     1      -5.636   2.429 -32.560  1.00  0.00    -0.325 N 
HETATM    8  C   UNL     1      -6.525   2.540 -33.615  1.00  0.00     0.246 C 
HETATM    9  O   UNL     1      -7.142   3.552 -33.940  1.00  0.00    -0.271 OA
HETATM   10  H   UNL     1      -5.295   1.487 -32.383  1.00  0.00     0.169 HD
BRANCH   8  11
HETATM   11  C   UNL     1      -6.614   1.276 -34.472  1.00  0.00     0.278 C 
BRANCH  11  12
HETATM   12  O   UNL     1      -7.119   0.149 -33.761  1.00  0.00    -0.342 OA
BRANCH  12  13
HETATM   13  C   UNL     1      -6.377  -0.996 -33.916  1.00  0.00     0.069 A 
HETATM   14  C   UNL     1      -6.805  -2.146 -34.584  1.00  0.00     0.044 A 
HETATM   15  C   UNL     1      -5.974  -3.277 -34.692  1.00  0.00    -0.053 A 
HETATM   16  C   UNL     1      -4.701  -3.258 -34.093  1.00  0.00    -0.056 A 
HETATM   17  C   UNL     1      -6.496  -4.497 -35.402  1.00  0.00     0.049 C 
HETATM   18  C   UNL     1      -3.785  -4.450 -34.149  1.00  0.00     0.049 C 
HETATM   19  C   UNL     1      -4.265  -2.085 -33.457  1.00  0.00     0.010 A 
HETATM   20  C   UNL     1      -5.094  -0.963 -33.376  1.00  0.00     0.037 A 
ENDBRANCH  12  13
ENDBRANCH  11  12
ENDBRANCH   8  11
ENDBRANCH   1   7
BRANCH   4  21
HETATM   21  N   UNL     1      -3.640   6.989 -29.930  1.00  0.00    -0.378 N 
HETATM   22  C   UNL     1      -3.460   8.140 -30.823  1.00  0.00     0.150 C 
HETATM   23  C   UNL     1      -2.334   9.034 -30.265  1.00  0.00     0.255 C 
HETATM   24  N   UNL     1      -2.609   9.440 -28.810  1.00  0.00    -0.064 N 
HETATM   25  H   UNL     1      -3.432  10.051 -28.828  1.00  0.00     0.280 HD
HETATM   26  C   UNL     1      -2.936   8.226 -27.931  1.00  0.00     0.255 C 
HETATM   27  C   UNL     1      -4.029   7.333 -28.556  1.00  0.00     0.150 C 
BRANCH  24  28
HETATM   28  C   UNL     1      -1.466  10.226 -28.207  1.00  0.00     0.273 C 
BRANCH  28  29
HETATM   29  C   UNL     1      -0.429   9.381 -27.520  1.00  0.00    -0.033 A 
HETATM   30  C   UNL     1      -0.171   9.531 -26.150  1.00  0.00     0.009 A 
HETATM   31  C   UNL     1       0.811   8.757 -25.531  1.00  0.00     0.001 A 
HETATM   32  C   UNL     1       1.544   7.830 -26.269  1.00  0.00     0.000 A 
HETATM   33  C   UNL     1       1.296   7.671 -27.630  1.00  0.00     0.001 A 
HETATM   34  C   UNL     1       0.315   8.440 -28.254  1.00  0.00     0.009 A 
ENDBRANCH  28  29
ENDBRANCH  24  28
ENDBRANCH   4  21
TORSDOF 7
ENDMDL
MODEL 8
REMARK VINA RESULT:      -8.3      3.814      6.000
REMARK  7 active torsions:
REMARK  status: ('A' for Active; 'I' for Inactive)
REMARK    1  A    between atoms: C_6  and  O_7 
REMARK    2  A    between atoms: O_7  and  C_8 
REMARK    3  A    between atoms: C_8  and  C_9 
REMARK       I    between atoms: C_9  and  N_10 
REMARK    4  A    between atoms: N_10  and  C_11 
REMARK    5  A    between atoms: C_14  and  N_15 
REMARK    6  A    between atoms: N_18  and  C_20 
REMARK    7  A    between atoms: C_20  and  C_21 
ROOT
HETATM    1  C   UNL     1      -6.991   2.215 -30.953  1.00  0.00     0.034 A 
HETATM    2  C   UNL     1      -5.650   2.526 -31.180  1.00  0.00     0.032 A 
HETATM    3  C   UNL     1      -5.065   3.652 -30.582  1.00  0.00     0.031 A 
HETATM    4  C   UNL     1      -5.802   4.510 -29.753  1.00  0.00     0.030 A 
HETATM    5  C   UNL     1      -7.126   4.150 -29.487  1.00  0.00     0.031 A 
HETATM    6  C   UNL     1      -7.713   3.020 -30.073  1.00  0.00     0.032 A 
ENDROOT
BRANCH   1   7
HETATM    7  N   UNL     1      -7.555   1.152 -31.684  1.00  0.00    -0.325 N 
HETATM    8  C   UNL     1      -8.091   1.205 -32.959  1.00  0.00     0.246 C 
HETATM    9  O   UNL     1      -8.329   2.224 -33.603  1.00  0.00    -0.271 OA
HETATM   10  H   UNL     1      -7.521   0.223 -31.271  1.00  0.00     0.169 HD
BRANCH   8  11
HETATM   11  C   UNL     1      -8.282  -0.171 -33.598  1.00  0.00     0.278 C 
BRANCH  11  12
HETATM   12  O   UNL     1      -7.359  -0.433 -34.653  1.00  0.00    -0.342 OA
BRANCH  12  13
HETATM   13  C   UNL     1      -6.389  -1.353 -34.340  1.00  0.00     0.069 A 
HETATM   14  C   UNL     1      -5.337  -1.139 -33.446  1.00  0.00     0.044 A 
HETATM   15  C   UNL     1      -4.384  -2.142 -33.188  1.00  0.00    -0.053 A 
HETATM   16  C   UNL     1      -4.480  -3.373 -33.862  1.00  0.00    -0.056 A 
HETATM   17  C   UNL     1      -3.258  -1.847 -32.234  1.00  0.00     0.049 C 
HETATM   18  C   UNL     1      -3.471  -4.469 -33.649  1.00  0.00     0.049 C 
HETATM   19  C   UNL     1      -5.561  -3.594 -34.729  1.00  0.00     0.010 A 
HETATM   20  C   UNL     1      -6.510  -2.594 -34.959  1.00  0.00     0.037 A 
ENDBRANCH  12  13
ENDBRANCH  11  12
ENDBRANCH   8  11
ENDBRANCH   1   7
BRANCH   4  21
HETATM   21  N   UNL     1      -5.241   5.704 -29.313  1.00  0.00    -0.378 N 
HETATM   22  C   UNL     1      -4.573   6.589 -30.276  1.00  0.00     0.150 C 
HETATM   23  C   UNL     1      -3.452   7.359 -29.552  1.00  0.00     0.255 C 
HETATM   24  N   UNL     1      -3.988   8.106 -28.323  1.00  0.00    -0.064 N 
HETATM   25  H   UNL     1      -4.612   8.840 -28.676  1.00  0.00     0.280 HD
HETATM   26  C   UNL     1      -4.804   7.186 -27.407  1.00  0.00     0.255 C 
HETATM   27  C   UNL     1      -5.878   6.395 -28.185  1.00  0.00     0.150 C 
BRANCH  24  28
HETATM   28  C   UNL     1      -2.886   8.781 -27.535  1.00  0.00     0.273 C 
BRANCH  28  29
HETATM   29  C   UNL     1      -1.561   8.073 -27.596  1.00  0.00    -0.033 A 
HETATM   30  C   UNL     1      -1.312   6.942 -26.806  1.00  0.00     0.009 A 
HETATM   31  C   UNL     1      -0.069   6.310 -26.854  1.00  0.00     0.001 A 
HETATM   32  C   UNL     1       0.934   6.798 -27.686  1.00  0.00     0.000 A 
HETATM   33  C   UNL     1       0.700   7.920 -28.477  1.00  0.00     0.001 A 
HETATM   34  C   UNL     1      -0.541   8.555 -28.435  1.00  0.00     0.009 A 
ENDBRANCH  28  29
ENDBRANCH  24  28
ENDBRANCH   4  21
TORSDOF 7
ENDMDL
MODEL 9
REMARK VINA RESULT:      -8.3      8.885     13.583
REMARK  7 active torsions:
REMARK  status: ('A' for Active; 'I' for Inactive)
REMARK    1  A    between atoms: C_6  and  O_7 
REMARK    2  A    between atoms: O_7  and  C_8 
REMARK    3  A    between atoms: C_8  and  C_9 
REMARK       I    between atoms: C_9  and  N_10 
REMARK    4  A    between atoms: N_10  and  C_11 
REMARK    5  A    between atoms: C_14  and  N_15 
REMARK    6  A    between atoms: N_18  and  C_20 
REMARK    7  A    between atoms: C_20  and  C_21 
ROOT
HETATM    1  C   UNL     1      -9.325   5.317 -30.131  1.00  0.00     0.034 A 
HETATM    2  C   UNL     1      -8.131   5.386 -30.848  1.00  0.00     0.032 A 
HETATM    3  C   UNL     1      -7.687   4.292 -31.606  1.00  0.00     0.031 A 
HETATM    4  C   UNL     1      -8.413   3.093 -31.661  1.00  0.00     0.030 A 
HETATM    5  C   UNL     1      -9.637   3.063 -30.988  1.00  0.00     0.031 A 
HETATM    6  C   UNL     1     -10.091   4.157 -30.237  1.00  0.00     0.032 A 
ENDROOT
BRANCH   1   7
HETATM    7  N   UNL     1      -9.651   6.395 -29.285  1.00  0.00    -0.325 N 
HETATM    8  C   UNL     1      -8.895   6.893 -28.238  1.00  0.00     0.246 C 
HETATM    9  O   UNL     1      -7.894   6.370 -27.754  1.00  0.00    -0.271 OA
HETATM   10  H   UNL     1     -10.501   6.914 -29.486  1.00  0.00     0.169 HD
BRANCH   8  11
HETATM   11  C   UNL     1      -9.348   8.275 -27.763  1.00  0.00     0.278 C 
BRANCH  11  12
HETATM   12  O   UNL     1      -9.579   8.338 -26.358  1.00  0.00    -0.342 OA
BRANCH  12  13
HETATM   13  C   UNL     1     -10.895   8.194 -25.995  1.00  0.00     0.069 A 
HETATM   14  C   UNL     1     -11.989   8.394 -26.842  1.00  0.00     0.044 A 
HETATM   15  C   UNL     1     -13.308   8.226 -26.381  1.00  0.00    -0.053 A 
HETATM   16  C   UNL     1     -13.529   7.876 -25.036  1.00  0.00    -0.056 A 
HETATM   17  C   UNL     1     -14.448   8.478 -27.331  1.00  0.00     0.049 C 
HETATM   18  C   UNL     1     -14.918   7.715 -24.481  1.00  0.00     0.049 C 
HETATM   19  C   UNL     1     -12.424   7.641 -24.202  1.00  0.00     0.010 A 
HETATM   20  C   UNL     1     -11.120   7.792 -24.681  1.00  0.00     0.037 A 
ENDBRANCH  12  13
ENDBRANCH  11  12
ENDBRANCH   8  11
ENDBRANCH   1   7
BRANCH   4  21
HETATM   21  N   UNL     1      -7.865   1.975 -32.283  1.00  0.00    -0.378 N 
HETATM   22  C   UNL     1      -6.435   1.961 -32.616  1.00  0.00     0.150 C 
HETATM   23  C   UNL     1      -6.224   1.090 -33.870  1.00  0.00     0.255 C 
HETATM   24  N   UNL     1      -6.811  -0.316 -33.683  1.00  0.00    -0.064 N 
HETATM   25  H   UNL     1      -6.248  -0.774 -32.958  1.00  0.00     0.280 HD
HETATM   26  C   UNL     1      -8.264  -0.267 -33.195  1.00  0.00     0.255 C 
HETATM   27  C   UNL     1      -8.437   0.659 -31.971  1.00  0.00     0.150 C 
BRANCH  24  28
HETATM   28  C   UNL     1      -6.712  -1.153 -34.939  1.00  0.00     0.273 C 
BRANCH  28  29
HETATM   29  C   UNL     1      -6.014  -2.471 -34.749  1.00  0.00    -0.033 A 
HETATM   30  C   UNL     1      -6.632  -3.673 -35.122  1.00  0.00     0.009 A 
HETATM   31  C   UNL     1      -5.984  -4.891 -34.918  1.00  0.00     0.001 A 
HETATM   32  C   UNL     1      -4.717  -4.923 -34.339  1.00  0.00     0.000 A 
HETATM   33  C   UNL     1      -4.092  -3.737 -33.965  1.00  0.00     0.001 A 
HETATM   34  C   UNL     1      -4.734  -2.516 -34.169  1.00  0.00     0.009 A 
ENDBRANCH  28  29
ENDBRANCH  24  28
ENDBRANCH   4  21
TORSDOF 7
ENDMDL
MODEL 10
REMARK VINA RESULT:      -8.1     10.606     13.413
REMARK  7 active torsions:
REMARK  status: ('A' for Active; 'I' for Inactive)
REMARK    1  A    between atoms: C_6  and  O_7 
REMARK    2  A    between atoms: O_7  and  C_8 
REMARK    3  A    between atoms: C_8  and  C_9 
REMARK       I    between atoms: C_9  and  N_10 
REMARK    4  A    between atoms: N_10  and  C_11 
REMARK    5  A    between atoms: C_14  and  N_15 
REMARK    6  A    between atoms: N_18  and  C_20 
REMARK    7  A    between atoms: C_20  and  C_21 
ROOT
HETATM    1  C   UNL     1     -12.028   3.737 -34.604  1.00  0.00     0.034 A 
HETATM    2  C   UNL     1     -10.733   4.258 -34.587  1.00  0.00     0.032 A 
HETATM    3  C   UNL     1      -9.623   3.410 -34.453  1.00  0.00     0.031 A 
HETATM    4  C   UNL     1      -9.769   2.022 -34.318  1.00  0.00     0.030 A 
HETATM    5  C   UNL     1     -11.068   1.512 -34.400  1.00  0.00     0.031 A 
HETATM    6  C   UNL     1     -12.181   2.352 -34.545  1.00  0.00     0.032 A 
ENDROOT
BRANCH   1   7
HETATM    7  N   UNL     1     -13.104   4.644 -34.607  1.00  0.00    -0.325 N 
HETATM    8  C   UNL     1     -13.512   5.460 -33.566  1.00  0.00     0.246 C 
HETATM    9  O   UNL     1     -13.116   5.406 -32.404  1.00  0.00    -0.271 OA
HETATM   10  H   UNL     1     -13.614   4.771 -35.477  1.00  0.00     0.169 HD
BRANCH   8  11
HETATM   11  C   UNL     1     -14.465   6.574 -34.002  1.00  0.00     0.278 C 
BRANCH  11  12
HETATM   12  O   UNL     1     -13.822   7.837 -34.154  1.00  0.00    -0.342 OA
BRANCH  12  13
HETATM   13  C   UNL     1     -13.402   8.108 -35.433  1.00  0.00     0.069 A 
HETATM   14  C   UNL     1     -12.069   8.243 -35.829  1.00  0.00     0.044 A 
HETATM   15  C   UNL     1     -11.731   8.525 -37.166  1.00  0.00    -0.053 A 
HETATM   16  C   UNL     1     -12.756   8.699 -38.114  1.00  0.00    -0.056 A 
HETATM   17  C   UNL     1     -10.279   8.683 -37.531  1.00  0.00     0.049 C 
HETATM   18  C   UNL     1     -12.453   9.033 -39.549  1.00  0.00     0.049 C 
HETATM   19  C   UNL     1     -14.090   8.524 -37.716  1.00  0.00     0.010 A 
HETATM   20  C   UNL     1     -14.408   8.224 -36.388  1.00  0.00     0.037 A 
ENDBRANCH  12  13
ENDBRANCH  11  12
ENDBRANCH   8  11
ENDBRANCH   1   7
BRANCH   4  21
HETATM   21  N   UNL     1      -8.665   1.231 -34.021  1.00  0.00    -0.378 N 
HETATM   22  C   UNL     1      -8.411   0.837 -32.630  1.00  0.00     0.150 C 
HETATM   23  C   UNL     1      -6.892   0.673 -32.426  1.00  0.00     0.255 C 
HETATM   24  N   UNL     1      -6.291  -0.304 -33.447  1.00  0.00    -0.064 N 
HETATM   25  H   UNL     1      -6.677  -1.229 -33.229  1.00  0.00     0.280 HD
HETATM   26  C   UNL     1      -6.693   0.053 -34.883  1.00  0.00     0.255 C 
HETATM   27  C   UNL     1      -8.217   0.260 -35.026  1.00  0.00     0.150 C 
BRANCH  24  28
HETATM   28  C   UNL     1      -4.785  -0.397 -33.336  1.00  0.00     0.273 C 
BRANCH  28  29
HETATM   29  C   UNL     1      -4.259  -1.802 -33.240  1.00  0.00    -0.033 A 
HETATM   30  C   UNL     1      -4.529  -2.742 -34.246  1.00  0.00     0.009 A 
HETATM   31  C   UNL     1      -4.055  -4.049 -34.133  1.00  0.00     0.001 A 
HETATM   32  C   UNL     1      -3.311  -4.432 -33.019  1.00  0.00     0.000 A 
HETATM   33  C   UNL     1      -3.034  -3.508 -32.015  1.00  0.00     0.001 A 
HETATM   34  C   UNL     1      -3.503  -2.199 -32.123  1.00  0.00     0.009 A 
ENDBRANCH  28  29
ENDBRANCH  24  28
ENDBRANCH   4  21
TORSDOF 7
ENDMDL
