MODEL 1
REMARK VINA RESULT:     -10.6      0.000      0.000
REMARK  8 active torsions:
REMARK  status: ('A' for Active; 'I' for Inactive)
REMARK    1  A    between atoms: C_4  and  S_5 
REMARK    2  A    between atoms: S_5  and  C_6 
REMARK    3  A    between atoms: C_6  and  C_7 
REMARK       I    between atoms: C_7  and  N_8 
REMARK    4  A    between atoms: N_8  and  C_9 
REMARK    5  A    between atoms: C_11  and  C_12 
REMARK    6  A    between atoms: C_23  and  C_24 
REMARK    7  A    between atoms: C_30  and  C_31 
REMARK       I    between atoms: C_31  and  N_32 
REMARK    8  A    between atoms: N_32  and  C_33 
ROOT
HETATM    1  C   UNL     1      -5.842   7.421 -29.648  1.00  0.00     0.069 C 
HETATM    2  C   UNL     1      -5.187   6.155 -30.133  1.00  0.00     0.019 C 
HETATM    3  N   UNL     1      -6.044   5.097 -30.397  1.00  0.00    -0.353 N 
HETATM    4  C   UNL     1      -5.663   3.815 -30.762  1.00  0.00     0.087 C 
HETATM    5  C   UNL     1      -4.352   3.574 -30.989  1.00  0.00     0.055 C 
HETATM    6  C   UNL     1      -3.766   2.192 -31.228  1.00  0.00     0.019 C 
HETATM    7  N   UNL     1      -3.280   1.045 -31.426  1.00  0.00    -0.096 N 
HETATM    8  C   UNL     1      -3.357   4.736 -31.069  1.00  0.00     0.104 C 
HETATM    9  C   UNL     1      -3.865   6.009 -30.387  1.00  0.00     0.046 C 
HETATM   10  H   UNL     1      -7.045   5.240 -30.283  1.00  0.00     0.166 HD
ENDROOT
BRANCH   4  11
HETATM   11  S   UNL     1      -6.907   2.653 -31.149  1.00  0.00    -0.102 SA
BRANCH  11  12
HETATM   12  C   UNL     1      -6.554   2.121 -32.851  1.00  0.00     0.184 C 
BRANCH  12  13
HETATM   13  C   UNL     1      -6.809   0.616 -33.023  1.00  0.00     0.231 C 
HETATM   14  N   UNL     1      -5.791  -0.063 -33.670  1.00  0.00    -0.327 N 
HETATM   15  H   UNL     1      -5.043   0.527 -34.023  1.00  0.00     0.169 HD
HETATM   16  O   UNL     1      -7.829   0.109 -32.561  1.00  0.00    -0.272 OA
BRANCH  14  17
HETATM   17  C   UNL     1      -5.706  -1.426 -34.007  1.00  0.00     0.035 A 
HETATM   18  C   UNL     1      -4.678  -2.274 -33.594  1.00  0.00     0.045 A 
HETATM   19  C   UNL     1      -4.672  -3.630 -33.971  1.00  0.00     0.050 A 
HETATM   20  C   UNL     1      -5.722  -4.129 -34.759  1.00  0.00     0.016 A 
HETATM   21  C   UNL     1      -6.749  -3.288 -35.174  1.00  0.00     0.003 A 
HETATM   22  C   UNL     1      -6.737  -1.943 -34.804  1.00  0.00     0.029 A 
BRANCH  19  23
HETATM   23  C   UNL     1      -3.567  -4.557 -33.529  1.00  0.00     0.417 C 
HETATM   24  F   UNL     1      -2.781  -4.050 -32.540  1.00  0.00    -0.166 F 
HETATM   25  F   UNL     1      -4.046  -5.742 -33.057  1.00  0.00    -0.166 F 
HETATM   26  F   UNL     1      -2.721  -4.881 -34.547  1.00  0.00    -0.166 F 
ENDBRANCH  19  23
ENDBRANCH  14  17
ENDBRANCH  12  13
ENDBRANCH  11  12
ENDBRANCH   4  11
BRANCH   8  27
HETATM   27  C   UNL     1      -3.025   4.969 -32.553  1.00  0.00    -0.042 A 
HETATM   28  C   UNL     1      -4.034   5.111 -33.520  1.00  0.00     0.027 A 
HETATM   29  C   UNL     1      -3.674   5.273 -34.848  1.00  0.00     0.116 A 
HETATM   30  N   UNL     1      -2.399   5.291 -35.283  1.00  0.00    -0.273 NA
HETATM   31  C   UNL     1      -1.440   5.157 -34.342  1.00  0.00     0.116 A 
HETATM   32  C   UNL     1      -1.695   4.993 -32.988  1.00  0.00     0.027 A 
ENDBRANCH   8  27
BRANCH   9  33
HETATM   33  C   UNL     1      -2.802   7.030 -30.117  1.00  0.00     0.255 C 
HETATM   34  N   UNL     1      -2.068   6.799 -28.973  1.00  0.00    -0.323 N 
HETATM   35  H   UNL     1      -2.299   5.980 -28.427  1.00  0.00     0.169 HD
HETATM   36  O   UNL     1      -2.605   7.919 -30.936  1.00  0.00    -0.268 OA
BRANCH  34  37
HETATM   37  C   UNL     1      -1.025   7.603 -28.458  1.00  0.00     0.035 A 
HETATM   38  C   UNL     1       0.331   7.386 -28.714  1.00  0.00     0.029 A 
HETATM   39  C   UNL     1       1.303   8.234 -28.172  1.00  0.00     0.002 A 
HETATM   40  C   UNL     1       0.929   9.311 -27.375  1.00  0.00     0.000 A 
HETATM   41  C   UNL     1      -0.420   9.538 -27.113  1.00  0.00     0.002 A 
HETATM   42  C   UNL     1      -1.392   8.686 -27.647  1.00  0.00     0.029 A 
ENDBRANCH  34  37
ENDBRANCH   9  33
TORSDOF 8
ENDMDL
MODEL 2
REMARK VINA RESULT:     -10.2      4.250      8.411
REMARK  8 active torsions:
REMARK  status: ('A' for Active; 'I' for Inactive)
REMARK    1  A    between atoms: C_4  and  S_5 
REMARK    2  A    between atoms: S_5  and  C_6 
REMARK    3  A    between atoms: C_6  and  C_7 
REMARK       I    between atoms: C_7  and  N_8 
REMARK    4  A    between atoms: N_8  and  C_9 
REMARK    5  A    between atoms: C_11  and  C_12 
REMARK    6  A    between atoms: C_23  and  C_24 
REMARK    7  A    between atoms: C_30  and  C_31 
REMARK       I    between atoms: C_31  and  N_32 
REMARK    8  A    between atoms: N_32  and  C_33 
ROOT
HETATM    1  C   UNL     1      -7.841   0.165 -34.987  1.00  0.00     0.069 C 
HETATM    2  C   UNL     1      -7.682   1.126 -33.837  1.00  0.00     0.019 C 
HETATM    3  N   UNL     1      -6.421   1.684 -33.690  1.00  0.00    -0.353 N 
HETATM    4  C   UNL     1      -6.016   2.515 -32.658  1.00  0.00     0.087 C 
HETATM    5  C   UNL     1      -6.941   2.919 -31.757  1.00  0.00     0.055 C 
HETATM    6  C   UNL     1      -6.617   3.687 -30.486  1.00  0.00     0.019 C 
HETATM    7  N   UNL     1      -6.349   4.324 -29.431  1.00  0.00    -0.096 N 
HETATM    8  C   UNL     1      -8.429   2.655 -32.009  1.00  0.00     0.104 C 
HETATM    9  C   UNL     1      -8.676   1.521 -33.007  1.00  0.00     0.046 C 
HETATM   10  H   UNL     1      -5.700   1.445 -34.367  1.00  0.00     0.166 HD
ENDROOT
BRANCH   4  11
HETATM   11  S   UNL     1      -4.408   3.195 -32.713  1.00  0.00    -0.102 SA
BRANCH  11  12
HETATM   12  C   UNL     1      -3.468   2.307 -31.435  1.00  0.00     0.184 C 
BRANCH  12  13
HETATM   13  C   UNL     1      -3.883   0.829 -31.373  1.00  0.00     0.231 C 
HETATM   14  N   UNL     1      -3.421   0.064 -32.430  1.00  0.00    -0.327 N 
HETATM   15  H   UNL     1      -2.937   0.587 -33.154  1.00  0.00     0.169 HD
HETATM   16  O   UNL     1      -4.531   0.413 -30.415  1.00  0.00    -0.272 OA
BRANCH  14  17
HETATM   17  C   UNL     1      -3.627  -1.302 -32.694  1.00  0.00     0.035 A 
HETATM   18  C   UNL     1      -4.499  -1.790 -33.667  1.00  0.00     0.045 A 
HETATM   19  C   UNL     1      -4.643  -3.175 -33.872  1.00  0.00     0.050 A 
HETATM   20  C   UNL     1      -3.888  -4.067 -33.094  1.00  0.00     0.016 A 
HETATM   21  C   UNL     1      -3.018  -3.586 -32.121  1.00  0.00     0.003 A 
HETATM   22  C   UNL     1      -2.894  -2.212 -31.920  1.00  0.00     0.029 A 
BRANCH  19  23
HETATM   23  C   UNL     1      -5.581  -3.714 -34.924  1.00  0.00     0.417 C 
HETATM   24  F   UNL     1      -6.899  -3.544 -34.631  1.00  0.00    -0.166 F 
HETATM   25  F   UNL     1      -5.388  -3.127 -36.138  1.00  0.00    -0.166 F 
HETATM   26  F   UNL     1      -5.416  -5.051 -35.132  1.00  0.00    -0.166 F 
ENDBRANCH  19  23
ENDBRANCH  14  17
ENDBRANCH  12  13
ENDBRANCH  11  12
ENDBRANCH   4  11
BRANCH   8  27
HETATM   27  C   UNL     1      -9.071   3.976 -32.465  1.00  0.00    -0.042 A 
HETATM   28  C   UNL     1     -10.034   4.635 -31.684  1.00  0.00     0.027 A 
HETATM   29  C   UNL     1     -10.611   5.798 -32.167  1.00  0.00     0.116 A 
HETATM   30  N   UNL     1     -10.314   6.342 -33.363  1.00  0.00    -0.273 NA
HETATM   31  C   UNL     1      -9.383   5.700 -34.102  1.00  0.00     0.116 A 
HETATM   32  C   UNL     1      -8.745   4.533 -33.707  1.00  0.00     0.027 A 
ENDBRANCH   8  27
BRANCH   9  33
HETATM   33  C   UNL     1     -10.077   0.987 -33.000  1.00  0.00     0.255 C 
HETATM   34  N   UNL     1     -11.026   1.873 -33.462  1.00  0.00    -0.323 N 
HETATM   35  H   UNL     1     -10.708   2.784 -33.762  1.00  0.00     0.169 HD
HETATM   36  O   UNL     1     -10.270  -0.179 -32.679  1.00  0.00    -0.268 OA
BRANCH  34  37
HETATM   37  C   UNL     1     -12.420   1.655 -33.545  1.00  0.00     0.035 A 
HETATM   38  C   UNL     1     -13.011   0.635 -34.297  1.00  0.00     0.029 A 
HETATM   39  C   UNL     1     -14.401   0.482 -34.320  1.00  0.00     0.002 A 
HETATM   40  C   UNL     1     -15.214   1.339 -33.586  1.00  0.00     0.000 A 
HETATM   41  C   UNL     1     -14.638   2.357 -32.832  1.00  0.00     0.002 A 
HETATM   42  C   UNL     1     -13.249   2.518 -32.816  1.00  0.00     0.029 A 
ENDBRANCH  34  37
ENDBRANCH   9  33
TORSDOF 8
ENDMDL
MODEL 3
REMARK VINA RESULT:     -10.1      1.320      1.935
REMARK  8 active torsions:
REMARK  status: ('A' for Active; 'I' for Inactive)
REMARK    1  A    between atoms: C_4  and  S_5 
REMARK    2  A    between atoms: S_5  and  C_6 
REMARK    3  A    between atoms: C_6  and  C_7 
REMARK       I    between atoms: C_7  and  N_8 
REMARK    4  A    between atoms: N_8  and  C_9 
REMARK    5  A    between atoms: C_11  and  C_12 
REMARK    6  A    between atoms: C_23  and  C_24 
REMARK    7  A    between atoms: C_30  and  C_31 
REMARK       I    between atoms: C_31  and  N_32 
REMARK    8  A    between atoms: N_32  and  C_33 
ROOT
HETATM    1  C   UNL     1      -6.185   7.346 -29.946  1.00  0.00     0.069 C 
HETATM    2  C   UNL     1      -5.441   6.100 -30.348  1.00  0.00     0.019 C 
HETATM    3  N   UNL     1      -6.230   5.007 -30.673  1.00  0.00    -0.353 N 
HETATM    4  C   UNL     1      -5.770   3.736 -30.980  1.00  0.00     0.087 C 
HETATM    5  C   UNL     1      -4.436   3.542 -31.082  1.00  0.00     0.055 C 
HETATM    6  C   UNL     1      -3.780   2.181 -31.243  1.00  0.00     0.019 C 
HETATM    7  N   UNL     1      -3.235   1.051 -31.377  1.00  0.00    -0.096 N 
HETATM    8  C   UNL     1      -3.481   4.740 -31.088  1.00  0.00     0.104 C 
HETATM    9  C   UNL     1      -4.097   6.001 -30.476  1.00  0.00     0.046 C 
HETATM   10  H   UNL     1      -7.242   5.112 -30.654  1.00  0.00     0.166 HD
ENDROOT
BRANCH   4  11
HETATM   11  S   UNL     1      -6.929   2.522 -31.462  1.00  0.00    -0.102 SA
BRANCH  11  12
HETATM   12  C   UNL     1      -7.101   2.710 -33.262  1.00  0.00     0.184 C 
BRANCH  12  13
HETATM   13  C   UNL     1      -6.814   1.385 -33.985  1.00  0.00     0.231 C 
HETATM   14  N   UNL     1      -6.049   0.493 -33.253  1.00  0.00    -0.327 N 
HETATM   15  H   UNL     1      -5.704   0.854 -32.368  1.00  0.00     0.169 HD
HETATM   16  O   UNL     1      -7.292   1.176 -35.098  1.00  0.00    -0.272 OA
BRANCH  14  17
HETATM   17  C   UNL     1      -5.590  -0.787 -33.614  1.00  0.00     0.035 A 
HETATM   18  C   UNL     1      -6.410  -1.806 -34.099  1.00  0.00     0.045 A 
HETATM   19  C   UNL     1      -5.868  -3.060 -34.443  1.00  0.00     0.050 A 
HETATM   20  C   UNL     1      -4.487  -3.272 -34.306  1.00  0.00     0.016 A 
HETATM   21  C   UNL     1      -3.665  -2.259 -33.822  1.00  0.00     0.003 A 
HETATM   22  C   UNL     1      -4.216  -1.027 -33.473  1.00  0.00     0.029 A 
BRANCH  19  23
HETATM   23  C   UNL     1      -6.744  -4.168 -34.971  1.00  0.00     0.417 C 
HETATM   24  F   UNL     1      -7.422  -3.846 -36.106  1.00  0.00    -0.166 F 
HETATM   25  F   UNL     1      -6.032  -5.292 -35.267  1.00  0.00    -0.166 F 
HETATM   26  F   UNL     1      -7.690  -4.558 -34.071  1.00  0.00    -0.166 F 
ENDBRANCH  19  23
ENDBRANCH  14  17
ENDBRANCH  12  13
ENDBRANCH  11  12
ENDBRANCH   4  11
BRANCH   8  27
HETATM   27  C   UNL     1      -3.021   4.967 -32.538  1.00  0.00    -0.042 A 
HETATM   28  C   UNL     1      -3.940   5.048 -33.598  1.00  0.00     0.027 A 
HETATM   29  C   UNL     1      -3.464   5.207 -34.889  1.00  0.00     0.116 A 
HETATM   30  N   UNL     1      -2.156   5.278 -35.203  1.00  0.00    -0.273 NA
HETATM   31  C   UNL     1      -1.284   5.202 -34.174  1.00  0.00     0.116 A 
HETATM   32  C   UNL     1      -1.659   5.047 -32.847  1.00  0.00     0.027 A 
ENDBRANCH   8  27
BRANCH   9  33
HETATM   33  C   UNL     1      -3.102   7.066 -30.125  1.00  0.00     0.255 C 
HETATM   34  N   UNL     1      -2.262   6.739 -29.083  1.00  0.00    -0.323 N 
HETATM   35  H   UNL     1      -2.381   5.831 -28.654  1.00  0.00     0.169 HD
HETATM   36  O   UNL     1      -3.044   8.080 -30.810  1.00  0.00    -0.268 OA
BRANCH  34  37
HETATM   37  C   UNL     1      -1.250   7.551 -28.522  1.00  0.00     0.035 A 
HETATM   38  C   UNL     1      -1.489   8.592 -27.621  1.00  0.00     0.029 A 
HETATM   39  C   UNL     1      -0.429   9.345 -27.105  1.00  0.00     0.002 A 
HETATM   40  C   UNL     1       0.880   9.061 -27.478  1.00  0.00     0.000 A 
HETATM   41  C   UNL     1       1.132   8.025 -28.374  1.00  0.00     0.002 A 
HETATM   42  C   UNL     1       0.072   7.278 -28.898  1.00  0.00     0.029 A 
ENDBRANCH  34  37
ENDBRANCH   9  33
TORSDOF 8
ENDMDL
MODEL 4
REMARK VINA RESULT:     -10.0      5.622      9.594
REMARK  8 active torsions:
REMARK  status: ('A' for Active; 'I' for Inactive)
REMARK    1  A    between atoms: C_4  and  S_5 
REMARK    2  A    between atoms: S_5  and  C_6 
REMARK    3  A    between atoms: C_6  and  C_7 
REMARK       I    between atoms: C_7  and  N_8 
REMARK    4  A    between atoms: N_8  and  C_9 
REMARK    5  A    between atoms: C_11  and  C_12 
REMARK    6  A    between atoms: C_23  and  C_24 
REMARK    7  A    between atoms: C_30  and  C_31 
REMARK       I    between atoms: C_31  and  N_32 
REMARK    8  A    between atoms: N_32  and  C_33 
ROOT
HETATM    1  C   UNL     1     -10.201   0.299 -33.100  1.00  0.00     0.069 C 
HETATM    2  C   UNL     1      -9.126   1.354 -33.120  1.00  0.00     0.019 C 
HETATM    3  N   UNL     1      -9.434   2.540 -32.471  1.00  0.00    -0.353 N 
HETATM    4  C   UNL     1      -8.643   3.677 -32.439  1.00  0.00     0.087 C 
HETATM    5  C   UNL     1      -7.410   3.619 -32.992  1.00  0.00     0.055 C 
HETATM    6  C   UNL     1      -6.502   4.823 -33.182  1.00  0.00     0.019 C 
HETATM    7  N   UNL     1      -5.748   5.821 -33.341  1.00  0.00    -0.096 N 
HETATM    8  C   UNL     1      -6.824   2.273 -33.427  1.00  0.00     0.104 C 
HETATM    9  C   UNL     1      -7.890   1.198 -33.653  1.00  0.00     0.046 C 
HETATM   10  H   UNL     1     -10.334   2.619 -32.001  1.00  0.00     0.166 HD
ENDROOT
BRANCH   4  11
HETATM   11  S   UNL     1      -9.172   5.035 -31.476  1.00  0.00    -0.102 SA
BRANCH  11  12
HETATM   12  C   UNL     1     -10.142   6.076 -32.608  1.00  0.00     0.184 C 
BRANCH  12  13
HETATM   13  C   UNL     1     -11.348   5.307 -33.167  1.00  0.00     0.231 C 
HETATM   14  N   UNL     1     -12.028   4.554 -32.224  1.00  0.00    -0.327 N 
HETATM   15  H   UNL     1     -11.600   4.537 -31.303  1.00  0.00     0.169 HD
HETATM   16  O   UNL     1     -11.661   5.429 -34.349  1.00  0.00    -0.272 OA
BRANCH  14  17
HETATM   17  C   UNL     1     -13.151   3.724 -32.394  1.00  0.00     0.035 A 
HETATM   18  C   UNL     1     -13.150   2.545 -33.139  1.00  0.00     0.045 A 
HETATM   19  C   UNL     1     -14.318   1.767 -33.253  1.00  0.00     0.050 A 
HETATM   20  C   UNL     1     -15.487   2.183 -32.596  1.00  0.00     0.016 A 
HETATM   21  C   UNL     1     -15.494   3.358 -31.852  1.00  0.00     0.003 A 
HETATM   22  C   UNL     1     -14.334   4.126 -31.758  1.00  0.00     0.029 A 
BRANCH  19  23
HETATM   23  C   UNL     1     -14.328   0.488 -34.054  1.00  0.00     0.417 C 
HETATM   24  F   UNL     1     -13.364   0.428 -35.013  1.00  0.00    -0.166 F 
HETATM   25  F   UNL     1     -14.148  -0.612 -33.272  1.00  0.00    -0.166 F 
HETATM   26  F   UNL     1     -15.510   0.290 -34.703  1.00  0.00    -0.166 F 
ENDBRANCH  19  23
ENDBRANCH  14  17
ENDBRANCH  12  13
ENDBRANCH  11  12
ENDBRANCH   4  11
BRANCH   8  27
HETATM   27  C   UNL     1      -5.789   1.847 -32.372  1.00  0.00    -0.042 A 
HETATM   28  C   UNL     1      -4.411   1.855 -32.647  1.00  0.00     0.027 A 
HETATM   29  C   UNL     1      -3.529   1.417 -31.672  1.00  0.00     0.116 A 
HETATM   30  N   UNL     1      -3.912   0.965 -30.462  1.00  0.00    -0.273 NA
HETATM   31  C   UNL     1      -5.239   0.967 -30.211  1.00  0.00     0.116 A 
HETATM   32  C   UNL     1      -6.202   1.388 -31.117  1.00  0.00     0.027 A 
ENDBRANCH   8  27
BRANCH   9  33
HETATM   33  C   UNL     1      -7.412   0.005 -34.423  1.00  0.00     0.255 C 
HETATM   34  N   UNL     1      -6.891  -1.004 -33.643  1.00  0.00    -0.323 N 
HETATM   35  H   UNL     1      -6.878  -0.862 -32.643  1.00  0.00     0.169 HD
HETATM   36  O   UNL     1      -7.582  -0.031 -35.635  1.00  0.00    -0.268 OA
BRANCH  34  37
HETATM   37  C   UNL     1      -6.345  -2.228 -34.094  1.00  0.00     0.035 A 
HETATM   38  C   UNL     1      -7.100  -3.271 -34.636  1.00  0.00     0.029 A 
HETATM   39  C   UNL     1      -6.481  -4.449 -35.067  1.00  0.00     0.002 A 
HETATM   40  C   UNL     1      -5.101  -4.594 -34.968  1.00  0.00     0.000 A 
HETATM   41  C   UNL     1      -4.337  -3.561 -34.431  1.00  0.00     0.002 A 
HETATM   42  C   UNL     1      -4.956  -2.386 -33.991  1.00  0.00     0.029 A 
ENDBRANCH  34  37
ENDBRANCH   9  33
TORSDOF 8
ENDMDL
MODEL 5
REMARK VINA RESULT:      -9.8      2.563      4.102
REMARK  8 active torsions:
REMARK  status: ('A' for Active; 'I' for Inactive)
REMARK    1  A    between atoms: C_4  and  S_5 
REMARK    2  A    between atoms: S_5  and  C_6 
REMARK    3  A    between atoms: C_6  and  C_7 
REMARK       I    between atoms: C_7  and  N_8 
REMARK    4  A    between atoms: N_8  and  C_9 
REMARK    5  A    between atoms: C_11  and  C_12 
REMARK    6  A    between atoms: C_23  and  C_24 
REMARK    7  A    between atoms: C_30  and  C_31 
REMARK       I    between atoms: C_31  and  N_32 
REMARK    8  A    between atoms: N_32  and  C_33 
ROOT
HETATM    1  C   UNL     1      -4.216   1.572 -30.818  1.00  0.00     0.069 C 
HETATM    2  C   UNL     1      -5.227   2.475 -31.474  1.00  0.00     0.019 C 
HETATM    3  N   UNL     1      -6.550   2.069 -31.373  1.00  0.00    -0.353 N 
HETATM    4  C   UNL     1      -7.636   2.686 -31.974  1.00  0.00     0.087 C 
HETATM    5  C   UNL     1      -7.431   3.848 -32.636  1.00  0.00     0.055 C 
HETATM    6  C   UNL     1      -8.484   4.547 -33.481  1.00  0.00     0.019 C 
HETATM    7  N   UNL     1      -9.356   5.127 -34.183  1.00  0.00    -0.096 N 
HETATM    8  C   UNL     1      -6.086   4.572 -32.523  1.00  0.00     0.104 C 
HETATM    9  C   UNL     1      -4.946   3.655 -32.076  1.00  0.00     0.046 C 
HETATM   10  H   UNL     1      -6.763   1.224 -30.848  1.00  0.00     0.166 HD
ENDROOT
BRANCH   4  11
HETATM   11  S   UNL     1      -9.236   2.074 -31.637  1.00  0.00    -0.102 SA
BRANCH  11  12
HETATM   12  C   UNL     1      -9.792   1.303 -33.187  1.00  0.00     0.184 C 
BRANCH  12  13
HETATM   13  C   UNL     1      -8.615   0.654 -33.931  1.00  0.00     0.231 C 
HETATM   14  N   UNL     1      -8.018  -0.392 -33.248  1.00  0.00    -0.327 N 
HETATM   15  H   UNL     1      -8.375  -0.546 -32.309  1.00  0.00     0.169 HD
HETATM   16  O   UNL     1      -8.309   1.043 -35.056  1.00  0.00    -0.272 OA
BRANCH  14  17
HETATM   17  C   UNL     1      -6.919  -1.185 -33.623  1.00  0.00     0.035 A 
HETATM   18  C   UNL     1      -7.024  -2.426 -34.251  1.00  0.00     0.045 A 
HETATM   19  C   UNL     1      -5.871  -3.154 -34.600  1.00  0.00     0.050 A 
HETATM   20  C   UNL     1      -4.606  -2.612 -34.321  1.00  0.00     0.016 A 
HETATM   21  C   UNL     1      -4.495  -1.375 -33.694  1.00  0.00     0.003 A 
HETATM   22  C   UNL     1      -5.645  -0.670 -33.343  1.00  0.00     0.029 A 
BRANCH  19  23
HETATM   23  C   UNL     1      -5.973  -4.496 -35.282  1.00  0.00     0.417 C 
HETATM   24  F   UNL     1      -7.199  -5.077 -35.182  1.00  0.00    -0.166 F 
HETATM   25  F   UNL     1      -5.702  -4.419 -36.615  1.00  0.00    -0.166 F 
HETATM   26  F   UNL     1      -5.089  -5.404 -34.778  1.00  0.00    -0.166 F 
ENDBRANCH  19  23
ENDBRANCH  14  17
ENDBRANCH  12  13
ENDBRANCH  11  12
ENDBRANCH   4  11
BRANCH   8  27
HETATM   27  C   UNL     1      -6.274   5.766 -31.571  1.00  0.00    -0.042 A 
HETATM   28  C   UNL     1      -5.995   7.082 -31.975  1.00  0.00     0.027 A 
HETATM   29  C   UNL     1      -6.139   8.112 -31.060  1.00  0.00     0.116 A 
HETATM   30  N   UNL     1      -6.524   7.930 -29.781  1.00  0.00    -0.273 NA
HETATM   31  C   UNL     1      -6.792   6.661 -29.407  1.00  0.00     0.116 A 
HETATM   32  C   UNL     1      -6.682   5.562 -30.248  1.00  0.00     0.027 A 
ENDBRANCH   8  27
BRANCH   9  33
HETATM   33  C   UNL     1      -3.575   4.215 -32.308  1.00  0.00     0.255 C 
HETATM   34  N   UNL     1      -3.011   4.815 -31.204  1.00  0.00    -0.323 N 
HETATM   35  H   UNL     1      -3.552   4.826 -30.350  1.00  0.00     0.169 HD
HETATM   36  O   UNL     1      -3.033   4.038 -33.392  1.00  0.00    -0.268 OA
BRANCH  34  37
HETATM   37  C   UNL     1      -1.748   5.448 -31.135  1.00  0.00     0.035 A 
HETATM   38  C   UNL     1      -0.580   4.819 -30.697  1.00  0.00     0.029 A 
HETATM   39  C   UNL     1       0.634   5.514 -30.667  1.00  0.00     0.002 A 
HETATM   40  C   UNL     1       0.694   6.841 -31.080  1.00  0.00     0.000 A 
HETATM   41  C   UNL     1      -0.463   7.478 -31.519  1.00  0.00     0.002 A 
HETATM   42  C   UNL     1      -1.679   6.787 -31.541  1.00  0.00     0.029 A 
ENDBRANCH  34  37
ENDBRANCH   9  33
TORSDOF 8
ENDMDL
MODEL 6
REMARK VINA RESULT:      -9.7      2.806      4.665
REMARK  8 active torsions:
REMARK  status: ('A' for Active; 'I' for Inactive)
REMARK    1  A    between atoms: C_4  and  S_5 
REMARK    2  A    between atoms: S_5  and  C_6 
REMARK    3  A    between atoms: C_6  and  C_7 
REMARK       I    between atoms: C_7  and  N_8 
REMARK    4  A    between atoms: N_8  and  C_9 
REMARK    5  A    between atoms: C_11  and  C_12 
REMARK    6  A    between atoms: C_23  and  C_24 
REMARK    7  A    between atoms: C_30  and  C_31 
REMARK       I    between atoms: C_31  and  N_32 
REMARK    8  A    between atoms: N_32  and  C_33 
ROOT
HETATM    1  C   UNL     1      -5.349   1.964 -30.110  1.00  0.00     0.069 C 
HETATM    2  C   UNL     1      -6.229   2.793 -31.008  1.00  0.00     0.019 C 
HETATM    3  N   UNL     1      -7.399   2.182 -31.435  1.00  0.00    -0.353 N 
HETATM    4  C   UNL     1      -8.311   2.712 -32.334  1.00  0.00     0.087 C 
HETATM    5  C   UNL     1      -8.123   3.979 -32.769  1.00  0.00     0.055 C 
HETATM    6  C   UNL     1      -8.936   4.632 -33.875  1.00  0.00     0.019 C 
HETATM    7  N   UNL     1      -9.610   5.174 -34.793  1.00  0.00    -0.096 N 
HETATM    8  C   UNL     1      -7.070   4.873 -32.107  1.00  0.00     0.104 C 
HETATM    9  C   UNL     1      -5.996   4.081 -31.357  1.00  0.00     0.046 C 
HETATM   10  H   UNL     1      -7.608   1.244 -31.102  1.00  0.00     0.166 HD
ENDROOT
BRANCH   4  11
HETATM   11  S   UNL     1      -9.775   1.820 -32.663  1.00  0.00    -0.102 SA
BRANCH  11  12
HETATM   12  C   UNL     1      -9.573   1.169 -34.348  1.00  0.00     0.184 C 
BRANCH  12  13
HETATM   13  C   UNL     1      -8.146   0.644 -34.568  1.00  0.00     0.231 C 
HETATM   14  N   UNL     1      -7.848  -0.506 -33.857  1.00  0.00    -0.327 N 
HETATM   15  H   UNL     1      -8.576  -0.812 -33.218  1.00  0.00     0.169 HD
HETATM   16  O   UNL     1      -7.396   1.214 -35.358  1.00  0.00    -0.272 OA
BRANCH  14  17
HETATM   17  C   UNL     1      -6.645  -1.234 -33.810  1.00  0.00     0.035 A 
HETATM   18  C   UNL     1      -5.590  -0.950 -32.942  1.00  0.00     0.045 A 
HETATM   19  C   UNL     1      -4.420  -1.733 -32.955  1.00  0.00     0.050 A 
HETATM   20  C   UNL     1      -4.329  -2.817 -33.844  1.00  0.00     0.016 A 
HETATM   21  C   UNL     1      -5.377  -3.103 -34.712  1.00  0.00     0.003 A 
HETATM   22  C   UNL     1      -6.525  -2.312 -34.698  1.00  0.00     0.029 A 
BRANCH  19  23
HETATM   23  C   UNL     1      -3.274  -1.438 -32.020  1.00  0.00     0.417 C 
HETATM   24  F   UNL     1      -3.636  -0.763 -30.895  1.00  0.00    -0.166 F 
HETATM   25  F   UNL     1      -2.651  -2.572 -31.593  1.00  0.00    -0.166 F 
HETATM   26  F   UNL     1      -2.303  -0.684 -32.609  1.00  0.00    -0.166 F 
ENDBRANCH  19  23
ENDBRANCH  14  17
ENDBRANCH  12  13
ENDBRANCH  11  12
ENDBRANCH   4  11
BRANCH   8  27
HETATM   27  C   UNL     1      -7.805   5.863 -31.188  1.00  0.00    -0.042 A 
HETATM   28  C   UNL     1      -8.569   5.424 -30.094  1.00  0.00     0.027 A 
HETATM   29  C   UNL     1      -9.247   6.360 -29.329  1.00  0.00     0.116 A 
HETATM   30  N   UNL     1      -9.231   7.684 -29.575  1.00  0.00    -0.273 NA
HETATM   31  C   UNL     1      -8.489   8.092 -30.628  1.00  0.00     0.116 A 
HETATM   32  C   UNL     1      -7.772   7.237 -31.452  1.00  0.00     0.027 A 
ENDBRANCH   8  27
BRANCH   9  33
HETATM   33  C   UNL     1      -4.768   4.871 -31.021  1.00  0.00     0.255 C 
HETATM   34  N   UNL     1      -3.841   4.944 -32.038  1.00  0.00    -0.323 N 
HETATM   35  H   UNL     1      -4.061   4.472 -32.905  1.00  0.00     0.169 HD
HETATM   36  O   UNL     1      -4.705   5.449 -29.942  1.00  0.00    -0.268 OA
BRANCH  34  37
HETATM   37  C   UNL     1      -2.587   5.596 -31.998  1.00  0.00     0.035 A 
HETATM   38  C   UNL     1      -2.369   6.903 -32.440  1.00  0.00     0.029 A 
HETATM   39  C   UNL     1      -1.097   7.480 -32.358  1.00  0.00     0.002 A 
HETATM   40  C   UNL     1      -0.033   6.759 -31.827  1.00  0.00     0.000 A 
HETATM   41  C   UNL     1      -0.237   5.455 -31.383  1.00  0.00     0.002 A 
HETATM   42  C   UNL     1      -1.506   4.874 -31.472  1.00  0.00     0.029 A 
ENDBRANCH  34  37
ENDBRANCH   9  33
TORSDOF 8
ENDMDL
MODEL 7
REMARK VINA RESULT:      -9.7      2.242      4.198
REMARK  8 active torsions:
REMARK  status: ('A' for Active; 'I' for Inactive)
REMARK    1  A    between atoms: C_4  and  S_5 
REMARK    2  A    between atoms: S_5  and  C_6 
REMARK    3  A    between atoms: C_6  and  C_7 
REMARK       I    between atoms: C_7  and  N_8 
REMARK    4  A    between atoms: N_8  and  C_9 
REMARK    5  A    between atoms: C_11  and  C_12 
REMARK    6  A    between atoms: C_23  and  C_24 
REMARK    7  A    between atoms: C_30  and  C_31 
REMARK       I    between atoms: C_31  and  N_32 
REMARK    8  A    between atoms: N_32  and  C_33 
ROOT
HETATM    1  C   UNL     1      -4.172   2.831 -32.342  1.00  0.00     0.069 C 
HETATM    2  C   UNL     1      -5.285   3.846 -32.326  1.00  0.00     0.019 C 
HETATM    3  N   UNL     1      -6.565   3.337 -32.493  1.00  0.00    -0.353 N 
HETATM    4  C   UNL     1      -7.727   4.084 -32.604  1.00  0.00     0.087 C 
HETATM    5  C   UNL     1      -7.649   5.424 -32.434  1.00  0.00     0.055 C 
HETATM    6  C   UNL     1      -8.797   6.386 -32.692  1.00  0.00     0.019 C 
HETATM    7  N   UNL     1      -9.750   7.184 -32.906  1.00  0.00    -0.096 N 
HETATM    8  C   UNL     1      -6.360   6.060 -31.904  1.00  0.00     0.104 C 
HETATM    9  C   UNL     1      -5.129   5.171 -32.096  1.00  0.00     0.046 C 
HETATM   10  H   UNL     1      -6.682   2.330 -32.583  1.00  0.00     0.166 HD
ENDROOT
BRANCH   4  11
HETATM   11  S   UNL     1      -9.254   3.243 -32.708  1.00  0.00    -0.102 SA
BRANCH  11  12
HETATM   12  C   UNL     1      -9.091   2.126 -34.133  1.00  0.00     0.184 C 
BRANCH  12  13
HETATM   13  C   UNL     1      -8.429   0.802 -33.722  1.00  0.00     0.231 C 
HETATM   14  N   UNL     1      -7.229   0.544 -34.363  1.00  0.00    -0.327 N 
HETATM   15  H   UNL     1      -6.977   1.216 -35.082  1.00  0.00     0.169 HD
HETATM   16  O   UNL     1      -8.946   0.098 -32.857  1.00  0.00    -0.272 OA
BRANCH  14  17
HETATM   17  C   UNL     1      -6.379  -0.570 -34.242  1.00  0.00     0.035 A 
HETATM   18  C   UNL     1      -6.728  -1.868 -34.616  1.00  0.00     0.045 A 
HETATM   19  C   UNL     1      -5.814  -2.928 -34.466  1.00  0.00     0.050 A 
HETATM   20  C   UNL     1      -4.536  -2.665 -33.947  1.00  0.00     0.016 A 
HETATM   21  C   UNL     1      -4.183  -1.374 -33.570  1.00  0.00     0.003 A 
HETATM   22  C   UNL     1      -5.103  -0.335 -33.712  1.00  0.00     0.029 A 
BRANCH  19  23
HETATM   23  C   UNL     1      -6.179  -4.335 -34.871  1.00  0.00     0.417 C 
HETATM   24  F   UNL     1      -6.250  -4.524 -36.217  1.00  0.00    -0.166 F 
HETATM   25  F   UNL     1      -5.284  -5.253 -34.410  1.00  0.00    -0.166 F 
HETATM   26  F   UNL     1      -7.389  -4.721 -34.377  1.00  0.00    -0.166 F 
ENDBRANCH  19  23
ENDBRANCH  14  17
ENDBRANCH  12  13
ENDBRANCH  11  12
ENDBRANCH   4  11
BRANCH   8  27
HETATM   27  C   UNL     1      -6.588   6.421 -30.426  1.00  0.00    -0.042 A 
HETATM   28  C   UNL     1      -6.817   5.433 -29.454  1.00  0.00     0.027 A 
HETATM   29  C   UNL     1      -7.061   5.821 -28.147  1.00  0.00     0.116 A 
HETATM   30  N   UNL     1      -7.107   7.104 -27.741  1.00  0.00    -0.273 NA
HETATM   31  C   UNL     1      -6.881   8.043 -28.686  1.00  0.00     0.116 A 
HETATM   32  C   UNL     1      -6.624   7.759 -30.019  1.00  0.00     0.027 A 
ENDBRANCH   8  27
BRANCH   9  33
HETATM   33  C   UNL     1      -3.821   5.886 -31.941  1.00  0.00     0.255 C 
HETATM   34  N   UNL     1      -3.163   5.618 -30.761  1.00  0.00    -0.323 N 
HETATM   35  H   UNL     1      -3.603   4.977 -30.115  1.00  0.00     0.169 HD
HETATM   36  O   UNL     1      -3.398   6.567 -32.868  1.00  0.00    -0.268 OA
BRANCH  34  37
HETATM   37  C   UNL     1      -1.931   6.165 -30.334  1.00  0.00     0.035 A 
HETATM   38  C   UNL     1      -0.680   5.649 -30.686  1.00  0.00     0.029 A 
HETATM   39  C   UNL     1       0.494   6.255 -30.228  1.00  0.00     0.002 A 
HETATM   40  C   UNL     1       0.432   7.386 -29.421  1.00  0.00     0.000 A 
HETATM   41  C   UNL     1      -0.807   7.910 -29.064  1.00  0.00     0.002 A 
HETATM   42  C   UNL     1      -1.983   7.300 -29.514  1.00  0.00     0.029 A 
ENDBRANCH  34  37
ENDBRANCH   9  33
TORSDOF 8
ENDMDL
MODEL 8
REMARK VINA RESULT:      -9.6      3.956      9.492
REMARK  8 active torsions:
REMARK  status: ('A' for Active; 'I' for Inactive)
REMARK    1  A    between atoms: C_4  and  S_5 
REMARK    2  A    between atoms: S_5  and  C_6 
REMARK    3  A    between atoms: C_6  and  C_7 
REMARK       I    between atoms: C_7  and  N_8 
REMARK    4  A    between atoms: N_8  and  C_9 
REMARK    5  A    between atoms: C_11  and  C_12 
REMARK    6  A    between atoms: C_23  and  C_24 
REMARK    7  A    between atoms: C_30  and  C_31 
REMARK       I    between atoms: C_31  and  N_32 
REMARK    8  A    between atoms: N_32  and  C_33 
ROOT
HETATM    1  C   UNL     1      -5.360   3.821 -34.604  1.00  0.00     0.069 C 
HETATM    2  C   UNL     1      -6.597   3.650 -33.761  1.00  0.00     0.019 C 
HETATM    3  N   UNL     1      -6.991   4.766 -33.038  1.00  0.00    -0.353 N 
HETATM    4  C   UNL     1      -8.036   4.818 -32.130  1.00  0.00     0.087 C 
HETATM    5  C   UNL     1      -8.825   3.727 -31.994  1.00  0.00     0.055 C 
HETATM    6  C   UNL     1      -9.895   3.574 -30.926  1.00  0.00     0.019 C 
HETATM    7  N   UNL     1     -10.783   3.447 -30.040  1.00  0.00    -0.096 N 
HETATM    8  C   UNL     1      -8.706   2.562 -32.982  1.00  0.00     0.104 C 
HETATM    9  C   UNL     1      -7.365   2.535 -33.720  1.00  0.00     0.046 C 
HETATM   10  H   UNL     1      -6.456   5.626 -33.138  1.00  0.00     0.166 HD
ENDROOT
BRANCH   4  11
HETATM   11  S   UNL     1      -8.433   6.353 -31.399  1.00  0.00    -0.102 SA
BRANCH  11  12
HETATM   12  C   UNL     1      -7.346   6.489 -29.948  1.00  0.00     0.184 C 
BRANCH  12  13
HETATM   13  C   UNL     1      -5.878   6.255 -30.335  1.00  0.00     0.231 C 
HETATM   14  N   UNL     1      -5.376   7.174 -31.240  1.00  0.00    -0.327 N 
HETATM   15  H   UNL     1      -6.058   7.837 -31.597  1.00  0.00     0.169 HD
HETATM   16  O   UNL     1      -5.243   5.339 -29.816  1.00  0.00    -0.272 OA
BRANCH  14  17
HETATM   17  C   UNL     1      -4.095   7.244 -31.816  1.00  0.00     0.035 A 
HETATM   18  C   UNL     1      -3.625   6.368 -32.795  1.00  0.00     0.045 A 
HETATM   19  C   UNL     1      -2.328   6.512 -33.324  1.00  0.00     0.050 A 
HETATM   20  C   UNL     1      -1.511   7.558 -32.866  1.00  0.00     0.016 A 
HETATM   21  C   UNL     1      -1.974   8.434 -31.890  1.00  0.00     0.003 A 
HETATM   22  C   UNL     1      -3.256   8.273 -31.364  1.00  0.00     0.029 A 
BRANCH  19  23
HETATM   23  C   UNL     1      -1.811   5.572 -34.385  1.00  0.00     0.417 C 
HETATM   24  F   UNL     1      -0.645   5.974 -34.961  1.00  0.00    -0.166 F 
HETATM   25  F   UNL     1      -1.577   4.322 -33.898  1.00  0.00    -0.166 F 
HETATM   26  F   UNL     1      -2.694   5.409 -35.411  1.00  0.00    -0.166 F 
ENDBRANCH  19  23
ENDBRANCH  14  17
ENDBRANCH  12  13
ENDBRANCH  11  12
ENDBRANCH   4  11
BRANCH   8  27
HETATM   27  C   UNL     1      -9.897   2.645 -33.952  1.00  0.00    -0.042 A 
HETATM   28  C   UNL     1     -10.161   3.807 -34.696  1.00  0.00     0.027 A 
HETATM   29  C   UNL     1     -11.275   3.839 -35.519  1.00  0.00     0.116 A 
HETATM   30  N   UNL     1     -12.145   2.818 -35.645  1.00  0.00    -0.273 NA
HETATM   31  C   UNL     1     -11.877   1.707 -34.926  1.00  0.00     0.116 A 
HETATM   32  C   UNL     1     -10.787   1.573 -34.077  1.00  0.00     0.027 A 
ENDBRANCH   8  27
BRANCH   9  33
HETATM   33  C   UNL     1      -7.061   1.236 -34.401  1.00  0.00     0.255 C 
HETATM   34  N   UNL     1      -6.666   0.226 -33.549  1.00  0.00    -0.323 N 
HETATM   35  H   UNL     1      -6.618   0.439 -32.562  1.00  0.00     0.169 HD
HETATM   36  O   UNL     1      -7.254   1.132 -35.605  1.00  0.00    -0.268 OA
BRANCH  34  37
HETATM   37  C   UNL     1      -6.294  -1.090 -33.909  1.00  0.00     0.035 A 
HETATM   38  C   UNL     1      -7.200  -2.085 -34.286  1.00  0.00     0.029 A 
HETATM   39  C   UNL     1      -6.750  -3.362 -34.636  1.00  0.00     0.002 A 
HETATM   40  C   UNL     1      -5.390  -3.655 -34.621  1.00  0.00     0.000 A 
HETATM   41  C   UNL     1      -4.477  -2.672 -34.249  1.00  0.00     0.002 A 
HETATM   42  C   UNL     1      -4.927  -1.397 -33.890  1.00  0.00     0.029 A 
ENDBRANCH  34  37
ENDBRANCH   9  33
TORSDOF 8
ENDMDL
MODEL 9
REMARK VINA RESULT:      -9.6      3.602      9.588
REMARK  8 active torsions:
REMARK  status: ('A' for Active; 'I' for Inactive)
REMARK    1  A    between atoms: C_4  and  S_5 
REMARK    2  A    between atoms: S_5  and  C_6 
REMARK    3  A    between atoms: C_6  and  C_7 
REMARK       I    between atoms: C_7  and  N_8 
REMARK    4  A    between atoms: N_8  and  C_9 
REMARK    5  A    between atoms: C_11  and  C_12 
REMARK    6  A    between atoms: C_23  and  C_24 
REMARK    7  A    between atoms: C_30  and  C_31 
REMARK       I    between atoms: C_31  and  N_32 
REMARK    8  A    between atoms: N_32  and  C_33 
ROOT
HETATM    1  C   UNL     1      -9.753   1.219 -34.061  1.00  0.00     0.069 C 
HETATM    2  C   UNL     1      -8.502   2.052 -33.972  1.00  0.00     0.019 C 
HETATM    3  N   UNL     1      -8.670   3.340 -33.484  1.00  0.00    -0.353 N 
HETATM    4  C   UNL     1      -7.685   4.312 -33.401  1.00  0.00     0.087 C 
HETATM    5  C   UNL     1      -6.416   3.970 -33.720  1.00  0.00     0.055 C 
HETATM    6  C   UNL     1      -5.269   4.961 -33.840  1.00  0.00     0.019 C 
HETATM    7  N   UNL     1      -4.317   5.782 -33.940  1.00  0.00    -0.096 N 
HETATM    8  C   UNL     1      -6.045   2.500 -33.936  1.00  0.00     0.104 C 
HETATM    9  C   UNL     1      -7.253   1.618 -34.262  1.00  0.00     0.046 C 
HETATM   10  H   UNL     1      -9.599   3.633 -33.190  1.00  0.00     0.166 HD
ENDROOT
BRANCH   4  11
HETATM   11  S   UNL     1      -8.082   5.842 -32.659  1.00  0.00    -0.102 SA
BRANCH  11  12
HETATM   12  C   UNL     1      -7.380   5.759 -30.984  1.00  0.00     0.184 C 
BRANCH  12  13
HETATM   13  C   UNL     1      -6.113   6.620 -30.875  1.00  0.00     0.231 C 
HETATM   14  N   UNL     1      -5.014   5.951 -30.364  1.00  0.00    -0.327 N 
HETATM   15  H   UNL     1      -5.201   5.003 -30.050  1.00  0.00     0.169 HD
HETATM   16  O   UNL     1      -6.125   7.785 -31.268  1.00  0.00    -0.272 OA
BRANCH  14  17
HETATM   17  C   UNL     1      -3.717   6.434 -30.115  1.00  0.00     0.035 A 
HETATM   18  C   UNL     1      -2.627   6.232 -30.962  1.00  0.00     0.045 A 
HETATM   19  C   UNL     1      -1.361   6.756 -30.640  1.00  0.00     0.050 A 
HETATM   20  C   UNL     1      -1.206   7.501 -29.460  1.00  0.00     0.016 A 
HETATM   21  C   UNL     1      -2.289   7.706 -28.611  1.00  0.00     0.003 A 
HETATM   22  C   UNL     1      -3.535   7.170 -28.935  1.00  0.00     0.029 A 
BRANCH  19  23
HETATM   23  C   UNL     1      -0.176   6.546 -31.549  1.00  0.00     0.417 C 
HETATM   24  F   UNL     1       0.989   7.064 -31.072  1.00  0.00    -0.166 F 
HETATM   25  F   UNL     1       0.069   5.226 -31.781  1.00  0.00    -0.166 F 
HETATM   26  F   UNL     1      -0.357   7.109 -32.778  1.00  0.00    -0.166 F 
ENDBRANCH  19  23
ENDBRANCH  14  17
ENDBRANCH  12  13
ENDBRANCH  11  12
ENDBRANCH   4  11
BRANCH   8  27
HETATM   27  C   UNL     1      -5.296   2.014 -32.683  1.00  0.00    -0.042 A 
HETATM   28  C   UNL     1      -3.957   1.596 -32.741  1.00  0.00     0.027 A 
HETATM   29  C   UNL     1      -3.349   1.126 -31.589  1.00  0.00     0.116 A 
HETATM   30  N   UNL     1      -3.971   1.029 -30.398  1.00  0.00    -0.273 NA
HETATM   31  C   UNL     1      -5.258   1.438 -30.356  1.00  0.00     0.116 A 
HETATM   32  C   UNL     1      -5.955   1.927 -31.452  1.00  0.00     0.027 A 
ENDBRANCH   8  27
BRANCH   9  33
HETATM   33  C   UNL     1      -6.902   0.280 -34.838  1.00  0.00     0.255 C 
HETATM   34  N   UNL     1      -6.487  -0.649 -33.909  1.00  0.00    -0.323 N 
HETATM   35  H   UNL     1      -6.457  -0.360 -32.941  1.00  0.00     0.169 HD
HETATM   36  O   UNL     1      -7.078   0.078 -36.034  1.00  0.00    -0.268 OA
BRANCH  34  37
HETATM   37  C   UNL     1      -6.071  -1.977 -34.163  1.00  0.00     0.035 A 
HETATM   38  C   UNL     1      -4.751  -2.420 -34.050  1.00  0.00     0.029 A 
HETATM   39  C   UNL     1      -4.423  -3.755 -34.312  1.00  0.00     0.002 A 
HETATM   40  C   UNL     1      -5.412  -4.660 -34.682  1.00  0.00     0.000 A 
HETATM   41  C   UNL     1      -6.732  -4.231 -34.798  1.00  0.00     0.002 A 
HETATM   42  C   UNL     1      -7.059  -2.895 -34.544  1.00  0.00     0.029 A 
ENDBRANCH  34  37
ENDBRANCH   9  33
TORSDOF 8
ENDMDL
MODEL 10
REMARK VINA RESULT:      -9.5      1.983      3.986
REMARK  8 active torsions:
REMARK  status: ('A' for Active; 'I' for Inactive)
REMARK    1  A    between atoms: C_4  and  S_5 
REMARK    2  A    between atoms: S_5  and  C_6 
REMARK    3  A    between atoms: C_6  and  C_7 
REMARK       I    between atoms: C_7  and  N_8 
REMARK    4  A    between atoms: N_8  and  C_9 
REMARK    5  A    between atoms: C_11  and  C_12 
REMARK    6  A    between atoms: C_23  and  C_24 
REMARK    7  A    between atoms: C_30  and  C_31 
REMARK       I    between atoms: C_31  and  N_32 
REMARK    8  A    between atoms: N_32  and  C_33 
ROOT
HETATM    1  C   UNL     1      -1.771   5.230 -32.746  1.00  0.00     0.069 C 
HETATM    2  C   UNL     1      -3.132   5.824 -32.492  1.00  0.00     0.019 C 
HETATM    3  N   UNL     1      -4.201   5.135 -33.046  1.00  0.00    -0.353 N 
HETATM    4  C   UNL     1      -5.526   5.540 -33.023  1.00  0.00     0.087 C 
HETATM    5  C   UNL     1      -5.849   6.646 -32.315  1.00  0.00     0.055 C 
HETATM    6  C   UNL     1      -7.220   7.303 -32.334  1.00  0.00     0.019 C 
HETATM    7  N   UNL     1      -8.357   7.849 -32.351  1.00  0.00    -0.096 N 
HETATM    8  C   UNL     1      -4.820   7.290 -31.381  1.00  0.00     0.104 C 
HETATM    9  C   UNL     1      -3.377   6.911 -31.724  1.00  0.00     0.046 C 
HETATM   10  H   UNL     1      -4.016   4.272 -33.553  1.00  0.00     0.166 HD
ENDROOT
BRANCH   4  11
HETATM   11  S   UNL     1      -6.737   4.474 -33.692  1.00  0.00    -0.102 SA
BRANCH  11  12
HETATM   12  C   UNL     1      -7.528   3.685 -32.258  1.00  0.00     0.184 C 
BRANCH  12  13
HETATM   13  C   UNL     1      -6.969   2.273 -32.027  1.00  0.00     0.231 C 
HETATM   14  N   UNL     1      -6.128   1.824 -33.032  1.00  0.00    -0.327 N 
HETATM   15  H   UNL     1      -6.050   2.445 -33.831  1.00  0.00     0.169 HD
HETATM   16  O   UNL     1      -7.245   1.664 -30.996  1.00  0.00    -0.272 OA
BRANCH  14  17
HETATM   17  C   UNL     1      -5.468   0.588 -33.149  1.00  0.00     0.035 A 
HETATM   18  C   UNL     1      -5.972  -0.508 -33.850  1.00  0.00     0.045 A 
HETATM   19  C   UNL     1      -5.242  -1.710 -33.923  1.00  0.00     0.050 A 
HETATM   20  C   UNL     1      -3.989  -1.793 -33.294  1.00  0.00     0.016 A 
HETATM   21  C   UNL     1      -3.482  -0.703 -32.594  1.00  0.00     0.003 A 
HETATM   22  C   UNL     1      -4.221   0.477 -32.518  1.00  0.00     0.029 A 
BRANCH  19  23
HETATM   23  C   UNL     1      -5.776  -2.901 -34.680  1.00  0.00     0.417 C 
HETATM   24  F   UNL     1      -7.134  -2.957 -34.739  1.00  0.00    -0.166 F 
HETATM   25  F   UNL     1      -5.343  -2.928 -35.972  1.00  0.00    -0.166 F 
HETATM   26  F   UNL     1      -5.379  -4.085 -34.134  1.00  0.00    -0.166 F 
ENDBRANCH  19  23
ENDBRANCH  14  17
ENDBRANCH  12  13
ENDBRANCH  11  12
ENDBRANCH   4  11
BRANCH   8  27
HETATM   27  C   UNL     1      -5.191   6.907 -29.938  1.00  0.00    -0.042 A 
HETATM   28  C   UNL     1      -5.375   5.568 -29.556  1.00  0.00     0.027 A 
HETATM   29  C   UNL     1      -5.753   5.286 -28.253  1.00  0.00     0.116 A 
HETATM   30  N   UNL     1      -5.972   6.228 -27.315  1.00  0.00    -0.273 NA
HETATM   31  C   UNL     1      -5.787   7.511 -27.695  1.00  0.00     0.116 A 
HETATM   32  C   UNL     1      -5.406   7.897 -28.973  1.00  0.00     0.027 A 
ENDBRANCH   8  27
BRANCH   9  33
HETATM   33  C   UNL     1      -2.342   7.791 -31.093  1.00  0.00     0.255 C 
HETATM   34  N   UNL     1      -1.849   7.321 -29.894  1.00  0.00    -0.323 N 
HETATM   35  H   UNL     1      -2.216   6.444 -29.550  1.00  0.00     0.169 HD
HETATM   36  O   UNL     1      -1.953   8.784 -31.695  1.00  0.00    -0.268 OA
BRANCH  34  37
HETATM   37  C   UNL     1      -0.889   7.949 -29.067  1.00  0.00     0.035 A 
HETATM   38  C   UNL     1       0.468   7.617 -29.052  1.00  0.00     0.029 A 
HETATM   39  C   UNL     1       1.357   8.293 -28.209  1.00  0.00     0.002 A 
HETATM   40  C   UNL     1       0.899   9.311 -27.378  1.00  0.00     0.000 A 
HETATM   41  C   UNL     1      -0.451   9.651 -27.385  1.00  0.00     0.002 A 
HETATM   42  C   UNL     1      -1.342   8.970 -28.221  1.00  0.00     0.029 A 
ENDBRANCH  34  37
ENDBRANCH   9  33
TORSDOF 8
ENDMDL
