MODEL 1
REMARK VINA RESULT:     -10.1      0.000      0.000
REMARK  4 active torsions:
REMARK  status: ('A' for Active; 'I' for Inactive)
REMARK    1  A    between atoms: C_2  and  C_3 
REMARK       I    between atoms: C_3  and  N_4 
REMARK    2  A    between atoms: N_4  and  N_5 
REMARK    3  A    between atoms: N_5  and  C_6 
REMARK    4  A    between atoms: N_7  and  C_8 
ROOT
HETATM    1  C   UNL     1      -4.529   2.656 -32.066  1.00  0.00     0.729 C 
HETATM    2  N   UNL     1      -5.693   3.413 -31.947  1.00  0.00    -0.108 N 
HETATM    3  C   UNL     1      -6.923   2.793 -32.135  1.00  0.00     0.276 C 
HETATM    4  O   UNL     1      -7.990   3.199 -31.678  1.00  0.00    -0.266 OA
HETATM    5  C   UNL     1      -6.912   1.546 -32.957  1.00  0.00     0.050 C 
HETATM    6  C   UNL     1      -5.713   0.946 -33.074  1.00  0.00     0.099 C 
HETATM    7  C   UNL     1      -5.639  -0.398 -33.704  1.00  0.00     0.000 A 
HETATM    8  C   UNL     1      -6.707  -0.877 -34.474  1.00  0.00    -0.044 A 
HETATM    9  C   UNL     1      -6.641  -2.145 -35.072  1.00  0.00     0.008 A 
HETATM   10  C   UNL     1      -5.521  -2.953 -34.885  1.00  0.00     0.001 A 
HETATM   11  C   UNL     1      -4.459  -2.494 -34.115  1.00  0.00     0.001 A 
HETATM   12  C   UNL     1      -4.517  -1.226 -33.531  1.00  0.00     0.014 A 
HETATM   13  C   UNL     1      -7.889   0.017 -34.723  1.00  0.00     0.054 C 
HETATM   14  C   UNL     1      -8.226   0.977 -33.534  1.00  0.00    -0.002 C 
HETATM   15  C   UNL     1      -8.969   0.212 -32.402  1.00  0.00     0.015 C 
HETATM   16  C   UNL     1     -10.364  -0.285 -32.788  1.00  0.00     0.001 C 
HETATM   17  C   UNL     1     -11.230   0.826 -33.371  1.00  0.00     0.000 C 
HETATM   18  C   UNL     1     -10.545   1.534 -34.534  1.00  0.00     0.001 C 
HETATM   19  C   UNL     1      -9.170   2.072 -34.126  1.00  0.00     0.015 C 
HETATM   20  N   UNL     1      -4.541   1.459 -32.589  1.00  0.00    -0.061 NA
ENDROOT
BRANCH   1  21
HETATM   21  N   UNL     1      -3.322   3.120 -31.561  1.00  0.00    -0.127 N 
HETATM   22  H   UNL     1      -3.308   3.609 -30.668  1.00  0.00     0.206 HD
BRANCH  21  23
HETATM   23  N   UNL     1      -2.442   3.682 -32.510  1.00  0.00    -0.256 N 
HETATM   24  C   UNL     1      -2.023   4.971 -32.248  1.00  0.00     0.236 C 
HETATM   25  O   UNL     1      -2.206   5.516 -31.159  1.00  0.00    -0.272 OA
HETATM   26  H   UNL     1      -2.640   3.377 -33.462  1.00  0.00     0.190 HD
BRANCH  24  27
HETATM   27  C   UNL     1      -1.227   5.631 -33.355  1.00  0.00     0.100 C 
HETATM   28  C   UNL     1      -1.657   5.231 -34.755  1.00  0.00     0.014 C 
ENDBRANCH  24  27
ENDBRANCH  21  23
ENDBRANCH   1  21
BRANCH   2  29
HETATM   29  C   UNL     1      -5.652   4.769 -31.483  1.00  0.00     0.060 A 
HETATM   30  C   UNL     1      -5.637   5.085 -30.118  1.00  0.00     0.030 A 
HETATM   31  C   UNL     1      -5.591   6.417 -29.693  1.00  0.00     0.002 A 
HETATM   32  C   UNL     1      -5.570   7.449 -30.627  1.00  0.00     0.000 A 
HETATM   33  C   UNL     1      -5.606   7.154 -31.987  1.00  0.00     0.002 A 
HETATM   34  C   UNL     1      -5.655   5.824 -32.411  1.00  0.00     0.030 A 
ENDBRANCH   2  29
TORSDOF 4
ENDMDL
MODEL 2
REMARK VINA RESULT:      -9.2      3.178      6.901
REMARK  4 active torsions:
REMARK  status: ('A' for Active; 'I' for Inactive)
REMARK    1  A    between atoms: C_2  and  C_3 
REMARK       I    between atoms: C_3  and  N_4 
REMARK    2  A    between atoms: N_4  and  N_5 
REMARK    3  A    between atoms: N_5  and  C_6 
REMARK    4  A    between atoms: N_7  and  C_8 
ROOT
HETATM    1  C   UNL     1      -9.872   1.553 -34.235  1.00  0.00     0.729 C 
HETATM    2  N   UNL     1      -9.674   2.739 -33.529  1.00  0.00    -0.108 N 
HETATM    3  C   UNL     1      -8.385   3.085 -33.141  1.00  0.00     0.276 C 
HETATM    4  O   UNL     1      -8.010   4.232 -32.898  1.00  0.00    -0.266 OA
HETATM    5  C   UNL     1      -7.410   1.961 -33.020  1.00  0.00     0.050 C 
HETATM    6  C   UNL     1      -7.749   0.834 -33.674  1.00  0.00     0.099 C 
HETATM    7  C   UNL     1      -6.755  -0.267 -33.775  1.00  0.00     0.000 A 
HETATM    8  C   UNL     1      -5.643  -0.293 -32.923  1.00  0.00    -0.044 A 
HETATM    9  C   UNL     1      -4.702  -1.332 -33.014  1.00  0.00     0.008 A 
HETATM   10  C   UNL     1      -4.852  -2.335 -33.969  1.00  0.00     0.001 A 
HETATM   11  C   UNL     1      -5.947  -2.314 -34.827  1.00  0.00     0.001 A 
HETATM   12  C   UNL     1      -6.891  -1.289 -34.729  1.00  0.00     0.014 A 
HETATM   13  C   UNL     1      -5.512   0.756 -31.855  1.00  0.00     0.054 C 
HETATM   14  C   UNL     1      -6.079   2.156 -32.262  1.00  0.00    -0.002 C 
HETATM   15  C   UNL     1      -5.086   2.902 -33.198  1.00  0.00     0.015 C 
HETATM   16  C   UNL     1      -3.767   3.298 -32.530  1.00  0.00     0.001 C 
HETATM   17  C   UNL     1      -3.988   4.061 -31.229  1.00  0.00     0.000 C 
HETATM   18  C   UNL     1      -4.898   3.304 -30.269  1.00  0.00     0.001 C 
HETATM   19  C   UNL     1      -6.235   2.955 -30.929  1.00  0.00     0.015 C 
HETATM   20  N   UNL     1      -8.938   0.645 -34.324  1.00  0.00    -0.061 NA
ENDROOT
BRANCH   1  21
HETATM   21  N   UNL     1     -11.049   1.330 -34.936  1.00  0.00    -0.127 N 
HETATM   22  H   UNL     1     -11.368   2.021 -35.613  1.00  0.00     0.206 HD
BRANCH  21  23
HETATM   23  N   UNL     1     -12.104   0.764 -34.188  1.00  0.00    -0.256 N 
HETATM   24  C   UNL     1     -13.340   1.360 -34.352  1.00  0.00     0.236 C 
HETATM   25  O   UNL     1     -13.568   2.168 -35.253  1.00  0.00    -0.272 OA
HETATM   26  H   UNL     1     -11.803   0.422 -33.277  1.00  0.00     0.190 HD
BRANCH  24  27
HETATM   27  C   UNL     1     -14.424   0.867 -33.416  1.00  0.00     0.100 C 
HETATM   28  C   UNL     1     -15.076   1.960 -32.589  1.00  0.00     0.014 C 
ENDBRANCH  24  27
ENDBRANCH  21  23
ENDBRANCH   1  21
BRANCH   2  29
HETATM   29  C   UNL     1     -10.742   3.676 -33.338  1.00  0.00     0.060 A 
HETATM   30  C   UNL     1     -11.091   4.614 -34.318  1.00  0.00     0.030 A 
HETATM   31  C   UNL     1     -12.142   5.512 -34.106  1.00  0.00     0.002 A 
HETATM   32  C   UNL     1     -12.850   5.491 -32.907  1.00  0.00     0.000 A 
HETATM   33  C   UNL     1     -12.504   4.580 -31.914  1.00  0.00     0.002 A 
HETATM   34  C   UNL     1     -11.452   3.685 -32.125  1.00  0.00     0.030 A 
ENDBRANCH   2  29
TORSDOF 4
ENDMDL
MODEL 3
REMARK VINA RESULT:      -9.1      1.141      1.544
REMARK  4 active torsions:
REMARK  status: ('A' for Active; 'I' for Inactive)
REMARK    1  A    between atoms: C_2  and  C_3 
REMARK       I    between atoms: C_3  and  N_4 
REMARK    2  A    between atoms: N_4  and  N_5 
REMARK    3  A    between atoms: N_5  and  C_6 
REMARK    4  A    between atoms: N_7  and  C_8 
ROOT
HETATM    1  C   UNL     1      -5.290   3.589 -31.587  1.00  0.00     0.729 C 
HETATM    2  N   UNL     1      -6.563   4.157 -31.601  1.00  0.00    -0.108 N 
HETATM    3  C   UNL     1      -7.658   3.354 -31.898  1.00  0.00     0.276 C 
HETATM    4  O   UNL     1      -8.816   3.593 -31.558  1.00  0.00    -0.266 OA
HETATM    5  C   UNL     1      -7.372   2.118 -32.687  1.00  0.00     0.050 C 
HETATM    6  C   UNL     1      -6.090   1.711 -32.671  1.00  0.00     0.099 C 
HETATM    7  C   UNL     1      -5.746   0.391 -33.261  1.00  0.00     0.000 A 
HETATM    8  C   UNL     1      -6.645  -0.252 -34.124  1.00  0.00    -0.044 A 
HETATM    9  C   UNL     1      -6.324  -1.498 -34.685  1.00  0.00     0.008 A 
HETATM   10  C   UNL     1      -5.119  -2.122 -34.370  1.00  0.00     0.001 A 
HETATM   11  C   UNL     1      -4.223  -1.500 -33.507  1.00  0.00     0.001 A 
HETATM   12  C   UNL     1      -4.534  -0.253 -32.959  1.00  0.00     0.014 A 
HETATM   13  C   UNL     1      -7.918   0.447 -34.509  1.00  0.00     0.054 C 
HETATM   14  C   UNL     1      -8.518   1.350 -33.380  1.00  0.00    -0.002 C 
HETATM   15  C   UNL     1      -9.246   0.486 -32.312  1.00  0.00     0.015 C 
HETATM   16  C   UNL     1     -10.502  -0.223 -32.825  1.00  0.00     0.001 C 
HETATM   17  C   UNL     1     -11.464   0.738 -33.515  1.00  0.00     0.000 C 
HETATM   18  C   UNL     1     -10.780   1.536 -34.619  1.00  0.00     0.001 C 
HETATM   19  C   UNL     1      -9.553   2.282 -34.087  1.00  0.00     0.015 C 
HETATM   20  N   UNL     1      -5.066   2.402 -32.082  1.00  0.00    -0.061 NA
ENDROOT
BRANCH   1  21
HETATM   21  N   UNL     1      -4.227   4.237 -30.973  1.00  0.00    -0.127 N 
HETATM   22  H   UNL     1      -4.352   4.633 -30.044  1.00  0.00     0.206 HD
BRANCH  21  23
HETATM   23  N   UNL     1      -3.442   5.050 -31.818  1.00  0.00    -0.256 N 
HETATM   24  C   UNL     1      -2.080   4.831 -31.763  1.00  0.00     0.236 C 
HETATM   25  O   UNL     1      -1.592   3.848 -31.204  1.00  0.00    -0.272 OA
HETATM   26  H   UNL     1      -3.819   5.992 -31.922  1.00  0.00     0.190 HD
BRANCH  24  27
HETATM   27  C   UNL     1      -1.233   5.823 -32.533  1.00  0.00     0.100 C 
HETATM   28  C   UNL     1      -0.336   6.684 -31.663  1.00  0.00     0.014 C 
ENDBRANCH  24  27
ENDBRANCH  21  23
ENDBRANCH   1  21
BRANCH   2  29
HETATM   29  C   UNL     1      -6.778   5.506 -31.164  1.00  0.00     0.060 A 
HETATM   30  C   UNL     1      -6.789   6.583 -32.060  1.00  0.00     0.030 A 
HETATM   31  C   UNL     1      -7.006   7.888 -31.606  1.00  0.00     0.002 A 
HETATM   32  C   UNL     1      -7.204   8.134 -30.250  1.00  0.00     0.000 A 
HETATM   33  C   UNL     1      -7.177   7.079 -29.343  1.00  0.00     0.002 A 
HETATM   34  C   UNL     1      -6.956   5.775 -29.796  1.00  0.00     0.030 A 
ENDBRANCH   2  29
TORSDOF 4
ENDMDL
MODEL 4
REMARK VINA RESULT:      -9.1     16.270     18.778
REMARK  4 active torsions:
REMARK  status: ('A' for Active; 'I' for Inactive)
REMARK    1  A    between atoms: C_2  and  C_3 
REMARK       I    between atoms: C_3  and  N_4 
REMARK    2  A    between atoms: N_4  and  N_5 
REMARK    3  A    between atoms: N_5  and  C_6 
REMARK    4  A    between atoms: N_7  and  C_8 
ROOT
HETATM    1  C   UNL     1      -6.011 -13.263 -38.518  1.00  0.00     0.729 C 
HETATM    2  N   UNL     1      -6.725 -13.624 -39.660  1.00  0.00    -0.108 N 
HETATM    3  C   UNL     1      -6.107 -14.415 -40.620  1.00  0.00     0.276 C 
HETATM    4  O   UNL     1      -6.699 -15.126 -41.431  1.00  0.00    -0.266 OA
HETATM    5  C   UNL     1      -4.614 -14.378 -40.642  1.00  0.00     0.050 C 
HETATM    6  C   UNL     1      -4.035 -13.929 -39.512  1.00  0.00     0.099 C 
HETATM    7  C   UNL     1      -2.559 -14.040 -39.367  1.00  0.00     0.000 A 
HETATM    8  C   UNL     1      -1.754 -14.264 -40.492  1.00  0.00    -0.044 A 
HETATM    9  C   UNL     1      -0.360 -14.368 -40.360  1.00  0.00     0.008 A 
HETATM   10  C   UNL     1       0.235 -14.274 -39.104  1.00  0.00     0.001 A 
HETATM   11  C   UNL     1      -0.553 -14.062 -37.979  1.00  0.00     0.001 A 
HETATM   12  C   UNL     1      -1.939 -13.944 -38.110  1.00  0.00     0.014 A 
HETATM   13  C   UNL     1      -2.392 -14.307 -41.852  1.00  0.00     0.054 C 
HETATM   14  C   UNL     1      -3.835 -14.911 -41.863  1.00  0.00    -0.002 C 
HETATM   15  C   UNL     1      -3.783 -16.463 -41.774  1.00  0.00     0.015 C 
HETATM   16  C   UNL     1      -3.167 -17.143 -42.998  1.00  0.00     0.001 C 
HETATM   17  C   UNL     1      -3.811 -16.681 -44.300  1.00  0.00     0.000 C 
HETATM   18  C   UNL     1      -3.798 -15.163 -44.437  1.00  0.00     0.001 C 
HETATM   19  C   UNL     1      -4.461 -14.490 -43.231  1.00  0.00     0.015 C 
HETATM   20  N   UNL     1      -4.719 -13.430 -38.438  1.00  0.00    -0.061 NA
ENDROOT
BRANCH   1  21
HETATM   21  N   UNL     1      -6.664 -12.782 -37.391  1.00  0.00    -0.127 N 
HETATM   22  H   UNL     1      -7.061 -11.844 -37.405  1.00  0.00     0.206 HD
BRANCH  21  23
HETATM   23  N   UNL     1      -6.065 -13.109 -36.156  1.00  0.00    -0.256 N 
HETATM   24  C   UNL     1      -6.580 -14.220 -35.517  1.00  0.00     0.236 C 
HETATM   25  O   UNL     1      -7.340 -15.011 -36.078  1.00  0.00    -0.272 OA
HETATM   26  H   UNL     1      -5.775 -12.288 -35.628  1.00  0.00     0.190 HD
BRANCH  24  27
HETATM   27  C   UNL     1      -6.059 -14.460 -34.115  1.00  0.00     0.100 C 
HETATM   28  C   UNL     1      -5.574 -13.208 -33.409  1.00  0.00     0.014 C 
ENDBRANCH  24  27
ENDBRANCH  21  23
ENDBRANCH   1  21
BRANCH   2  29
HETATM   29  C   UNL     1      -8.123 -13.328 -39.785  1.00  0.00     0.060 A 
HETATM   30  C   UNL     1      -9.112 -14.254 -39.430  1.00  0.00     0.030 A 
HETATM   31  C   UNL     1     -10.467 -13.937 -39.557  1.00  0.00     0.002 A 
HETATM   32  C   UNL     1     -10.852 -12.693 -40.051  1.00  0.00     0.000 A 
HETATM   33  C   UNL     1      -9.883 -11.768 -40.428  1.00  0.00     0.002 A 
HETATM   34  C   UNL     1      -8.528 -12.087 -40.304  1.00  0.00     0.030 A 
ENDBRANCH   2  29
TORSDOF 4
ENDMDL
MODEL 5
REMARK VINA RESULT:      -8.8      1.852      7.929
REMARK  4 active torsions:
REMARK  status: ('A' for Active; 'I' for Inactive)
REMARK    1  A    between atoms: C_2  and  C_3 
REMARK       I    between atoms: C_3  and  N_4 
REMARK    2  A    between atoms: N_4  and  N_5 
REMARK    3  A    between atoms: N_5  and  C_6 
REMARK    4  A    between atoms: N_7  and  C_8 
ROOT
HETATM    1  C   UNL     1      -7.362   2.290 -31.482  1.00  0.00     0.729 C 
HETATM    2  N   UNL     1      -6.389   1.933 -32.414  1.00  0.00    -0.108 N 
HETATM    3  C   UNL     1      -5.176   2.612 -32.417  1.00  0.00     0.276 C 
HETATM    4  O   UNL     1      -4.122   2.163 -32.867  1.00  0.00    -0.266 OA
HETATM    5  C   UNL     1      -5.188   3.982 -31.823  1.00  0.00     0.050 C 
HETATM    6  C   UNL     1      -6.224   4.243 -31.005  1.00  0.00     0.099 C 
HETATM    7  C   UNL     1      -6.219   5.504 -30.217  1.00  0.00     0.000 A 
HETATM    8  C   UNL     1      -5.360   6.554 -30.571  1.00  0.00    -0.044 A 
HETATM    9  C   UNL     1      -5.352   7.746 -29.830  1.00  0.00     0.008 A 
HETATM   10  C   UNL     1      -6.181   7.890 -28.720  1.00  0.00     0.001 A 
HETATM   11  C   UNL     1      -7.031   6.852 -28.353  1.00  0.00     0.001 A 
HETATM   12  C   UNL     1      -7.050   5.670 -29.097  1.00  0.00     0.014 A 
HETATM   13  C   UNL     1      -4.508   6.420 -31.801  1.00  0.00     0.054 C 
HETATM   14  C   UNL     1      -4.024   4.960 -32.089  1.00  0.00    -0.002 C 
HETATM   15  C   UNL     1      -2.839   4.579 -31.157  1.00  0.00     0.015 C 
HETATM   16  C   UNL     1      -1.556   5.373 -31.412  1.00  0.00     0.001 C 
HETATM   17  C   UNL     1      -1.143   5.344 -32.880  1.00  0.00     0.000 C 
HETATM   18  C   UNL     1      -2.272   5.791 -33.801  1.00  0.00     0.001 C 
HETATM   19  C   UNL     1      -3.538   4.959 -33.574  1.00  0.00     0.015 C 
HETATM   20  N   UNL     1      -7.273   3.392 -30.787  1.00  0.00    -0.061 NA
ENDROOT
BRANCH   1  21
HETATM   21  N   UNL     1      -8.427   1.444 -31.203  1.00  0.00    -0.127 N 
HETATM   22  H   UNL     1      -8.267   0.440 -31.145  1.00  0.00     0.206 HD
BRANCH  21  23
HETATM   23  N   UNL     1      -9.645   1.771 -31.837  1.00  0.00    -0.256 N 
HETATM   24  C   UNL     1     -10.172   0.796 -32.660  1.00  0.00     0.236 C 
HETATM   25  O   UNL     1      -9.749  -0.361 -32.667  1.00  0.00    -0.272 OA
HETATM   26  H   UNL     1      -9.709   2.758 -32.084  1.00  0.00     0.190 HD
BRANCH  24  27
HETATM   27  C   UNL     1     -11.378   1.218 -33.473  1.00  0.00     0.100 C 
HETATM   28  C   UNL     1     -11.061   2.176 -34.606  1.00  0.00     0.014 C 
ENDBRANCH  24  27
ENDBRANCH  21  23
ENDBRANCH   1  21
BRANCH   2  29
HETATM   29  C   UNL     1      -6.554   0.783 -33.256  1.00  0.00     0.060 A 
HETATM   30  C   UNL     1      -6.202  -0.504 -32.831  1.00  0.00     0.030 A 
HETATM   31  C   UNL     1      -6.379  -1.608 -33.671  1.00  0.00     0.002 A 
HETATM   32  C   UNL     1      -6.901  -1.437 -34.950  1.00  0.00     0.000 A 
HETATM   33  C   UNL     1      -7.238  -0.163 -35.396  1.00  0.00     0.002 A 
HETATM   34  C   UNL     1      -7.057   0.940 -34.558  1.00  0.00     0.030 A 
ENDBRANCH   2  29
TORSDOF 4
ENDMDL
MODEL 6
REMARK VINA RESULT:      -8.2      2.525      6.168
REMARK  4 active torsions:
REMARK  status: ('A' for Active; 'I' for Inactive)
REMARK    1  A    between atoms: C_2  and  C_3 
REMARK       I    between atoms: C_3  and  N_4 
REMARK    2  A    between atoms: N_4  and  N_5 
REMARK    3  A    between atoms: N_5  and  C_6 
REMARK    4  A    between atoms: N_7  and  C_8 
ROOT
HETATM    1  C   UNL     1      -8.352   3.020 -31.487  1.00  0.00     0.729 C 
HETATM    2  N   UNL     1      -7.809   4.283 -31.256  1.00  0.00    -0.108 N 
HETATM    3  C   UNL     1      -6.531   4.564 -31.723  1.00  0.00     0.276 C 
HETATM    4  O   UNL     1      -6.102   5.693 -31.957  1.00  0.00    -0.266 OA
HETATM    5  C   UNL     1      -5.639   3.387 -31.948  1.00  0.00     0.050 C 
HETATM    6  C   UNL     1      -6.270   2.204 -32.070  1.00  0.00     0.099 C 
HETATM    7  C   UNL     1      -5.488   1.011 -32.489  1.00  0.00     0.000 A 
HETATM    8  C   UNL     1      -4.089   1.021 -32.411  1.00  0.00    -0.044 A 
HETATM    9  C   UNL     1      -3.347  -0.103 -32.805  1.00  0.00     0.008 A 
HETATM   10  C   UNL     1      -3.993  -1.234 -33.300  1.00  0.00     0.001 A 
HETATM   11  C   UNL     1      -5.380  -1.253 -33.392  1.00  0.00     0.001 A 
HETATM   12  C   UNL     1      -6.121  -0.140 -32.987  1.00  0.00     0.014 A 
HETATM   13  C   UNL     1      -3.397   2.218 -31.823  1.00  0.00     0.054 C 
HETATM   14  C   UNL     1      -4.116   3.578 -32.110  1.00  0.00    -0.002 C 
HETATM   15  C   UNL     1      -3.833   4.055 -33.563  1.00  0.00     0.015 C 
HETATM   16  C   UNL     1      -2.373   4.429 -33.829  1.00  0.00     0.001 C 
HETATM   17  C   UNL     1      -1.835   5.419 -32.803  1.00  0.00     0.000 C 
HETATM   18  C   UNL     1      -2.036   4.927 -31.374  1.00  0.00     0.001 C 
HETATM   19  C   UNL     1      -3.507   4.602 -31.100  1.00  0.00     0.015 C 
HETATM   20  N   UNL     1      -7.616   2.024 -31.900  1.00  0.00    -0.061 NA
ENDROOT
BRANCH   1  21
HETATM   21  N   UNL     1      -9.716   2.796 -31.359  1.00  0.00    -0.127 N 
HETATM   22  H   UNL     1     -10.132   2.755 -30.430  1.00  0.00     0.206 HD
BRANCH  21  23
HETATM   23  N   UNL     1     -10.262   1.846 -32.248  1.00  0.00    -0.256 N 
HETATM   24  C   UNL     1     -11.285   2.302 -33.057  1.00  0.00     0.236 C 
HETATM   25  O   UNL     1     -11.551   3.500 -33.172  1.00  0.00    -0.272 OA
HETATM   26  H   UNL     1     -10.281   0.905 -31.859  1.00  0.00     0.190 HD
BRANCH  24  27
HETATM   27  C   UNL     1     -11.985   1.239 -33.877  1.00  0.00     0.100 C 
HETATM   28  C   UNL     1     -12.338   1.673 -35.288  1.00  0.00     0.014 C 
ENDBRANCH  24  27
ENDBRANCH  21  23
ENDBRANCH   1  21
BRANCH   2  29
HETATM   29  C   UNL     1      -8.599   5.338 -30.690  1.00  0.00     0.060 A 
HETATM   30  C   UNL     1      -9.543   6.046 -31.447  1.00  0.00     0.030 A 
HETATM   31  C   UNL     1     -10.303   7.066 -30.868  1.00  0.00     0.002 A 
HETATM   32  C   UNL     1     -10.123   7.399 -29.527  1.00  0.00     0.000 A 
HETATM   33  C   UNL     1      -9.177   6.720 -28.766  1.00  0.00     0.002 A 
HETATM   34  C   UNL     1      -8.414   5.703 -29.346  1.00  0.00     0.030 A 
ENDBRANCH   2  29
TORSDOF 4
ENDMDL
MODEL 7
REMARK VINA RESULT:      -8.0      2.836      5.855
REMARK  4 active torsions:
REMARK  status: ('A' for Active; 'I' for Inactive)
REMARK    1  A    between atoms: C_2  and  C_3 
REMARK       I    between atoms: C_3  and  N_4 
REMARK    2  A    between atoms: N_4  and  N_5 
REMARK    3  A    between atoms: N_5  and  C_6 
REMARK    4  A    between atoms: N_7  and  C_8 
ROOT
HETATM    1  C   UNL     1      -7.022   2.230 -33.755  1.00  0.00     0.729 C 
HETATM    2  N   UNL     1      -6.612   3.512 -33.391  1.00  0.00    -0.108 N 
HETATM    3  C   UNL     1      -7.518   4.357 -32.760  1.00  0.00     0.276 C 
HETATM    4  O   UNL     1      -7.208   5.306 -32.041  1.00  0.00    -0.266 OA
HETATM    5  C   UNL     1      -8.963   4.063 -32.994  1.00  0.00     0.050 C 
HETATM    6  C   UNL     1      -9.233   2.818 -33.428  1.00  0.00     0.099 C 
HETATM    7  C   UNL     1     -10.649   2.372 -33.500  1.00  0.00     0.000 A 
HETATM    8  C   UNL     1     -11.688   3.312 -33.468  1.00  0.00    -0.044 A 
HETATM    9  C   UNL     1     -13.027   2.896 -33.537  1.00  0.00     0.008 A 
HETATM   10  C   UNL     1     -13.338   1.540 -33.614  1.00  0.00     0.001 A 
HETATM   11  C   UNL     1     -12.317   0.596 -33.636  1.00  0.00     0.001 A 
HETATM   12  C   UNL     1     -10.984   1.010 -33.582  1.00  0.00     0.014 A 
HETATM   13  C   UNL     1     -11.350   4.776 -33.445  1.00  0.00     0.054 C 
HETATM   14  C   UNL     1     -10.040   5.118 -32.660  1.00  0.00    -0.002 C 
HETATM   15  C   UNL     1     -10.294   5.092 -31.126  1.00  0.00     0.015 C 
HETATM   16  C   UNL     1     -11.236   6.189 -30.625  1.00  0.00     0.001 C 
HETATM   17  C   UNL     1     -10.807   7.575 -31.096  1.00  0.00     0.000 C 
HETATM   18  C   UNL     1     -10.630   7.635 -32.608  1.00  0.00     0.001 C 
HETATM   19  C   UNL     1      -9.649   6.566 -33.096  1.00  0.00     0.015 C 
HETATM   20  N   UNL     1      -8.283   1.889 -33.752  1.00  0.00    -0.061 NA
ENDROOT
BRANCH   1  21
HETATM   21  N   UNL     1      -6.094   1.245 -34.061  1.00  0.00    -0.127 N 
HETATM   22  H   UNL     1      -5.199   1.509 -34.467  1.00  0.00     0.206 HD
BRANCH  21  23
HETATM   23  N   UNL     1      -6.625   0.063 -34.620  1.00  0.00    -0.256 N 
HETATM   24  C   UNL     1      -6.312  -1.107 -33.955  1.00  0.00     0.236 C 
HETATM   25  O   UNL     1      -5.810  -1.112 -32.830  1.00  0.00    -0.272 OA
HETATM   26  H   UNL     1      -6.669   0.092 -35.638  1.00  0.00     0.190 HD
BRANCH  24  27
HETATM   27  C   UNL     1      -6.732  -2.382 -34.656  1.00  0.00     0.100 C 
HETATM   28  C   UNL     1      -5.605  -3.377 -34.863  1.00  0.00     0.014 C 
ENDBRANCH  24  27
ENDBRANCH  21  23
ENDBRANCH   1  21
BRANCH   2  29
HETATM   29  C   UNL     1      -5.240   3.914 -33.511  1.00  0.00     0.060 A 
HETATM   30  C   UNL     1      -4.261   3.489 -32.603  1.00  0.00     0.030 A 
HETATM   31  C   UNL     1      -2.930   3.892 -32.747  1.00  0.00     0.002 A 
HETATM   32  C   UNL     1      -2.562   4.733 -33.794  1.00  0.00     0.000 A 
HETATM   33  C   UNL     1      -3.526   5.181 -34.693  1.00  0.00     0.002 A 
HETATM   34  C   UNL     1      -4.856   4.781 -34.547  1.00  0.00     0.030 A 
ENDBRANCH   2  29
TORSDOF 4
ENDMDL
MODEL 8
REMARK VINA RESULT:      -8.0      1.836      7.008
REMARK  4 active torsions:
REMARK  status: ('A' for Active; 'I' for Inactive)
REMARK    1  A    between atoms: C_2  and  C_3 
REMARK       I    between atoms: C_3  and  N_4 
REMARK    2  A    between atoms: N_4  and  N_5 
REMARK    3  A    between atoms: N_5  and  C_6 
REMARK    4  A    between atoms: N_7  and  C_8 
ROOT
HETATM    1  C   UNL     1      -6.404   2.534 -33.630  1.00  0.00     0.729 C 
HETATM    2  N   UNL     1      -7.567   2.803 -32.911  1.00  0.00    -0.108 N 
HETATM    3  C   UNL     1      -7.622   3.943 -32.117  1.00  0.00     0.276 C 
HETATM    4  O   UNL     1      -8.658   4.511 -31.775  1.00  0.00    -0.266 OA
HETATM    5  C   UNL     1      -6.309   4.493 -31.666  1.00  0.00     0.050 C 
HETATM    6  C   UNL     1      -5.242   4.095 -32.385  1.00  0.00     0.099 C 
HETATM    7  C   UNL     1      -3.926   4.739 -32.136  1.00  0.00     0.000 A 
HETATM    8  C   UNL     1      -3.709   5.472 -30.962  1.00  0.00    -0.044 A 
HETATM    9  C   UNL     1      -2.467   6.082 -30.723  1.00  0.00     0.008 A 
HETATM   10  C   UNL     1      -1.444   5.984 -31.663  1.00  0.00     0.001 A 
HETATM   11  C   UNL     1      -1.650   5.269 -32.837  1.00  0.00     0.001 A 
HETATM   12  C   UNL     1      -2.880   4.650 -33.070  1.00  0.00     0.014 A 
HETATM   13  C   UNL     1      -4.793   5.527 -29.923  1.00  0.00     0.054 C 
HETATM   14  C   UNL     1      -6.243   5.513 -30.510  1.00  0.00    -0.002 C 
HETATM   15  C   UNL     1      -6.625   6.914 -31.067  1.00  0.00     0.015 C 
HETATM   16  C   UNL     1      -6.747   8.004 -30.001  1.00  0.00     0.001 C 
HETATM   17  C   UNL     1      -7.665   7.591 -28.856  1.00  0.00     0.000 C 
HETATM   18  C   UNL     1      -7.254   6.255 -28.248  1.00  0.00     0.001 C 
HETATM   19  C   UNL     1      -7.182   5.157 -29.313  1.00  0.00     0.015 C 
HETATM   20  N   UNL     1      -5.290   3.171 -33.392  1.00  0.00    -0.061 NA
ENDROOT
BRANCH   1  21
HETATM   21  N   UNL     1      -6.411   1.628 -34.682  1.00  0.00    -0.127 N 
HETATM   22  H   UNL     1      -7.142   1.685 -35.388  1.00  0.00     0.206 HD
BRANCH  21  23
HETATM   23  N   UNL     1      -6.077   0.299 -34.342  1.00  0.00    -0.256 N 
HETATM   24  C   UNL     1      -6.988  -0.664 -34.728  1.00  0.00     0.236 C 
HETATM   25  O   UNL     1      -7.906  -0.426 -35.514  1.00  0.00    -0.272 OA
HETATM   26  H   UNL     1      -5.586   0.231 -33.452  1.00  0.00     0.190 HD
BRANCH  24  27
HETATM   27  C   UNL     1      -6.715  -2.059 -34.206  1.00  0.00     0.100 C 
HETATM   28  C   UNL     1      -5.645  -2.813 -34.973  1.00  0.00     0.014 C 
ENDBRANCH  24  27
ENDBRANCH  21  23
ENDBRANCH   1  21
BRANCH   2  29
HETATM   29  C   UNL     1      -8.753   2.018 -33.097  1.00  0.00     0.060 A 
HETATM   30  C   UNL     1      -9.730   2.362 -34.040  1.00  0.00     0.030 A 
HETATM   31  C   UNL     1     -10.874   1.575 -34.204  1.00  0.00     0.002 A 
HETATM   32  C   UNL     1     -11.062   0.440 -33.419  1.00  0.00     0.000 A 
HETATM   33  C   UNL     1     -10.111   0.095 -32.463  1.00  0.00     0.002 A 
HETATM   34  C   UNL     1      -8.970   0.883 -32.297  1.00  0.00     0.030 A 
ENDBRANCH   2  29
TORSDOF 4
ENDMDL
MODEL 9
REMARK VINA RESULT:      -8.0      2.104      7.341
REMARK  4 active torsions:
REMARK  status: ('A' for Active; 'I' for Inactive)
REMARK    1  A    between atoms: C_2  and  C_3 
REMARK       I    between atoms: C_3  and  N_4 
REMARK    2  A    between atoms: N_4  and  N_5 
REMARK    3  A    between atoms: N_5  and  C_6 
REMARK    4  A    between atoms: N_7  and  C_8 
ROOT
HETATM    1  C   UNL     1      -3.602   2.668 -32.324  1.00  0.00     0.729 C 
HETATM    2  N   UNL     1      -4.940   2.993 -32.102  1.00  0.00    -0.108 N 
HETATM    3  C   UNL     1      -5.272   4.304 -31.780  1.00  0.00     0.276 C 
HETATM    4  O   UNL     1      -6.378   4.811 -31.959  1.00  0.00    -0.266 OA
HETATM    5  C   UNL     1      -4.183   5.128 -31.176  1.00  0.00     0.050 C 
HETATM    6  C   UNL     1      -2.935   4.670 -31.382  1.00  0.00     0.099 C 
HETATM    7  C   UNL     1      -1.782   5.523 -30.989  1.00  0.00     0.000 A 
HETATM    8  C   UNL     1      -1.966   6.600 -30.112  1.00  0.00    -0.044 A 
HETATM    9  C   UNL     1      -0.880   7.407 -29.738  1.00  0.00     0.008 A 
HETATM   10  C   UNL     1       0.390   7.160 -30.255  1.00  0.00     0.001 A 
HETATM   11  C   UNL     1       0.584   6.101 -31.135  1.00  0.00     0.001 A 
HETATM   12  C   UNL     1      -0.493   5.288 -31.497  1.00  0.00     0.014 A 
HETATM   13  C   UNL     1      -3.323   6.830 -29.510  1.00  0.00     0.054 C 
HETATM   14  C   UNL     1      -4.514   6.452 -30.453  1.00  0.00    -0.002 C 
HETATM   15  C   UNL     1      -4.739   7.555 -31.526  1.00  0.00     0.015 C 
HETATM   16  C   UNL     1      -5.220   8.893 -30.961  1.00  0.00     0.001 C 
HETATM   17  C   UNL     1      -6.440   8.734 -30.062  1.00  0.00     0.000 C 
HETATM   18  C   UNL     1      -6.206   7.711 -28.956  1.00  0.00     0.001 C 
HETATM   19  C   UNL     1      -5.773   6.359 -29.532  1.00  0.00     0.015 C 
HETATM   20  N   UNL     1      -2.637   3.485 -31.997  1.00  0.00    -0.061 NA
ENDROOT
BRANCH   1  21
HETATM   21  N   UNL     1      -3.252   1.492 -32.973  1.00  0.00    -0.127 N 
HETATM   22  H   UNL     1      -3.691   1.261 -33.861  1.00  0.00     0.206 HD
BRANCH  21  23
HETATM   23  N   UNL     1      -3.072   0.368 -32.138  1.00  0.00    -0.256 N 
HETATM   24  C   UNL     1      -3.591  -0.819 -32.615  1.00  0.00     0.236 C 
HETATM   25  O   UNL     1      -3.973  -0.953 -33.778  1.00  0.00    -0.272 OA
HETATM   26  H   UNL     1      -3.117   0.601 -31.147  1.00  0.00     0.190 HD
BRANCH  24  27
HETATM   27  C   UNL     1      -3.555  -1.979 -31.640  1.00  0.00     0.100 C 
HETATM   28  C   UNL     1      -3.232  -3.318 -32.278  1.00  0.00     0.014 C 
ENDBRANCH  24  27
ENDBRANCH  21  23
ENDBRANCH   1  21
BRANCH   2  29
HETATM   29  C   UNL     1      -5.984   2.043 -32.354  1.00  0.00     0.060 A 
HETATM   30  C   UNL     1      -6.538   1.261 -31.332  1.00  0.00     0.030 A 
HETATM   31  C   UNL     1      -7.559   0.346 -31.605  1.00  0.00     0.002 A 
HETATM   32  C   UNL     1      -8.034   0.194 -32.905  1.00  0.00     0.000 A 
HETATM   33  C   UNL     1      -7.482   0.949 -33.936  1.00  0.00     0.002 A 
HETATM   34  C   UNL     1      -6.459   1.860 -33.664  1.00  0.00     0.030 A 
ENDBRANCH   2  29
TORSDOF 4
ENDMDL
MODEL 10
REMARK VINA RESULT:      -8.0      2.179      8.406
REMARK  4 active torsions:
REMARK  status: ('A' for Active; 'I' for Inactive)
REMARK    1  A    between atoms: C_2  and  C_3 
REMARK       I    between atoms: C_3  and  N_4 
REMARK    2  A    between atoms: N_4  and  N_5 
REMARK    3  A    between atoms: N_5  and  C_6 
REMARK    4  A    between atoms: N_7  and  C_8 
ROOT
HETATM    1  C   UNL     1      -5.833   3.344 -30.187  1.00  0.00     0.729 C 
HETATM    2  N   UNL     1      -4.789   2.935 -31.014  1.00  0.00    -0.108 N 
HETATM    3  C   UNL     1      -3.661   3.739 -31.126  1.00  0.00     0.276 C 
HETATM    4  O   UNL     1      -2.546   3.342 -31.461  1.00  0.00    -0.266 OA
HETATM    5  C   UNL     1      -3.852   5.186 -30.809  1.00  0.00     0.050 C 
HETATM    6  C   UNL     1      -4.943   5.474 -30.076  1.00  0.00     0.099 C 
HETATM    7  C   UNL     1      -5.112   6.853 -29.547  1.00  0.00     0.000 A 
HETATM    8  C   UNL     1      -4.363   7.911 -30.080  1.00  0.00    -0.044 A 
HETATM    9  C   UNL     1      -4.519   9.214 -29.585  1.00  0.00     0.008 A 
HETATM   10  C   UNL     1      -5.405   9.467 -28.539  1.00  0.00     0.001 A 
HETATM   11  C   UNL     1      -6.147   8.425 -27.994  1.00  0.00     0.001 A 
HETATM   12  C   UNL     1      -6.002   7.129 -28.496  1.00  0.00     0.014 A 
HETATM   13  C   UNL     1      -3.452   7.647 -31.246  1.00  0.00     0.054 C 
HETATM   14  C   UNL     1      -2.795   6.227 -31.237  1.00  0.00    -0.002 C 
HETATM   15  C   UNL     1      -1.614   6.173 -30.226  1.00  0.00     0.015 C 
HETATM   16  C   UNL     1      -0.420   7.050 -30.607  1.00  0.00     0.001 C 
HETATM   17  C   UNL     1       0.054   6.792 -32.032  1.00  0.00     0.000 C 
HETATM   18  C   UNL     1      -1.079   6.919 -33.044  1.00  0.00     0.001 C 
HETATM   19  C   UNL     1      -2.251   6.001 -32.684  1.00  0.00     0.015 C 
HETATM   20  N   UNL     1      -5.897   4.561 -29.717  1.00  0.00    -0.061 NA
ENDROOT
BRANCH   1  21
HETATM   21  N   UNL     1      -6.807   2.447 -29.770  1.00  0.00    -0.127 N 
HETATM   22  H   UNL     1      -6.664   1.450 -29.917  1.00  0.00     0.206 HD
BRANCH  21  23
HETATM   23  N   UNL     1      -8.141   2.851 -29.992  1.00  0.00    -0.256 N 
HETATM   24  C   UNL     1      -8.778   2.250 -31.060  1.00  0.00     0.236 C 
HETATM   25  O   UNL     1      -8.313   1.266 -31.637  1.00  0.00    -0.272 OA
HETATM   26  H   UNL     1      -8.298   3.833 -29.772  1.00  0.00     0.190 HD
BRANCH  24  27
HETATM   27  C   UNL     1     -10.141   2.815 -31.402  1.00  0.00     0.100 C 
HETATM   28  C   UNL     1     -10.583   3.958 -30.507  1.00  0.00     0.014 C 
ENDBRANCH  24  27
ENDBRANCH  21  23
ENDBRANCH   1  21
BRANCH   2  29
HETATM   29  C   UNL     1      -4.789   1.635 -31.620  1.00  0.00     0.060 A 
HETATM   30  C   UNL     1      -4.252   0.514 -30.973  1.00  0.00     0.030 A 
HETATM   31  C   UNL     1      -4.271  -0.742 -31.586  1.00  0.00     0.002 A 
HETATM   32  C   UNL     1      -4.817  -0.893 -32.858  1.00  0.00     0.000 A 
HETATM   33  C   UNL     1      -5.335   0.213 -33.524  1.00  0.00     0.002 A 
HETATM   34  C   UNL     1      -5.314   1.469 -32.913  1.00  0.00     0.030 A 
ENDBRANCH   2  29
TORSDOF 4
ENDMDL
