MODEL 1
REMARK VINA RESULT:      -9.4      0.000      0.000
REMARK  2 active torsions:
REMARK  status: ('A' for Active; 'I' for Inactive)
REMARK    1  A    between atoms: O_2  and  C_3 
REMARK    2  A    between atoms: C_5  and  N_6 
REMARK       I    between atoms: N_6  and  C_7 
REMARK       I    between atoms: C_7  and  N_8 
ROOT
HETATM    1  N   UNL     1      -2.450   3.573 -31.221  1.00  0.00    -0.307 N 
HETATM    2  C   UNL     1      -3.813   3.394 -31.183  1.00  0.00     0.323 C 
HETATM    3  N   UNL     1      -4.220   2.066 -31.094  1.00  0.00    -0.328 N 
HETATM    4  C   UNL     1      -3.361   0.893 -31.336  1.00  0.00     0.185 C 
HETATM    5  C   UNL     1      -4.102  -0.076 -32.192  1.00  0.00     0.035 A 
HETATM    6  C   UNL     1      -5.430  -0.008 -32.567  1.00  0.00    -0.020 A 
HETATM    7  C   UNL     1      -6.295   1.123 -32.122  1.00  0.00     0.061 C 
HETATM    8  C   UNL     1      -5.658   1.789 -30.887  1.00  0.00     0.132 C 
HETATM    9  N   UNL     1      -3.565  -1.206 -32.744  1.00  0.00    -0.357 N 
HETATM   10  H   UNL     1      -2.609  -1.519 -32.645  1.00  0.00     0.166 HD
HETATM   11  C   UNL     1      -4.526  -1.869 -33.479  1.00  0.00     0.043 A 
HETATM   12  C   UNL     1      -5.710  -1.132 -33.387  1.00  0.00    -0.001 A 
HETATM   13  C   UNL     1      -4.432  -3.055 -34.219  1.00  0.00     0.030 A 
HETATM   14  C   UNL     1      -5.580  -3.497 -34.882  1.00  0.00     0.002 A 
HETATM   15  C   UNL     1      -6.773  -2.781 -34.809  1.00  0.00     0.001 A 
HETATM   16  C   UNL     1      -6.852  -1.598 -34.066  1.00  0.00     0.014 A 
HETATM   17  O   UNL     1      -4.626   4.313 -31.207  1.00  0.00    -0.247 OA
HETATM   18  H   UNL     1      -1.885   2.820 -30.858  1.00  0.00     0.170 HD
ENDROOT
BRANCH   1  19
HETATM   19  C   UNL     1      -1.726   4.765 -31.474  1.00  0.00     0.060 A 
HETATM   20  C   UNL     1      -1.060   5.485 -30.475  1.00  0.00     0.068 A 
HETATM   21  C   UNL     1      -0.366   6.661 -30.784  1.00  0.00     0.070 A 
HETATM   22  C   UNL     1      -0.358   7.134 -32.097  1.00  0.00     0.038 A 
HETATM   23  C   UNL     1      -1.025   6.439 -33.103  1.00  0.00     0.029 A 
HETATM   24  C   UNL     1      -1.703   5.260 -32.792  1.00  0.00     0.061 A 
HETATM   25 CL   UNL     1      -2.523   4.427 -34.072  1.00  0.00    -0.082 Cl
BRANCH  21  26
HETATM   26  O   UNL     1       0.329   7.438 -29.897  1.00  0.00    -0.356 OA
HETATM   27  C   UNL     1       0.540   6.897 -28.598  1.00  0.00     0.210 C 
ENDBRANCH  21  26
ENDBRANCH   1  19
TORSDOF 2
ENDMDL
MODEL 2
REMARK VINA RESULT:      -9.3      4.960      8.227
REMARK  2 active torsions:
REMARK  status: ('A' for Active; 'I' for Inactive)
REMARK    1  A    between atoms: O_2  and  C_3 
REMARK    2  A    between atoms: C_5  and  N_6 
REMARK       I    between atoms: N_6  and  C_7 
REMARK       I    between atoms: C_7  and  N_8 
ROOT
HETATM    1  N   UNL     1      -9.241   1.793 -34.472  1.00  0.00    -0.307 N 
HETATM    2  C   UNL     1      -8.180   2.067 -33.641  1.00  0.00     0.323 C 
HETATM    3  N   UNL     1      -6.989   1.442 -33.996  1.00  0.00    -0.328 N 
HETATM    4  C   UNL     1      -6.863   0.331 -34.956  1.00  0.00     0.185 C 
HETATM    5  C   UNL     1      -5.964  -0.707 -34.374  1.00  0.00     0.035 A 
HETATM    6  C   UNL     1      -5.216  -0.604 -33.218  1.00  0.00    -0.020 A 
HETATM    7  C   UNL     1      -5.249   0.636 -32.390  1.00  0.00     0.061 C 
HETATM    8  C   UNL     1      -5.762   1.805 -33.255  1.00  0.00     0.132 C 
HETATM    9  N   UNL     1      -5.740  -1.943 -34.914  1.00  0.00    -0.357 N 
HETATM   10  H   UNL     1      -6.154  -2.304 -35.762  1.00  0.00     0.166 HD
HETATM   11  C   UNL     1      -4.861  -2.648 -34.119  1.00  0.00     0.043 A 
HETATM   12  C   UNL     1      -4.519  -1.827 -33.040  1.00  0.00    -0.001 A 
HETATM   13  C   UNL     1      -4.353  -3.944 -34.271  1.00  0.00     0.030 A 
HETATM   14  C   UNL     1      -3.472  -4.413 -33.292  1.00  0.00     0.002 A 
HETATM   15  C   UNL     1      -3.114  -3.618 -32.206  1.00  0.00     0.001 A 
HETATM   16  C   UNL     1      -3.629  -2.324 -32.067  1.00  0.00     0.014 A 
HETATM   17  O   UNL     1      -8.246   2.814 -32.668  1.00  0.00    -0.247 OA
HETATM   18  H   UNL     1      -9.014   1.467 -35.399  1.00  0.00     0.170 HD
ENDROOT
BRANCH   1  19
HETATM   19  C   UNL     1     -10.606   2.130 -34.297  1.00  0.00     0.060 A 
HETATM   20  C   UNL     1     -11.576   1.213 -33.875  1.00  0.00     0.068 A 
HETATM   21  C   UNL     1     -12.912   1.603 -33.727  1.00  0.00     0.070 A 
HETATM   22  C   UNL     1     -13.287   2.913 -34.029  1.00  0.00     0.038 A 
HETATM   23  C   UNL     1     -12.339   3.837 -34.463  1.00  0.00     0.029 A 
HETATM   24  C   UNL     1     -11.006   3.447 -34.594  1.00  0.00     0.061 A 
HETATM   25 CL   UNL     1      -9.860   4.626 -35.141  1.00  0.00    -0.082 Cl
BRANCH  21  26
HETATM   26  O   UNL     1     -13.940   0.801 -33.311  1.00  0.00    -0.356 OA
HETATM   27  C   UNL     1     -15.056   0.682 -34.187  1.00  0.00     0.210 C 
ENDBRANCH  21  26
ENDBRANCH   1  19
TORSDOF 2
ENDMDL
MODEL 3
REMARK VINA RESULT:      -9.2      5.105      8.011
REMARK  2 active torsions:
REMARK  status: ('A' for Active; 'I' for Inactive)
REMARK    1  A    between atoms: O_2  and  C_3 
REMARK    2  A    between atoms: C_5  and  N_6 
REMARK       I    between atoms: N_6  and  C_7 
REMARK       I    between atoms: C_7  and  N_8 
ROOT
HETATM    1  N   UNL     1      -9.217   1.777 -34.621  1.00  0.00    -0.307 N 
HETATM    2  C   UNL     1      -8.143   2.094 -33.823  1.00  0.00     0.323 C 
HETATM    3  N   UNL     1      -6.959   1.445 -34.160  1.00  0.00    -0.328 N 
HETATM    4  C   UNL     1      -6.851   0.281 -35.058  1.00  0.00     0.185 C 
HETATM    5  C   UNL     1      -5.947  -0.726 -34.432  1.00  0.00     0.035 A 
HETATM    6  C   UNL     1      -5.182  -0.561 -33.294  1.00  0.00    -0.020 A 
HETATM    7  C   UNL     1      -5.198   0.724 -32.538  1.00  0.00     0.061 C 
HETATM    8  C   UNL     1      -5.720   1.844 -33.460  1.00  0.00     0.132 C 
HETATM    9  N   UNL     1      -5.735  -1.992 -34.904  1.00  0.00    -0.357 N 
HETATM   10  H   UNL     1      -6.162  -2.399 -35.725  1.00  0.00     0.166 HD
HETATM   11  C   UNL     1      -4.846  -2.654 -34.083  1.00  0.00     0.043 A 
HETATM   12  C   UNL     1      -4.485  -1.775 -33.058  1.00  0.00    -0.001 A 
HETATM   13  C   UNL     1      -4.345  -3.958 -34.170  1.00  0.00     0.030 A 
HETATM   14  C   UNL     1      -3.450  -4.375 -33.179  1.00  0.00     0.002 A 
HETATM   15  C   UNL     1      -3.074  -3.521 -32.145  1.00  0.00     0.001 A 
HETATM   16  C   UNL     1      -3.583  -2.220 -32.072  1.00  0.00     0.014 A 
HETATM   17  O   UNL     1      -8.192   2.894 -32.893  1.00  0.00    -0.247 OA
HETATM   18  H   UNL     1      -9.006   1.399 -35.533  1.00  0.00     0.170 HD
ENDROOT
BRANCH   1  19
HETATM   19  C   UNL     1     -10.578   2.129 -34.446  1.00  0.00     0.060 A 
HETATM   20  C   UNL     1     -11.144   3.296 -34.975  1.00  0.00     0.068 A 
HETATM   21  C   UNL     1     -12.494   3.595 -34.763  1.00  0.00     0.070 A 
HETATM   22  C   UNL     1     -13.280   2.735 -33.994  1.00  0.00     0.038 A 
HETATM   23  C   UNL     1     -12.733   1.576 -33.448  1.00  0.00     0.029 A 
HETATM   24  C   UNL     1     -11.390   1.275 -33.676  1.00  0.00     0.061 A 
HETATM   25 CL   UNL     1     -10.748  -0.175 -32.976  1.00  0.00    -0.082 Cl
BRANCH  21  26
HETATM   26  O   UNL     1     -13.157   4.694 -35.239  1.00  0.00    -0.356 OA
HETATM   27  C   UNL     1     -12.832   5.946 -34.644  1.00  0.00     0.210 C 
ENDBRANCH  21  26
ENDBRANCH   1  19
TORSDOF 2
ENDMDL
MODEL 4
REMARK VINA RESULT:      -8.4      1.896      2.416
REMARK  2 active torsions:
REMARK  status: ('A' for Active; 'I' for Inactive)
REMARK    1  A    between atoms: O_2  and  C_3 
REMARK    2  A    between atoms: C_5  and  N_6 
REMARK       I    between atoms: N_6  and  C_7 
REMARK       I    between atoms: C_7  and  N_8 
ROOT
HETATM    1  N   UNL     1      -3.147   5.288 -30.628  1.00  0.00    -0.307 N 
HETATM    2  C   UNL     1      -4.182   5.519 -31.505  1.00  0.00     0.323 C 
HETATM    3  N   UNL     1      -5.141   4.512 -31.547  1.00  0.00    -0.328 N 
HETATM    4  C   UNL     1      -4.979   3.158 -30.988  1.00  0.00     0.185 C 
HETATM    5  C   UNL     1      -5.469   2.164 -31.986  1.00  0.00     0.035 A 
HETATM    6  C   UNL     1      -6.131   2.432 -33.168  1.00  0.00    -0.020 A 
HETATM    7  C   UNL     1      -6.430   3.833 -33.580  1.00  0.00     0.061 C 
HETATM    8  C   UNL     1      -6.366   4.747 -32.340  1.00  0.00     0.132 C 
HETATM    9  N   UNL     1      -5.333   0.808 -31.875  1.00  0.00    -0.357 N 
HETATM   10  H   UNL     1      -4.887   0.316 -31.113  1.00  0.00     0.166 HD
HETATM   11  C   UNL     1      -5.893   0.191 -32.974  1.00  0.00     0.043 A 
HETATM   12  C   UNL     1      -6.400   1.193 -33.806  1.00  0.00    -0.001 A 
HETATM   13  C   UNL     1      -5.982  -1.170 -33.292  1.00  0.00     0.030 A 
HETATM   14  C   UNL     1      -6.605  -1.514 -34.495  1.00  0.00     0.002 A 
HETATM   15  C   UNL     1      -7.117  -0.537 -35.345  1.00  0.00     0.001 A 
HETATM   16  C   UNL     1      -7.022   0.819 -35.014  1.00  0.00     0.014 A 
HETATM   17  O   UNL     1      -4.285   6.531 -32.193  1.00  0.00    -0.247 OA
HETATM   18  H   UNL     1      -3.324   4.628 -29.886  1.00  0.00     0.170 HD
ENDROOT
BRANCH   1  19
HETATM   19  C   UNL     1      -1.947   6.024 -30.471  1.00  0.00     0.060 A 
HETATM   20  C   UNL     1      -1.718   6.902 -29.404  1.00  0.00     0.068 A 
HETATM   21  C   UNL     1      -0.513   7.607 -29.305  1.00  0.00     0.070 A 
HETATM   22  C   UNL     1       0.460   7.455 -30.293  1.00  0.00     0.038 A 
HETATM   23  C   UNL     1       0.247   6.596 -31.370  1.00  0.00     0.029 A 
HETATM   24  C   UNL     1      -0.949   5.884 -31.455  1.00  0.00     0.061 A 
HETATM   25 CL   UNL     1      -1.177   4.830 -32.812  1.00  0.00    -0.082 Cl
BRANCH  21  26
HETATM   26  O   UNL     1      -0.174   8.478 -28.305  1.00  0.00    -0.356 OA
HETATM   27  C   UNL     1      -1.245   9.142 -27.642  1.00  0.00     0.210 C 
ENDBRANCH  21  26
ENDBRANCH   1  19
TORSDOF 2
ENDMDL
MODEL 5
REMARK VINA RESULT:      -8.2      2.195      2.603
REMARK  2 active torsions:
REMARK  status: ('A' for Active; 'I' for Inactive)
REMARK    1  A    between atoms: O_2  and  C_3 
REMARK    2  A    between atoms: C_5  and  N_6 
REMARK       I    between atoms: N_6  and  C_7 
REMARK       I    between atoms: C_7  and  N_8 
ROOT
HETATM    1  N   UNL     1      -4.360   3.988 -30.845  1.00  0.00    -0.307 N 
HETATM    2  C   UNL     1      -5.633   3.518 -31.068  1.00  0.00     0.323 C 
HETATM    3  N   UNL     1      -5.762   2.135 -30.991  1.00  0.00    -0.328 N 
HETATM    4  C   UNL     1      -4.645   1.173 -30.997  1.00  0.00     0.185 C 
HETATM    5  C   UNL     1      -4.976   0.059 -31.930  1.00  0.00     0.035 A 
HETATM    6  C   UNL     1      -6.183  -0.164 -32.563  1.00  0.00    -0.020 A 
HETATM    7  C   UNL     1      -7.338   0.756 -32.358  1.00  0.00     0.061 C 
HETATM    8  C   UNL     1      -7.121   1.556 -31.058  1.00  0.00     0.132 C 
HETATM    9  N   UNL     1      -4.112  -0.933 -32.306  1.00  0.00    -0.357 N 
HETATM   10  H   UNL     1      -3.153  -1.031 -32.004  1.00  0.00     0.166 HD
HETATM   11  C   UNL     1      -4.741  -1.793 -33.181  1.00  0.00     0.043 A 
HETATM   12  C   UNL     1      -6.047  -1.329 -33.363  1.00  0.00    -0.001 A 
HETATM   13  C   UNL     1      -4.252  -2.937 -33.824  1.00  0.00     0.030 A 
HETATM   14  C   UNL     1      -5.121  -3.623 -34.677  1.00  0.00     0.002 A 
HETATM   15  C   UNL     1      -6.427  -3.181 -34.879  1.00  0.00     0.001 A 
HETATM   16  C   UNL     1      -6.903  -2.037 -34.228  1.00  0.00     0.014 A 
HETATM   17  O   UNL     1      -6.599   4.240 -31.300  1.00  0.00    -0.247 OA
HETATM   18  H   UNL     1      -3.736   3.377 -30.339  1.00  0.00     0.170 HD
ENDROOT
BRANCH   1  19
HETATM   19  C   UNL     1      -3.866   5.305 -31.012  1.00  0.00     0.060 A 
HETATM   20  C   UNL     1      -3.057   5.692 -32.088  1.00  0.00     0.068 A 
HETATM   21  C   UNL     1      -2.592   7.007 -32.196  1.00  0.00     0.070 A 
HETATM   22  C   UNL     1      -2.916   7.938 -31.208  1.00  0.00     0.038 A 
HETATM   23  C   UNL     1      -3.709   7.571 -30.123  1.00  0.00     0.029 A 
HETATM   24  C   UNL     1      -4.182   6.262 -30.028  1.00  0.00     0.061 A 
HETATM   25 CL   UNL     1      -5.162   5.844 -28.661  1.00  0.00    -0.082 Cl
BRANCH  21  26
HETATM   26  O   UNL     1      -1.810   7.501 -33.205  1.00  0.00    -0.356 OA
HETATM   27  C   UNL     1      -1.319   6.561 -34.154  1.00  0.00     0.210 C 
ENDBRANCH  21  26
ENDBRANCH   1  19
TORSDOF 2
ENDMDL
MODEL 6
REMARK VINA RESULT:      -8.2      2.187      2.334
REMARK  2 active torsions:
REMARK  status: ('A' for Active; 'I' for Inactive)
REMARK    1  A    between atoms: O_2  and  C_3 
REMARK    2  A    between atoms: C_5  and  N_6 
REMARK       I    between atoms: N_6  and  C_7 
REMARK       I    between atoms: C_7  and  N_8 
ROOT
HETATM    1  N   UNL     1      -3.463   4.704 -30.955  1.00  0.00    -0.307 N 
HETATM    2  C   UNL     1      -4.740   4.230 -30.763  1.00  0.00     0.323 C 
HETATM    3  N   UNL     1      -4.844   2.843 -30.732  1.00  0.00    -0.328 N 
HETATM    4  C   UNL     1      -3.801   1.900 -31.175  1.00  0.00     0.185 C 
HETATM    5  C   UNL     1      -4.435   0.839 -32.008  1.00  0.00     0.035 A 
HETATM    6  C   UNL     1      -5.786   0.636 -32.208  1.00  0.00    -0.020 A 
HETATM    7  C   UNL     1      -6.799   1.525 -31.568  1.00  0.00     0.061 C 
HETATM    8  C   UNL     1      -6.149   2.248 -30.372  1.00  0.00     0.132 C 
HETATM    9  N   UNL     1      -3.756  -0.116 -32.714  1.00  0.00    -0.357 N 
HETATM   10  H   UNL     1      -2.751  -0.217 -32.760  1.00  0.00     0.166 HD
HETATM   11  C   UNL     1      -4.649  -0.932 -33.376  1.00  0.00     0.043 A 
HETATM   12  C   UNL     1      -5.936  -0.476 -33.076  1.00  0.00    -0.001 A 
HETATM   13  C   UNL     1      -4.413  -2.027 -34.215  1.00  0.00     0.030 A 
HETATM   14  C   UNL     1      -5.525  -2.674 -34.765  1.00  0.00     0.002 A 
HETATM   15  C   UNL     1      -6.819  -2.240 -34.486  1.00  0.00     0.001 A 
HETATM   16  C   UNL     1      -7.039  -1.144 -33.644  1.00  0.00     0.014 A 
HETATM   17  O   UNL     1      -5.723   4.950 -30.610  1.00  0.00    -0.247 OA
HETATM   18  H   UNL     1      -2.709   4.074 -30.728  1.00  0.00     0.170 HD
ENDROOT
BRANCH   1  19
HETATM   19  C   UNL     1      -3.046   6.036 -31.198  1.00  0.00     0.060 A 
HETATM   20  C   UNL     1      -3.898   7.141 -31.077  1.00  0.00     0.068 A 
HETATM   21  C   UNL     1      -3.431   8.435 -31.337  1.00  0.00     0.070 A 
HETATM   22  C   UNL     1      -2.110   8.624 -31.746  1.00  0.00     0.038 A 
HETATM   23  C   UNL     1      -1.251   7.536 -31.885  1.00  0.00     0.029 A 
HETATM   24  C   UNL     1      -1.717   6.250 -31.610  1.00  0.00     0.061 A 
HETATM   25 CL   UNL     1      -0.617   4.924 -31.799  1.00  0.00    -0.082 Cl
BRANCH  21  26
HETATM   26  O   UNL     1      -4.164   9.587 -31.240  1.00  0.00    -0.356 OA
HETATM   27  C   UNL     1      -5.394   9.506 -30.528  1.00  0.00     0.210 C 
ENDBRANCH  21  26
ENDBRANCH   1  19
TORSDOF 2
ENDMDL
MODEL 7
REMARK VINA RESULT:      -8.1      6.777      9.756
REMARK  2 active torsions:
REMARK  status: ('A' for Active; 'I' for Inactive)
REMARK    1  A    between atoms: O_2  and  C_3 
REMARK    2  A    between atoms: C_5  and  N_6 
REMARK       I    between atoms: N_6  and  C_7 
REMARK       I    between atoms: C_7  and  N_8 
ROOT
HETATM    1  N   UNL     1     -12.157   3.066 -33.190  1.00  0.00    -0.307 N 
HETATM    2  C   UNL     1     -11.049   3.282 -32.404  1.00  0.00     0.323 C 
HETATM    3  N   UNL     1      -9.836   2.997 -33.021  1.00  0.00    -0.328 N 
HETATM    4  C   UNL     1      -9.675   2.234 -34.272  1.00  0.00     0.185 C 
HETATM    5  C   UNL     1      -8.569   1.250 -34.095  1.00  0.00     0.035 A 
HETATM    6  C   UNL     1      -7.702   1.158 -33.023  1.00  0.00    -0.020 A 
HETATM    7  C   UNL     1      -7.807   2.097 -31.869  1.00  0.00     0.061 C 
HETATM    8  C   UNL     1      -8.589   3.350 -32.309  1.00  0.00     0.132 C 
HETATM    9  N   UNL     1      -8.240   0.269 -34.989  1.00  0.00    -0.357 N 
HETATM   10  H   UNL     1      -8.702   0.090 -35.870  1.00  0.00     0.166 HD
HETATM   11  C   UNL     1      -7.174  -0.463 -34.509  1.00  0.00     0.043 A 
HETATM   12  C   UNL     1      -6.819   0.075 -33.269  1.00  0.00    -0.001 A 
HETATM   13  C   UNL     1      -6.508  -1.557 -35.075  1.00  0.00     0.030 A 
HETATM   14  C   UNL     1      -5.450  -2.116 -34.352  1.00  0.00     0.002 A 
HETATM   15  C   UNL     1      -5.076  -1.602 -33.113  1.00  0.00     0.001 A 
HETATM   16  C   UNL     1      -5.750  -0.508 -32.560  1.00  0.00     0.014 A 
HETATM   17  O   UNL     1     -11.098   3.707 -31.252  1.00  0.00    -0.247 OA
HETATM   18  H   UNL     1     -12.006   3.055 -34.187  1.00  0.00     0.170 HD
ENDROOT
BRANCH   1  19
HETATM   19  C   UNL     1     -13.523   3.099 -32.815  1.00  0.00     0.060 A 
HETATM   20  C   UNL     1     -14.155   4.244 -32.315  1.00  0.00     0.068 A 
HETATM   21  C   UNL     1     -15.507   4.214 -31.953  1.00  0.00     0.070 A 
HETATM   22  C   UNL     1     -16.226   3.023 -32.068  1.00  0.00     0.038 A 
HETATM   23  C   UNL     1     -15.612   1.870 -32.550  1.00  0.00     0.029 A 
HETATM   24  C   UNL     1     -14.269   1.909 -32.923  1.00  0.00     0.061 A 
HETATM   25 CL   UNL     1     -13.542   0.452 -33.515  1.00  0.00    -0.082 Cl
BRANCH  21  26
HETATM   26  O   UNL     1     -16.231   5.269 -31.468  1.00  0.00    -0.356 OA
HETATM   27  C   UNL     1     -17.609   5.032 -31.202  1.00  0.00     0.210 C 
ENDBRANCH  21  26
ENDBRANCH   1  19
TORSDOF 2
ENDMDL
MODEL 8
REMARK VINA RESULT:      -7.9      4.108      5.538
REMARK  2 active torsions:
REMARK  status: ('A' for Active; 'I' for Inactive)
REMARK    1  A    between atoms: O_2  and  C_3 
REMARK    2  A    between atoms: C_5  and  N_6 
REMARK       I    between atoms: N_6  and  C_7 
REMARK       I    between atoms: C_7  and  N_8 
ROOT
HETATM    1  N   UNL     1      -6.846   2.859 -32.255  1.00  0.00    -0.307 N 
HETATM    2  C   UNL     1      -5.612   2.413 -31.844  1.00  0.00     0.323 C 
HETATM    3  N   UNL     1      -5.000   1.517 -32.715  1.00  0.00    -0.328 N 
HETATM    4  C   UNL     1      -5.669   0.815 -33.825  1.00  0.00     0.185 C 
HETATM    5  C   UNL     1      -5.262  -0.619 -33.801  1.00  0.00     0.035 A 
HETATM    6  C   UNL     1      -4.291  -1.193 -33.005  1.00  0.00    -0.020 A 
HETATM    7  C   UNL     1      -3.515  -0.375 -32.030  1.00  0.00     0.061 C 
HETATM    8  C   UNL     1      -3.607   1.110 -32.433  1.00  0.00     0.132 C 
HETATM    9  N   UNL     1      -5.802  -1.601 -34.584  1.00  0.00    -0.357 N 
HETATM   10  H   UNL     1      -6.538  -1.480 -35.266  1.00  0.00     0.166 HD
HETATM   11  C   UNL     1      -5.198  -2.809 -34.302  1.00  0.00     0.043 A 
HETATM   12  C   UNL     1      -4.244  -2.579 -33.307  1.00  0.00    -0.001 A 
HETATM   13  C   UNL     1      -5.430  -4.078 -34.847  1.00  0.00     0.030 A 
HETATM   14  C   UNL     1      -4.665  -5.141 -34.359  1.00  0.00     0.002 A 
HETATM   15  C   UNL     1      -3.708  -4.943 -33.366  1.00  0.00     0.001 A 
HETATM   16  C   UNL     1      -3.487  -3.668 -32.832  1.00  0.00     0.014 A 
HETATM   17  O   UNL     1      -5.064   2.773 -30.806  1.00  0.00    -0.247 OA
HETATM   18  H   UNL     1      -7.047   2.784 -33.241  1.00  0.00     0.170 HD
ENDROOT
BRANCH   1  19
HETATM   19  C   UNL     1      -7.788   3.633 -31.533  1.00  0.00     0.060 A 
HETATM   20  C   UNL     1      -7.573   4.971 -31.180  1.00  0.00     0.068 A 
HETATM   21  C   UNL     1      -8.538   5.683 -30.459  1.00  0.00     0.070 A 
HETATM   22  C   UNL     1      -9.716   5.046 -30.064  1.00  0.00     0.038 A 
HETATM   23  C   UNL     1      -9.943   3.712 -30.395  1.00  0.00     0.029 A 
HETATM   24  C   UNL     1      -8.984   3.011 -31.126  1.00  0.00     0.061 A 
HETATM   25 CL   UNL     1      -9.303   1.352 -31.513  1.00  0.00    -0.082 Cl
BRANCH  21  26
HETATM   26  O   UNL     1      -8.445   6.992 -30.071  1.00  0.00    -0.356 OA
HETATM   27  C   UNL     1      -9.644   7.614 -29.621  1.00  0.00     0.210 C 
ENDBRANCH  21  26
ENDBRANCH   1  19
TORSDOF 2
ENDMDL
MODEL 9
REMARK VINA RESULT:      -7.9      5.314      7.881
REMARK  2 active torsions:
REMARK  status: ('A' for Active; 'I' for Inactive)
REMARK    1  A    between atoms: O_2  and  C_3 
REMARK    2  A    between atoms: C_5  and  N_6 
REMARK       I    between atoms: N_6  and  C_7 
REMARK       I    between atoms: C_7  and  N_8 
ROOT
HETATM    1  N   UNL     1      -9.890   2.358 -33.753  1.00  0.00    -0.307 N 
HETATM    2  C   UNL     1      -8.595   2.580 -33.349  1.00  0.00     0.323 C 
HETATM    3  N   UNL     1      -7.638   1.843 -34.041  1.00  0.00    -0.328 N 
HETATM    4  C   UNL     1      -7.918   0.684 -34.907  1.00  0.00     0.185 C 
HETATM    5  C   UNL     1      -6.942  -0.398 -34.592  1.00  0.00     0.035 A 
HETATM    6  C   UNL     1      -5.840  -0.307 -33.765  1.00  0.00    -0.020 A 
HETATM    7  C   UNL     1      -5.510   0.967 -33.063  1.00  0.00     0.061 C 
HETATM    8  C   UNL     1      -6.212   2.135 -33.784  1.00  0.00     0.132 C 
HETATM    9  N   UNL     1      -6.994  -1.671 -35.088  1.00  0.00    -0.357 N 
HETATM   10  H   UNL     1      -7.694  -2.034 -35.720  1.00  0.00     0.166 HD
HETATM   11  C   UNL     1      -5.943  -2.411 -34.588  1.00  0.00     0.043 A 
HETATM   12  C   UNL     1      -5.202  -1.575 -33.748  1.00  0.00    -0.001 A 
HETATM   13  C   UNL     1      -5.600  -3.750 -34.813  1.00  0.00     0.030 A 
HETATM   14  C   UNL     1      -4.469  -4.247 -34.158  1.00  0.00     0.002 A 
HETATM   15  C   UNL     1      -3.714  -3.438 -33.313  1.00  0.00     0.001 A 
HETATM   16  C   UNL     1      -4.068  -2.101 -33.100  1.00  0.00     0.014 A 
HETATM   17  O   UNL     1      -8.278   3.371 -32.465  1.00  0.00    -0.247 OA
HETATM   18  H   UNL     1     -10.015   1.975 -34.678  1.00  0.00     0.170 HD
ENDROOT
BRANCH   1  19
HETATM   19  C   UNL     1     -11.090   2.815 -33.153  1.00  0.00     0.060 A 
HETATM   20  C   UNL     1     -11.117   3.687 -32.057  1.00  0.00     0.068 A 
HETATM   21  C   UNL     1     -12.333   4.099 -31.501  1.00  0.00     0.070 A 
HETATM   22  C   UNL     1     -13.533   3.616 -32.028  1.00  0.00     0.038 A 
HETATM   23  C   UNL     1     -13.527   2.738 -33.110  1.00  0.00     0.029 A 
HETATM   24  C   UNL     1     -12.312   2.342 -33.669  1.00  0.00     0.061 A 
HETATM   25 CL   UNL     1     -12.348   1.246 -35.011  1.00  0.00    -0.082 Cl
BRANCH  21  26
HETATM   26  O   UNL     1     -12.483   4.954 -30.443  1.00  0.00    -0.356 OA
HETATM   27  C   UNL     1     -13.816   5.217 -30.016  1.00  0.00     0.210 C 
ENDBRANCH  21  26
ENDBRANCH   1  19
TORSDOF 2
ENDMDL
MODEL 10
REMARK VINA RESULT:      -7.9      3.077      8.884
REMARK  2 active torsions:
REMARK  status: ('A' for Active; 'I' for Inactive)
REMARK    1  A    between atoms: O_2  and  C_3 
REMARK    2  A    between atoms: C_5  and  N_6 
REMARK       I    between atoms: N_6  and  C_7 
REMARK       I    between atoms: C_7  and  N_8 
ROOT
HETATM    1  N   UNL     1      -4.442   3.664 -32.484  1.00  0.00    -0.307 N 
HETATM    2  C   UNL     1      -4.257   5.019 -32.633  1.00  0.00     0.323 C 
HETATM    3  N   UNL     1      -2.966   5.461 -32.360  1.00  0.00    -0.328 N 
HETATM    4  C   UNL     1      -1.927   4.680 -31.666  1.00  0.00     0.185 C 
HETATM    5  C   UNL     1      -1.268   5.551 -30.652  1.00  0.00     0.035 A 
HETATM    6  C   UNL     1      -1.446   6.910 -30.483  1.00  0.00    -0.020 A 
HETATM    7  C   UNL     1      -2.382   7.676 -31.356  1.00  0.00     0.061 C 
HETATM    8  C   UNL     1      -2.636   6.873 -32.648  1.00  0.00     0.132 C 
HETATM    9  N   UNL     1      -0.365   5.125 -29.718  1.00  0.00    -0.357 N 
HETATM   10  H   UNL     1      -0.038   4.176 -29.598  1.00  0.00     0.166 HD
HETATM   11  C   UNL     1       0.040   6.189 -28.940  1.00  0.00     0.043 A 
HETATM   12  C   UNL     1      -0.630   7.326 -29.399  1.00  0.00    -0.001 A 
HETATM   13  C   UNL     1       0.939   6.226 -27.866  1.00  0.00     0.030 A 
HETATM   14  C   UNL     1       1.157   7.460 -27.247  1.00  0.00     0.002 A 
HETATM   15  C   UNL     1       0.501   8.609 -27.682  1.00  0.00     0.001 A 
HETATM   16  C   UNL     1      -0.394   8.557 -28.756  1.00  0.00     0.014 A 
HETATM   17  O   UNL     1      -5.138   5.796 -32.993  1.00  0.00    -0.247 OA
HETATM   18  H   UNL     1      -3.614   3.089 -32.526  1.00  0.00     0.170 HD
ENDROOT
BRANCH   1  19
HETATM   19  C   UNL     1      -5.654   2.932 -32.521  1.00  0.00     0.060 A 
HETATM   20  C   UNL     1      -6.215   2.435 -33.704  1.00  0.00     0.068 A 
HETATM   21  C   UNL     1      -7.421   1.724 -33.680  1.00  0.00     0.070 A 
HETATM   22  C   UNL     1      -8.084   1.530 -32.467  1.00  0.00     0.038 A 
HETATM   23  C   UNL     1      -7.549   2.028 -31.281  1.00  0.00     0.029 A 
HETATM   24  C   UNL     1      -6.341   2.723 -31.309  1.00  0.00     0.061 A 
HETATM   25 CL   UNL     1      -5.711   3.329 -29.812  1.00  0.00    -0.082 Cl
BRANCH  21  26
HETATM   26  O   UNL     1      -8.054   1.183 -34.766  1.00  0.00    -0.356 OA
HETATM   27  C   UNL     1      -7.415   0.077 -35.395  1.00  0.00     0.210 C 
ENDBRANCH  21  26
ENDBRANCH   1  19
TORSDOF 2
ENDMDL
