MODEL 1
REMARK VINA RESULT:      -8.3      0.000      0.000
REMARK  7 active torsions:
REMARK  status: ('A' for Active; 'I' for Inactive)
REMARK    1  A    between atoms: C_7  and  C_8 
REMARK    2  A    between atoms: C_8  and  N_9 
REMARK       I    between atoms: N_9  and  C_10 
REMARK       I    between atoms: C_10  and  N_11 
REMARK    3  A    between atoms: N_11  and  C_12 
REMARK    4  A    between atoms: C_12  and  C_13 
REMARK    5  A    between atoms: C_13  and  C_14 
REMARK    6  A    between atoms: C_14  and  O_15 
REMARK    7  A    between atoms: C_14  and  C_16 
ROOT
HETATM    1  N   UNL     1      -3.876   2.091 -32.514  1.00  0.00    -0.337 N 
HETATM    2  C   UNL     1      -3.064   3.173 -32.288  1.00  0.00     0.316 C 
HETATM    3  N   UNL     1      -3.148   4.096 -33.285  1.00  0.00    -0.339 N 
HETATM    4  O   UNL     1      -2.370   3.286 -31.283  1.00  0.00    -0.247 OA
HETATM    5  H   UNL     1      -4.252   2.043 -33.451  1.00  0.00     0.164 HD
HETATM    6  H   UNL     1      -3.612   3.841 -34.154  1.00  0.00     0.164 HD
ENDROOT
BRANCH   1   7
HETATM    7  C   UNL     1      -3.637   0.823 -31.854  1.00  0.00     0.183 C 
BRANCH   7   8
HETATM    8  C   UNL     1      -4.161  -0.333 -32.623  1.00  0.00     0.044 A 
HETATM    9  N   UNL     1      -5.395  -0.334 -33.258  1.00  0.00    -0.343 N 
HETATM   10  C   UNL     1      -5.640  -1.504 -33.828  1.00  0.00     0.112 A 
HETATM   11  H   UNL     1      -6.016   0.485 -33.258  1.00  0.00     0.167 HD
HETATM   12  N   UNL     1      -4.595  -2.314 -33.563  1.00  0.00    -0.311 N 
HETATM   13  C   UNL     1      -6.806  -1.969 -34.613  1.00  0.00     0.049 A 
HETATM   14  C   UNL     1      -4.549  -3.642 -33.984  1.00  0.00     0.014 A 
HETATM   15  C   UNL     1      -3.657  -1.600 -32.829  1.00  0.00     0.125 A 
HETATM   16  C   UNL     1      -3.385  -4.523 -33.641  1.00  0.00     0.068 C 
HETATM   17  C   UNL     1      -5.611  -4.079 -34.698  1.00  0.00     0.025 A 
HETATM   18  C   UNL     1      -6.761  -3.245 -35.033  1.00  0.00     0.006 A 
ENDBRANCH   7   8
ENDBRANCH   1   7
BRANCH   3  19
HETATM   19  C   UNL     1      -2.238   5.228 -33.416  1.00  0.00     0.085 C 
HETATM   20  C   UNL     1      -1.555   5.232 -34.783  1.00  0.00     0.032 C 
BRANCH  19  21
HETATM   21  C   UNL     1      -2.966   6.551 -33.094  1.00  0.00     0.063 C 
BRANCH  21  22
HETATM   22  C   UNL     1      -2.322   7.483 -32.055  1.00  0.00     0.177 C 
BRANCH  22  23
HETATM   23  O   UNL     1      -1.877   8.699 -32.679  1.00  0.00    -0.389 OA
HETATM   24  H   UNL     1      -1.055   8.936 -32.205  1.00  0.00     0.210 HD
ENDBRANCH  22  23
BRANCH  22  25
HETATM   25  C   UNL     1      -1.174   6.884 -31.311  1.00  0.00     0.081 A 
HETATM   26  O   UNL     1      -1.464   6.239 -30.140  1.00  0.00    -0.324 OA
HETATM   27  C   UNL     1      -0.295   5.752 -29.651  1.00  0.00     0.142 A 
HETATM   28  C   UNL     1       0.744   6.059 -30.497  1.00  0.00     0.027 A 
HETATM   29  C   UNL     1       0.178   6.783 -31.574  1.00  0.00     0.037 A 
ENDBRANCH  22  25
ENDBRANCH  21  22
ENDBRANCH  19  21
ENDBRANCH   3  19
TORSDOF 7
ENDMDL
MODEL 2
REMARK VINA RESULT:      -8.2      1.203      2.104
REMARK  7 active torsions:
REMARK  status: ('A' for Active; 'I' for Inactive)
REMARK    1  A    between atoms: C_7  and  C_8 
REMARK    2  A    between atoms: C_8  and  N_9 
REMARK       I    between atoms: N_9  and  C_10 
REMARK       I    between atoms: C_10  and  N_11 
REMARK    3  A    between atoms: N_11  and  C_12 
REMARK    4  A    between atoms: C_12  and  C_13 
REMARK    5  A    between atoms: C_13  and  C_14 
REMARK    6  A    between atoms: C_14  and  O_15 
REMARK    7  A    between atoms: C_14  and  C_16 
ROOT
HETATM    1  N   UNL     1      -3.860   3.437 -31.918  1.00  0.00    -0.337 N 
HETATM    2  C   UNL     1      -2.687   4.137 -32.047  1.00  0.00     0.316 C 
HETATM    3  N   UNL     1      -2.753   5.071 -33.035  1.00  0.00    -0.339 N 
HETATM    4  O   UNL     1      -1.714   3.942 -31.327  1.00  0.00    -0.247 OA
HETATM    5  H   UNL     1      -4.510   3.573 -32.680  1.00  0.00     0.164 HD
HETATM    6  H   UNL     1      -3.532   5.042 -33.688  1.00  0.00     0.164 HD
ENDROOT
BRANCH   1   7
HETATM    7  C   UNL     1      -3.892   2.140 -31.271  1.00  0.00     0.183 C 
BRANCH   7   8
HETATM    8  C   UNL     1      -4.463   1.079 -32.137  1.00  0.00     0.044 A 
HETATM    9  N   UNL     1      -3.903  -0.184 -32.270  1.00  0.00    -0.343 N 
HETATM   10  C   UNL     1      -4.578  -0.919 -33.140  1.00  0.00     0.112 A 
HETATM   11  H   UNL     1      -3.065  -0.473 -31.750  1.00  0.00     0.167 HD
HETATM   12  N   UNL     1      -5.580  -0.158 -33.626  1.00  0.00    -0.311 N 
HETATM   13  C   UNL     1      -4.365  -2.311 -33.597  1.00  0.00     0.049 A 
HETATM   14  C   UNL     1      -6.464  -0.616 -34.602  1.00  0.00     0.014 A 
HETATM   15  C   UNL     1      -5.537   1.081 -33.003  1.00  0.00     0.125 A 
HETATM   16  C   UNL     1      -7.546   0.271 -35.143  1.00  0.00     0.068 C 
HETATM   17  C   UNL     1      -6.276  -1.885 -35.030  1.00  0.00     0.025 A 
HETATM   18  C   UNL     1      -5.223  -2.762 -34.529  1.00  0.00     0.006 A 
ENDBRANCH   7   8
ENDBRANCH   1   7
BRANCH   3  19
HETATM   19  C   UNL     1      -1.592   5.798 -33.537  1.00  0.00     0.085 C 
HETATM   20  C   UNL     1      -1.225   5.344 -34.949  1.00  0.00     0.032 C 
BRANCH  19  21
HETATM   21  C   UNL     1      -1.814   7.321 -33.423  1.00  0.00     0.063 C 
BRANCH  21  22
HETATM   22  C   UNL     1      -2.078   7.900 -32.024  1.00  0.00     0.177 C 
BRANCH  22  23
HETATM   23  O   UNL     1      -1.992   9.334 -32.050  1.00  0.00    -0.389 OA
HETATM   24  H   UNL     1      -1.321   9.556 -31.374  1.00  0.00     0.210 HD
ENDBRANCH  22  23
BRANCH  22  25
HETATM   25  C   UNL     1      -1.165   7.389 -30.958  1.00  0.00     0.081 A 
HETATM   26  O   UNL     1      -1.743   7.003 -29.780  1.00  0.00    -0.324 OA
HETATM   27  C   UNL     1      -0.748   6.551 -28.976  1.00  0.00     0.142 A 
HETATM   28  C   UNL     1       0.463   6.625 -29.621  1.00  0.00     0.027 A 
HETATM   29  C   UNL     1       0.195   7.158 -30.906  1.00  0.00     0.037 A 
ENDBRANCH  22  25
ENDBRANCH  21  22
ENDBRANCH  19  21
ENDBRANCH   3  19
TORSDOF 7
ENDMDL
MODEL 3
REMARK VINA RESULT:      -8.1      1.837      2.611
REMARK  7 active torsions:
REMARK  status: ('A' for Active; 'I' for Inactive)
REMARK    1  A    between atoms: C_7  and  C_8 
REMARK    2  A    between atoms: C_8  and  N_9 
REMARK       I    between atoms: N_9  and  C_10 
REMARK       I    between atoms: C_10  and  N_11 
REMARK    3  A    between atoms: N_11  and  C_12 
REMARK    4  A    between atoms: C_12  and  C_13 
REMARK    5  A    between atoms: C_13  and  C_14 
REMARK    6  A    between atoms: C_14  and  O_15 
REMARK    7  A    between atoms: C_14  and  C_16 
ROOT
HETATM    1  N   UNL     1      -4.361   4.123 -31.143  1.00  0.00    -0.337 N 
HETATM    2  C   UNL     1      -3.060   4.130 -31.580  1.00  0.00     0.316 C 
HETATM    3  N   UNL     1      -2.792   5.200 -32.376  1.00  0.00    -0.339 N 
HETATM    4  O   UNL     1      -2.245   3.272 -31.256  1.00  0.00    -0.247 OA
HETATM    5  H   UNL     1      -4.963   4.779 -31.621  1.00  0.00     0.164 HD
HETATM    6  H   UNL     1      -3.566   5.758 -32.728  1.00  0.00     0.164 HD
ENDROOT
BRANCH   1   7
HETATM    7  C   UNL     1      -4.987   2.904 -30.672  1.00  0.00     0.183 C 
BRANCH   7   8
HETATM    8  C   UNL     1      -5.405   2.008 -31.779  1.00  0.00     0.044 A 
HETATM    9  N   UNL     1      -6.488   2.267 -32.607  1.00  0.00    -0.343 N 
HETATM   10  C   UNL     1      -6.673   1.286 -33.478  1.00  0.00     0.112 A 
HETATM   11  H   UNL     1      -7.058   3.118 -32.520  1.00  0.00     0.167 HD
HETATM   12  N   UNL     1      -5.740   0.343 -33.233  1.00  0.00    -0.311 N 
HETATM   13  C   UNL     1      -7.683   1.123 -34.548  1.00  0.00     0.049 A 
HETATM   14  C   UNL     1      -5.676  -0.852 -33.948  1.00  0.00     0.014 A 
HETATM   15  C   UNL     1      -4.931   0.780 -32.193  1.00  0.00     0.125 A 
HETATM   16  C   UNL     1      -4.645  -1.892 -33.625  1.00  0.00     0.068 C 
HETATM   17  C   UNL     1      -6.596  -1.013 -34.925  1.00  0.00     0.025 A 
HETATM   18  C   UNL     1      -7.617  -0.022 -35.249  1.00  0.00     0.006 A 
ENDBRANCH   7   8
ENDBRANCH   1   7
BRANCH   3  19
HETATM   19  C   UNL     1      -1.566   5.340 -33.155  1.00  0.00     0.085 C 
HETATM   20  C   UNL     1      -1.870   5.452 -34.648  1.00  0.00     0.032 C 
BRANCH  19  21
HETATM   21  C   UNL     1      -0.711   6.508 -32.617  1.00  0.00     0.063 C 
BRANCH  21  22
HETATM   22  C   UNL     1       0.200   6.228 -31.412  1.00  0.00     0.177 C 
BRANCH  22  23
HETATM   23  O   UNL     1       0.322   4.812 -31.195  1.00  0.00    -0.389 OA
HETATM   24  H   UNL     1       0.437   4.717 -30.228  1.00  0.00     0.210 HD
ENDBRANCH  22  23
BRANCH  22  25
HETATM   25  C   UNL     1      -0.242   6.867 -30.137  1.00  0.00     0.081 A 
HETATM   26  O   UNL     1      -1.584   6.848 -29.868  1.00  0.00    -0.324 OA
HETATM   27  C   UNL     1      -1.758   7.449 -28.664  1.00  0.00     0.142 A 
HETATM   28  C   UNL     1      -0.549   7.841 -28.142  1.00  0.00     0.027 A 
HETATM   29  C   UNL     1       0.433   7.459 -29.089  1.00  0.00     0.037 A 
ENDBRANCH  22  25
ENDBRANCH  21  22
ENDBRANCH  19  21
ENDBRANCH   3  19
TORSDOF 7
ENDMDL
MODEL 4
REMARK VINA RESULT:      -8.0      1.826      3.335
REMARK  7 active torsions:
REMARK  status: ('A' for Active; 'I' for Inactive)
REMARK    1  A    between atoms: C_7  and  C_8 
REMARK    2  A    between atoms: C_8  and  N_9 
REMARK       I    between atoms: N_9  and  C_10 
REMARK       I    between atoms: C_10  and  N_11 
REMARK    3  A    between atoms: N_11  and  C_12 
REMARK    4  A    between atoms: C_12  and  C_13 
REMARK    5  A    between atoms: C_13  and  C_14 
REMARK    6  A    between atoms: C_14  and  O_15 
REMARK    7  A    between atoms: C_14  and  C_16 
ROOT
HETATM    1  N   UNL     1      -3.221   3.410 -31.094  1.00  0.00    -0.337 N 
HETATM    2  C   UNL     1      -2.983   4.760 -31.037  1.00  0.00     0.316 C 
HETATM    3  N   UNL     1      -1.661   5.042 -30.886  1.00  0.00    -0.339 N 
HETATM    4  O   UNL     1      -3.874   5.597 -31.138  1.00  0.00    -0.247 OA
HETATM    5  H   UNL     1      -2.433   2.838 -30.823  1.00  0.00     0.164 HD
HETATM    6  H   UNL     1      -1.022   4.290 -30.639  1.00  0.00     0.164 HD
ENDROOT
BRANCH   1   7
HETATM    7  C   UNL     1      -4.534   2.867 -30.810  1.00  0.00     0.183 C 
BRANCH   7   8
HETATM    8  C   UNL     1      -5.031   1.972 -31.885  1.00  0.00     0.044 A 
HETATM    9  N   UNL     1      -6.108   2.282 -32.703  1.00  0.00    -0.343 N 
HETATM   10  C   UNL     1      -6.374   1.293 -33.543  1.00  0.00     0.112 A 
HETATM   11  H   UNL     1      -6.616   3.173 -32.632  1.00  0.00     0.167 HD
HETATM   12  N   UNL     1      -5.503   0.295 -33.285  1.00  0.00    -0.311 N 
HETATM   13  C   UNL     1      -7.410   1.171 -34.592  1.00  0.00     0.049 A 
HETATM   14  C   UNL     1      -5.534  -0.921 -33.967  1.00  0.00     0.014 A 
HETATM   15  C   UNL     1      -4.649   0.703 -32.270  1.00  0.00     0.125 A 
HETATM   16  C   UNL     1      -4.571  -2.020 -33.630  1.00  0.00     0.068 C 
HETATM   17  C   UNL     1      -6.479  -1.045 -34.925  1.00  0.00     0.025 A 
HETATM   18  C   UNL     1      -7.435   0.005 -35.261  1.00  0.00     0.006 A 
ENDBRANCH   7   8
ENDBRANCH   1   7
BRANCH   3  19
HETATM   19  C   UNL     1      -1.149   6.373 -30.575  1.00  0.00     0.085 C 
HETATM   20  C   UNL     1      -0.446   6.390 -29.218  1.00  0.00     0.032 C 
BRANCH  19  21
HETATM   21  C   UNL     1      -0.267   6.899 -31.727  1.00  0.00     0.063 C 
BRANCH  21  22
HETATM   22  C   UNL     1      -0.978   7.483 -32.958  1.00  0.00     0.177 C 
BRANCH  22  23
HETATM   23  O   UNL     1      -1.933   8.480 -32.560  1.00  0.00    -0.389 OA
HETATM   24  H   UNL     1      -2.286   8.837 -33.400  1.00  0.00     0.210 HD
ENDBRANCH  22  23
BRANCH  22  25
HETATM   25  C   UNL     1      -1.674   6.472 -33.809  1.00  0.00     0.081 A 
HETATM   26  O   UNL     1      -3.011   6.664 -34.031  1.00  0.00    -0.324 OA
HETATM   27  C   UNL     1      -3.430   5.659 -34.841  1.00  0.00     0.142 A 
HETATM   28  C   UNL     1      -2.382   4.829 -35.159  1.00  0.00     0.027 A 
HETATM   29  C   UNL     1      -1.245   5.357 -34.500  1.00  0.00     0.037 A 
ENDBRANCH  22  25
ENDBRANCH  21  22
ENDBRANCH  19  21
ENDBRANCH   3  19
TORSDOF 7
ENDMDL
MODEL 5
REMARK VINA RESULT:      -7.9      4.443      6.041
REMARK  7 active torsions:
REMARK  status: ('A' for Active; 'I' for Inactive)
REMARK    1  A    between atoms: C_7  and  C_8 
REMARK    2  A    between atoms: C_8  and  N_9 
REMARK       I    between atoms: N_9  and  C_10 
REMARK       I    between atoms: C_10  and  N_11 
REMARK    3  A    between atoms: N_11  and  C_12 
REMARK    4  A    between atoms: C_12  and  C_13 
REMARK    5  A    between atoms: C_13  and  C_14 
REMARK    6  A    between atoms: C_14  and  O_15 
REMARK    7  A    between atoms: C_14  and  C_16 
ROOT
HETATM    1  N   UNL     1      -4.768   1.591 -32.333  1.00  0.00    -0.337 N 
HETATM    2  C   UNL     1      -5.803   1.741 -31.446  1.00  0.00     0.316 C 
HETATM    3  N   UNL     1      -6.288   3.013 -31.433  1.00  0.00    -0.339 N 
HETATM    4  O   UNL     1      -6.239   0.815 -30.770  1.00  0.00    -0.247 OA
HETATM    5  H   UNL     1      -4.397   2.462 -32.689  1.00  0.00     0.164 HD
HETATM    6  H   UNL     1      -5.757   3.747 -31.894  1.00  0.00     0.164 HD
ENDROOT
BRANCH   1   7
HETATM    7  C   UNL     1      -3.827   0.496 -32.210  1.00  0.00     0.183 C 
BRANCH   7   8
HETATM    8  C   UNL     1      -4.281  -0.734 -32.904  1.00  0.00     0.044 A 
HETATM    9  N   UNL     1      -5.520  -0.853 -33.518  1.00  0.00    -0.343 N 
HETATM   10  C   UNL     1      -5.694  -2.067 -34.018  1.00  0.00     0.112 A 
HETATM   11  H   UNL     1      -6.196  -0.079 -33.552  1.00  0.00     0.167 HD
HETATM   12  N   UNL     1      -4.592  -2.790 -33.726  1.00  0.00    -0.311 N 
HETATM   13  C   UNL     1      -6.836  -2.653 -34.755  1.00  0.00     0.049 A 
HETATM   14  C   UNL     1      -4.463  -4.133 -34.073  1.00  0.00     0.014 A 
HETATM   15  C   UNL     1      -3.695  -1.974 -33.049  1.00  0.00     0.125 A 
HETATM   16  C   UNL     1      -3.236  -4.913 -33.702  1.00  0.00     0.068 C 
HETATM   17  C   UNL     1      -5.502  -4.679 -34.744  1.00  0.00     0.025 A 
HETATM   18  C   UNL     1      -6.710  -3.945 -35.104  1.00  0.00     0.006 A 
ENDBRANCH   7   8
ENDBRANCH   1   7
BRANCH   3  19
HETATM   19  C   UNL     1      -7.230   3.508 -30.435  1.00  0.00     0.085 C 
HETATM   20  C   UNL     1      -6.559   4.501 -29.488  1.00  0.00     0.032 C 
BRANCH  19  21
HETATM   21  C   UNL     1      -8.496   4.073 -31.115  1.00  0.00     0.063 C 
BRANCH  21  22
HETATM   22  C   UNL     1      -9.643   3.093 -31.411  1.00  0.00     0.177 C 
BRANCH  22  23
HETATM   23  O   UNL     1     -10.082   2.455 -30.200  1.00  0.00    -0.389 OA
HETATM   24  H   UNL     1      -9.367   2.627 -29.554  1.00  0.00     0.210 HD
ENDBRANCH  22  23
BRANCH  22  25
HETATM   25  C   UNL     1      -9.312   2.035 -32.411  1.00  0.00     0.081 A 
HETATM   26  O   UNL     1      -8.633   2.432 -33.531  1.00  0.00    -0.324 OA
HETATM   27  C   UNL     1      -8.414   1.322 -34.280  1.00  0.00     0.142 A 
HETATM   28  C   UNL     1      -8.927   0.211 -33.655  1.00  0.00     0.027 A 
HETATM   29  C   UNL     1      -9.501   0.667 -32.443  1.00  0.00     0.037 A 
ENDBRANCH  22  25
ENDBRANCH  21  22
ENDBRANCH  19  21
ENDBRANCH   3  19
TORSDOF 7
ENDMDL
MODEL 6
REMARK VINA RESULT:      -7.6      3.192      9.187
REMARK  7 active torsions:
REMARK  status: ('A' for Active; 'I' for Inactive)
REMARK    1  A    between atoms: C_7  and  C_8 
REMARK    2  A    between atoms: C_8  and  N_9 
REMARK       I    between atoms: N_9  and  C_10 
REMARK       I    between atoms: C_10  and  N_11 
REMARK    3  A    between atoms: N_11  and  C_12 
REMARK    4  A    between atoms: C_12  and  C_13 
REMARK    5  A    between atoms: C_13  and  C_14 
REMARK    6  A    between atoms: C_14  and  O_15 
REMARK    7  A    between atoms: C_14  and  C_16 
ROOT
HETATM    1  N   UNL     1      -7.110   3.728 -33.850  1.00  0.00    -0.337 N 
HETATM    2  C   UNL     1      -7.144   2.733 -32.906  1.00  0.00     0.316 C 
HETATM    3  N   UNL     1      -7.792   1.623 -33.354  1.00  0.00    -0.339 N 
HETATM    4  O   UNL     1      -6.622   2.844 -31.802  1.00  0.00    -0.247 OA
HETATM    5  H   UNL     1      -7.723   3.573 -34.639  1.00  0.00     0.164 HD
HETATM    6  H   UNL     1      -8.338   1.683 -34.210  1.00  0.00     0.164 HD
ENDROOT
BRANCH   1   7
HETATM    7  C   UNL     1      -6.884   5.109 -33.475  1.00  0.00     0.183 C 
BRANCH   7   8
HETATM    8  C   UNL     1      -5.458   5.508 -33.580  1.00  0.00     0.044 A 
HETATM    9  N   UNL     1      -4.550   4.887 -34.425  1.00  0.00    -0.343 N 
HETATM   10  C   UNL     1      -3.337   5.401 -34.288  1.00  0.00     0.112 A 
HETATM   11  H   UNL     1      -4.818   4.122 -35.057  1.00  0.00     0.167 HD
HETATM   12  N   UNL     1      -3.403   6.352 -33.334  1.00  0.00    -0.311 N 
HETATM   13  C   UNL     1      -2.067   5.072 -34.972  1.00  0.00     0.049 A 
HETATM   14  C   UNL     1      -2.285   7.069 -32.910  1.00  0.00     0.014 A 
HETATM   15  C   UNL     1      -4.716   6.446 -32.893  1.00  0.00     0.125 A 
HETATM   16  C   UNL     1      -2.391   8.096 -31.823  1.00  0.00     0.068 C 
HETATM   17  C   UNL     1      -1.118   6.773 -33.526  1.00  0.00     0.025 A 
HETATM   18  C   UNL     1      -0.988   5.769 -34.577  1.00  0.00     0.006 A 
ENDBRANCH   7   8
ENDBRANCH   1   7
BRANCH   3  19
HETATM   19  C   UNL     1      -8.170   0.506 -32.495  1.00  0.00     0.085 C 
HETATM   20  C   UNL     1      -9.649   0.158 -32.660  1.00  0.00     0.032 C 
BRANCH  19  21
HETATM   21  C   UNL     1      -7.231  -0.698 -32.722  1.00  0.00     0.063 C 
BRANCH  21  22
HETATM   22  C   UNL     1      -6.636  -0.881 -34.127  1.00  0.00     0.177 C 
BRANCH  22  23
HETATM   23  O   UNL     1      -7.606  -0.541 -35.131  1.00  0.00    -0.389 OA
HETATM   24  H   UNL     1      -7.816   0.400 -34.967  1.00  0.00     0.210 HD
ENDBRANCH  22  23
BRANCH  22  25
HETATM   25  C   UNL     1      -6.122  -2.254 -34.410  1.00  0.00     0.081 A 
HETATM   26  O   UNL     1      -4.797  -2.484 -34.155  1.00  0.00    -0.324 OA
HETATM   27  C   UNL     1      -4.554  -3.786 -34.451  1.00  0.00     0.142 A 
HETATM   28  C   UNL     1      -5.704  -4.405 -34.878  1.00  0.00     0.027 A 
HETATM   29  C   UNL     1      -6.721  -3.420 -34.845  1.00  0.00     0.037 A 
ENDBRANCH  22  25
ENDBRANCH  21  22
ENDBRANCH  19  21
ENDBRANCH   3  19
TORSDOF 7
ENDMDL
MODEL 7
REMARK VINA RESULT:      -7.6      1.913      2.916
REMARK  7 active torsions:
REMARK  status: ('A' for Active; 'I' for Inactive)
REMARK    1  A    between atoms: C_7  and  C_8 
REMARK    2  A    between atoms: C_8  and  N_9 
REMARK       I    between atoms: N_9  and  C_10 
REMARK       I    between atoms: C_10  and  N_11 
REMARK    3  A    between atoms: N_11  and  C_12 
REMARK    4  A    between atoms: C_12  and  C_13 
REMARK    5  A    between atoms: C_13  and  C_14 
REMARK    6  A    between atoms: C_14  and  O_15 
REMARK    7  A    between atoms: C_14  and  C_16 
ROOT
HETATM    1  N   UNL     1      -5.363   1.590 -33.225  1.00  0.00    -0.337 N 
HETATM    2  C   UNL     1      -5.506   2.954 -33.255  1.00  0.00     0.316 C 
HETATM    3  N   UNL     1      -4.849   3.562 -32.231  1.00  0.00    -0.339 N 
HETATM    4  O   UNL     1      -6.139   3.537 -34.130  1.00  0.00    -0.247 OA
HETATM    5  H   UNL     1      -4.972   1.233 -32.364  1.00  0.00     0.164 HD
HETATM    6  H   UNL     1      -4.500   2.993 -31.463  1.00  0.00     0.164 HD
ENDROOT
BRANCH   1   7
HETATM    7  C   UNL     1      -6.297   0.722 -33.914  1.00  0.00     0.183 C 
BRANCH   7   8
HETATM    8  C   UNL     1      -5.864  -0.698 -33.922  1.00  0.00     0.044 A 
HETATM    9  N   UNL     1      -4.723  -1.154 -33.277  1.00  0.00    -0.343 N 
HETATM   10  C   UNL     1      -4.540  -2.449 -33.483  1.00  0.00     0.112 A 
HETATM   11  H   UNL     1      -4.116  -0.534 -32.725  1.00  0.00     0.167 HD
HETATM   12  N   UNL     1      -5.533  -2.878 -34.290  1.00  0.00    -0.311 N 
HETATM   13  C   UNL     1      -3.481  -3.363 -33.000  1.00  0.00     0.049 A 
HETATM   14  C   UNL     1      -5.618  -4.194 -34.741  1.00  0.00     0.014 A 
HETATM   15  C   UNL     1      -6.376  -1.808 -34.560  1.00  0.00     0.125 A 
HETATM   16  C   UNL     1      -6.718  -4.626 -35.664  1.00  0.00     0.068 C 
HETATM   17  C   UNL     1      -4.653  -5.036 -34.309  1.00  0.00     0.025 A 
HETATM   18  C   UNL     1      -3.565  -4.637 -33.422  1.00  0.00     0.006 A 
ENDBRANCH   7   8
ENDBRANCH   1   7
BRANCH   3  19
HETATM   19  C   UNL     1      -5.012   4.971 -31.890  1.00  0.00     0.085 C 
HETATM   20  C   UNL     1      -6.330   5.213 -31.156  1.00  0.00     0.032 C 
BRANCH  19  21
HETATM   21  C   UNL     1      -3.780   5.491 -31.118  1.00  0.00     0.063 C 
BRANCH  21  22
HETATM   22  C   UNL     1      -2.405   4.923 -31.508  1.00  0.00     0.177 C 
BRANCH  22  23
HETATM   23  O   UNL     1      -2.291   3.554 -31.087  1.00  0.00    -0.389 OA
HETATM   24  H   UNL     1      -2.636   3.544 -30.172  1.00  0.00     0.210 HD
ENDBRANCH  22  23
BRANCH  22  25
HETATM   25  C   UNL     1      -1.242   5.686 -30.963  1.00  0.00     0.081 A 
HETATM   26  O   UNL     1      -0.425   5.026 -30.086  1.00  0.00    -0.324 OA
HETATM   27  C   UNL     1       0.569   5.884 -29.744  1.00  0.00     0.142 A 
HETATM   28  C   UNL     1       0.417   7.082 -30.398  1.00  0.00     0.027 A 
HETATM   29  C   UNL     1      -0.748   6.954 -31.193  1.00  0.00     0.037 A 
ENDBRANCH  22  25
ENDBRANCH  21  22
ENDBRANCH  19  21
ENDBRANCH   3  19
TORSDOF 7
ENDMDL
MODEL 8
REMARK VINA RESULT:      -7.6      1.879      2.563
REMARK  7 active torsions:
REMARK  status: ('A' for Active; 'I' for Inactive)
REMARK    1  A    between atoms: C_7  and  C_8 
REMARK    2  A    between atoms: C_8  and  N_9 
REMARK       I    between atoms: N_9  and  C_10 
REMARK       I    between atoms: C_10  and  N_11 
REMARK    3  A    between atoms: N_11  and  C_12 
REMARK    4  A    between atoms: C_12  and  C_13 
REMARK    5  A    between atoms: C_13  and  C_14 
REMARK    6  A    between atoms: C_14  and  O_15 
REMARK    7  A    between atoms: C_14  and  C_16 
ROOT
HETATM    1  N   UNL     1      -5.716   4.878 -34.130  1.00  0.00    -0.337 N 
HETATM    2  C   UNL     1      -4.571   5.249 -33.471  1.00  0.00     0.316 C 
HETATM    3  N   UNL     1      -3.592   5.649 -34.328  1.00  0.00    -0.339 N 
HETATM    4  O   UNL     1      -4.474   5.235 -32.249  1.00  0.00    -0.247 OA
HETATM    5  H   UNL     1      -5.603   4.769 -35.129  1.00  0.00     0.164 HD
HETATM    6  H   UNL     1      -3.702   5.463 -35.322  1.00  0.00     0.164 HD
ENDROOT
BRANCH   1   7
HETATM    7  C   UNL     1      -6.702   4.024 -33.499  1.00  0.00     0.183 C 
BRANCH   7   8
HETATM    8  C   UNL     1      -6.387   2.581 -33.641  1.00  0.00     0.044 A 
HETATM    9  N   UNL     1      -7.111   1.714 -34.447  1.00  0.00    -0.343 N 
HETATM   10  C   UNL     1      -6.653   0.475 -34.354  1.00  0.00     0.112 A 
HETATM   11  H   UNL     1      -7.902   2.029 -35.023  1.00  0.00     0.167 HD
HETATM   12  N   UNL     1      -5.637   0.482 -33.466  1.00  0.00    -0.311 N 
HETATM   13  C   UNL     1      -7.095  -0.770 -35.022  1.00  0.00     0.049 A 
HETATM   14  C   UNL     1      -4.954  -0.676 -33.100  1.00  0.00     0.014 A 
HETATM   15  C   UNL     1      -5.445   1.784 -33.024  1.00  0.00     0.125 A 
HETATM   16  C   UNL     1      -3.851  -0.635 -32.084  1.00  0.00     0.068 C 
HETATM   17  C   UNL     1      -5.352  -1.820 -33.701  1.00  0.00     0.025 A 
HETATM   18  C   UNL     1      -6.430  -1.887 -34.682  1.00  0.00     0.006 A 
ENDBRANCH   7   8
ENDBRANCH   1   7
BRANCH   3  19
HETATM   19  C   UNL     1      -2.210   5.881 -33.923  1.00  0.00     0.085 C 
HETATM   20  C   UNL     1      -1.231   5.303 -34.944  1.00  0.00     0.032 C 
BRANCH  19  21
HETATM   21  C   UNL     1      -1.973   7.378 -33.630  1.00  0.00     0.063 C 
BRANCH  21  22
HETATM   22  C   UNL     1      -2.166   7.859 -32.182  1.00  0.00     0.177 C 
BRANCH  22  23
HETATM   23  O   UNL     1      -1.930   9.273 -32.088  1.00  0.00    -0.389 OA
HETATM   24  H   UNL     1      -2.438   9.560 -31.303  1.00  0.00     0.210 HD
ENDBRANCH  22  23
BRANCH  22  25
HETATM   25  C   UNL     1      -1.304   7.166 -31.178  1.00  0.00     0.081 A 
HETATM   26  O   UNL     1      -0.006   6.927 -31.538  1.00  0.00    -0.324 OA
HETATM   27  C   UNL     1       0.596   6.323 -30.481  1.00  0.00     0.142 A 
HETATM   28  C   UNL     1      -0.289   6.183 -29.439  1.00  0.00     0.027 A 
HETATM   29  C   UNL     1      -1.515   6.735 -29.884  1.00  0.00     0.037 A 
ENDBRANCH  22  25
ENDBRANCH  21  22
ENDBRANCH  19  21
ENDBRANCH   3  19
TORSDOF 7
ENDMDL
MODEL 9
REMARK VINA RESULT:      -7.5      3.923      6.195
REMARK  7 active torsions:
REMARK  status: ('A' for Active; 'I' for Inactive)
REMARK    1  A    between atoms: C_7  and  C_8 
REMARK    2  A    between atoms: C_8  and  N_9 
REMARK       I    between atoms: N_9  and  C_10 
REMARK       I    between atoms: C_10  and  N_11 
REMARK    3  A    between atoms: N_11  and  C_12 
REMARK    4  A    between atoms: C_12  and  C_13 
REMARK    5  A    between atoms: C_13  and  C_14 
REMARK    6  A    between atoms: C_14  and  O_15 
REMARK    7  A    between atoms: C_14  and  C_16 
ROOT
HETATM    1  N   UNL     1      -4.542   1.647 -30.439  1.00  0.00    -0.337 N 
HETATM    2  C   UNL     1      -5.457   2.654 -30.616  1.00  0.00     0.316 C 
HETATM    3  N   UNL     1      -6.531   2.523 -29.791  1.00  0.00    -0.339 N 
HETATM    4  O   UNL     1      -5.292   3.570 -31.415  1.00  0.00    -0.247 OA
HETATM    5  H   UNL     1      -4.880   0.873 -29.885  1.00  0.00     0.164 HD
HETATM    6  H   UNL     1      -6.664   1.647 -29.291  1.00  0.00     0.164 HD
ENDROOT
BRANCH   1   7
HETATM    7  C   UNL     1      -3.573   1.326 -31.467  1.00  0.00     0.183 C 
BRANCH   7   8
HETATM    8  C   UNL     1      -3.717  -0.059 -31.981  1.00  0.00     0.044 A 
HETATM    9  N   UNL     1      -3.054  -1.150 -31.438  1.00  0.00    -0.343 N 
HETATM   10  C   UNL     1      -3.320  -2.258 -32.113  1.00  0.00     0.112 A 
HETATM   11  H   UNL     1      -2.436  -1.070 -30.621  1.00  0.00     0.167 HD
HETATM   12  N   UNL     1      -4.139  -1.927 -33.133  1.00  0.00    -0.311 N 
HETATM   13  C   UNL     1      -2.855  -3.648 -31.908  1.00  0.00     0.049 A 
HETATM   14  C   UNL     1      -4.582  -2.858 -34.071  1.00  0.00     0.014 A 
HETATM   15  C   UNL     1      -4.412  -0.569 -33.058  1.00  0.00     0.125 A 
HETATM   16  C   UNL     1      -5.466  -2.447 -35.211  1.00  0.00     0.068 C 
HETATM   17  C   UNL     1      -4.161  -4.131 -33.895  1.00  0.00     0.025 A 
HETATM   18  C   UNL     1      -3.291  -4.553 -32.802  1.00  0.00     0.006 A 
ENDBRANCH   7   8
ENDBRANCH   1   7
BRANCH   3  19
HETATM   19  C   UNL     1      -7.749   3.316 -29.918  1.00  0.00     0.085 C 
HETATM   20  C   UNL     1      -7.556   4.721 -29.347  1.00  0.00     0.032 C 
BRANCH  19  21
HETATM   21  C   UNL     1      -8.249   3.315 -31.379  1.00  0.00     0.063 C 
BRANCH  21  22
HETATM   22  C   UNL     1      -8.870   2.016 -31.918  1.00  0.00     0.177 C 
BRANCH  22  23
HETATM   23  O   UNL     1      -8.832   0.988 -30.914  1.00  0.00    -0.389 OA
HETATM   24  H   UNL     1      -8.519   1.441 -30.105  1.00  0.00     0.210 HD
ENDBRANCH  22  23
BRANCH  22  25
HETATM   25  C   UNL     1      -8.229   1.490 -33.160  1.00  0.00     0.081 A 
HETATM   26  O   UNL     1      -8.851   0.443 -33.782  1.00  0.00    -0.324 OA
HETATM   27  C   UNL     1      -8.125   0.147 -34.890  1.00  0.00     0.142 A 
HETATM   28  C   UNL     1      -7.051   0.998 -35.001  1.00  0.00     0.027 A 
HETATM   29  C   UNL     1      -7.120   1.872 -33.889  1.00  0.00     0.037 A 
ENDBRANCH  22  25
ENDBRANCH  21  22
ENDBRANCH  19  21
ENDBRANCH   3  19
TORSDOF 7
ENDMDL
MODEL 10
REMARK VINA RESULT:      -7.5      4.286      5.534
REMARK  7 active torsions:
REMARK  status: ('A' for Active; 'I' for Inactive)
REMARK    1  A    between atoms: C_7  and  C_8 
REMARK    2  A    between atoms: C_8  and  N_9 
REMARK       I    between atoms: N_9  and  C_10 
REMARK       I    between atoms: C_10  and  N_11 
REMARK    3  A    between atoms: N_11  and  C_12 
REMARK    4  A    between atoms: C_12  and  C_13 
REMARK    5  A    between atoms: C_13  and  C_14 
REMARK    6  A    between atoms: C_14  and  O_15 
REMARK    7  A    between atoms: C_14  and  C_16 
ROOT
HETATM    1  N   UNL     1      -7.095   1.623 -31.628  1.00  0.00    -0.337 N 
HETATM    2  C   UNL     1      -6.095   1.991 -32.492  1.00  0.00     0.316 C 
HETATM    3  N   UNL     1      -5.678   3.269 -32.279  1.00  0.00    -0.339 N 
HETATM    4  O   UNL     1      -5.630   1.231 -33.335  1.00  0.00    -0.247 OA
HETATM    5  H   UNL     1      -7.501   2.391 -31.110  1.00  0.00     0.164 HD
HETATM    6  H   UNL     1      -6.234   3.875 -31.680  1.00  0.00     0.164 HD
ENDROOT
BRANCH   1   7
HETATM    7  C   UNL     1      -7.980   0.517 -31.933  1.00  0.00     0.183 C 
BRANCH   7   8
HETATM    8  C   UNL     1      -9.210   0.944 -32.646  1.00  0.00     0.044 A 
HETATM    9  N   UNL     1     -10.376   0.193 -32.679  1.00  0.00    -0.343 N 
HETATM   10  C   UNL     1     -11.302   0.777 -33.423  1.00  0.00     0.112 A 
HETATM   11  H   UNL     1     -10.469  -0.703 -32.184  1.00  0.00     0.167 HD
HETATM   12  N   UNL     1     -10.769   1.911 -33.923  1.00  0.00    -0.311 N 
HETATM   13  C   UNL     1     -12.686   0.361 -33.744  1.00  0.00     0.049 A 
HETATM   14  C   UNL     1     -11.468   2.750 -34.789  1.00  0.00     0.014 A 
HETATM   15  C   UNL     1      -9.475   2.042 -33.439  1.00  0.00     0.125 A 
HETATM   16  C   UNL     1     -10.830   3.986 -35.352  1.00  0.00     0.068 C 
HETATM   17  C   UNL     1     -12.732   2.378 -35.091  1.00  0.00     0.025 A 
HETATM   18  C   UNL     1     -13.370   1.174 -34.567  1.00  0.00     0.006 A 
ENDBRANCH   7   8
ENDBRANCH   1   7
BRANCH   3  19
HETATM   19  C   UNL     1      -4.792   3.992 -33.186  1.00  0.00     0.085 C 
HETATM   20  C   UNL     1      -5.589   4.862 -34.158  1.00  0.00     0.032 C 
BRANCH  19  21
HETATM   21  C   UNL     1      -3.727   4.780 -32.393  1.00  0.00     0.063 C 
BRANCH  21  22
HETATM   22  C   UNL     1      -2.388   4.080 -32.111  1.00  0.00     0.177 C 
BRANCH  22  23
HETATM   23  O   UNL     1      -2.561   3.046 -31.127  1.00  0.00    -0.389 OA
HETATM   24  H   UNL     1      -3.332   3.332 -30.598  1.00  0.00     0.210 HD
ENDBRANCH  22  23
BRANCH  22  25
HETATM   25  C   UNL     1      -1.296   4.990 -31.655  1.00  0.00     0.081 A 
HETATM   26  O   UNL     1      -0.502   4.544 -30.634  1.00  0.00    -0.324 OA
HETATM   27  C   UNL     1       0.429   5.503 -30.403  1.00  0.00     0.142 A 
HETATM   28  C   UNL     1       0.260   6.556 -31.269  1.00  0.00     0.027 A 
HETATM   29  C   UNL     1      -0.849   6.224 -32.085  1.00  0.00     0.037 A 
ENDBRANCH  22  25
ENDBRANCH  21  22
ENDBRANCH  19  21
ENDBRANCH   3  19
TORSDOF 7
ENDMDL
