MODEL 1
REMARK VINA RESULT:      -7.9      0.000      0.000
REMARK  6 active torsions:
REMARK  status: ('A' for Active; 'I' for Inactive)
REMARK    1  A    between atoms: C_2  and  O_3 
REMARK    2  A    between atoms: O_3  and  C_4 
REMARK    3  A    between atoms: C_4  and  C_5 
REMARK    4  A    between atoms: C_6  and  O_7 
REMARK    5  A    between atoms: C_12  and  O_13 
REMARK    6  A    between atoms: C_17  and  C_18 
ROOT
HETATM    1  C   UNL     1      -6.681   2.008 -33.607  1.00  0.00     0.133 C 
HETATM    2  C   UNL     1      -8.010   2.197 -32.795  1.00  0.00     0.073 C 
HETATM    3  C   UNL     1      -8.946   0.992 -32.991  1.00  0.00     0.047 C 
HETATM    4  C   UNL     1      -7.788   2.443 -31.274  1.00  0.00     0.097 C 
HETATM    5  C   UNL     1      -6.688   1.589 -30.774  1.00  0.00     0.042 A 
HETATM    6  C   UNL     1      -5.725   0.940 -31.519  1.00  0.00     0.030 A 
HETATM    7  C   UNL     1      -4.922   0.328 -30.544  1.00  0.00     0.190 A 
HETATM    8  N   UNL     1      -5.333   0.545 -29.300  1.00  0.00    -0.149 NA
HETATM    9  N   UNL     1      -6.415   1.328 -29.461  1.00  0.00    -0.279 N 
HETATM   10  H   UNL     1      -6.905   1.648 -28.632  1.00  0.00     0.189 HD
HETATM   11  C   UNL     1      -5.638   1.021 -33.005  1.00  0.00     0.074 C 
ENDROOT
BRANCH  11  12
HETATM   12  C   UNL     1      -5.716  -0.382 -33.602  1.00  0.00    -0.048 A 
HETATM   13  C   UNL     1      -6.900  -1.010 -34.029  1.00  0.00     0.011 A 
HETATM   14  C   UNL     1      -6.876  -2.300 -34.570  1.00  0.00     0.043 A 
HETATM   15  C   UNL     1      -5.668  -2.971 -34.694  1.00  0.00     0.116 A 
HETATM   16  F   UNL     1      -5.647  -4.206 -35.212  1.00  0.00    -0.206 F 
HETATM   17  C   UNL     1      -4.481  -2.378 -34.288  1.00  0.00     0.043 A 
HETATM   18  C   UNL     1      -4.505  -1.091 -33.748  1.00  0.00     0.011 A 
ENDBRANCH  11  12
BRANCH   1  19
HETATM   19  C   UNL     1      -5.979   3.344 -33.787  1.00  0.00     0.267 C 
HETATM   20  O   UNL     1      -6.475   4.330 -34.313  1.00  0.00    -0.265 OA
BRANCH  19  21
HETATM   21  O   UNL     1      -4.707   3.267 -33.302  1.00  0.00    -0.316 OA
BRANCH  21  22
HETATM   22  C   UNL     1      -4.143   4.473 -32.749  1.00  0.00     0.123 C 
HETATM   23  C   UNL     1      -2.638   4.419 -32.978  1.00  0.00     0.040 C 
HETATM   24  C   UNL     1      -4.476   4.509 -31.264  1.00  0.00     0.040 C 
ENDBRANCH  21  22
ENDBRANCH  19  21
ENDBRANCH   1  19
BRANCH   2  25
HETATM   25  O   UNL     1      -8.752   3.306 -33.341  1.00  0.00    -0.389 OA
HETATM   26  H   UNL     1      -8.126   4.048 -33.471  1.00  0.00     0.210 HD
ENDBRANCH   2  25
BRANCH   7  27
HETATM   27  O   UNL     1      -3.841  -0.441 -30.689  1.00  0.00    -0.343 OA
HETATM   28  H   UNL     1      -3.516  -0.715 -29.819  1.00  0.00     0.219 HD
ENDBRANCH   7  27
TORSDOF 6
ENDMDL
MODEL 2
REMARK VINA RESULT:      -7.6      2.812      4.304
REMARK  6 active torsions:
REMARK  status: ('A' for Active; 'I' for Inactive)
REMARK    1  A    between atoms: C_2  and  O_3 
REMARK    2  A    between atoms: O_3  and  C_4 
REMARK    3  A    between atoms: C_4  and  C_5 
REMARK    4  A    between atoms: C_6  and  O_7 
REMARK    5  A    between atoms: C_12  and  O_13 
REMARK    6  A    between atoms: C_17  and  C_18 
ROOT
HETATM    1  C   UNL     1      -3.050   4.211 -33.227  1.00  0.00     0.133 C 
HETATM    2  C   UNL     1      -3.952   5.301 -33.904  1.00  0.00     0.073 C 
HETATM    3  C   UNL     1      -5.080   4.647 -34.719  1.00  0.00     0.047 C 
HETATM    4  C   UNL     1      -4.559   6.327 -32.904  1.00  0.00     0.097 C 
HETATM    5  C   UNL     1      -4.973   5.641 -31.659  1.00  0.00     0.042 A 
HETATM    6  C   UNL     1      -4.586   4.392 -31.222  1.00  0.00     0.030 A 
HETATM    7  C   UNL     1      -5.232   4.272 -29.981  1.00  0.00     0.190 A 
HETATM    8  N   UNL     1      -5.970   5.326 -29.659  1.00  0.00    -0.149 NA
HETATM    9  N   UNL     1      -5.793   6.161 -30.698  1.00  0.00    -0.279 N 
HETATM   10  H   UNL     1      -6.255   7.065 -30.674  1.00  0.00     0.189 HD
HETATM   11  C   UNL     1      -3.639   3.513 -31.966  1.00  0.00     0.074 C 
ENDROOT
BRANCH  11  12
HETATM   12  C   UNL     1      -4.309   2.176 -32.271  1.00  0.00    -0.048 A 
HETATM   13  C   UNL     1      -5.683   2.001 -32.513  1.00  0.00     0.011 A 
HETATM   14  C   UNL     1      -6.210   0.735 -32.791  1.00  0.00     0.043 A 
HETATM   15  C   UNL     1      -5.367  -0.366 -32.834  1.00  0.00     0.116 A 
HETATM   16  F   UNL     1      -5.874  -1.577 -33.099  1.00  0.00    -0.206 F 
HETATM   17  C   UNL     1      -4.006  -0.228 -32.606  1.00  0.00     0.043 A 
HETATM   18  C   UNL     1      -3.480   1.035 -32.328  1.00  0.00     0.011 A 
ENDBRANCH  11  12
BRANCH   1  19
HETATM   19  C   UNL     1      -1.714   4.811 -32.820  1.00  0.00     0.267 C 
HETATM   20  O   UNL     1      -0.920   5.336 -33.588  1.00  0.00    -0.265 OA
BRANCH  19  21
HETATM   21  O   UNL     1      -1.522   4.650 -31.480  1.00  0.00    -0.316 OA
BRANCH  21  22
HETATM   22  C   UNL     1      -0.761   5.668 -30.801  1.00  0.00     0.123 C 
HETATM   23  C   UNL     1       0.259   4.960 -29.918  1.00  0.00     0.040 C 
HETATM   24  C   UNL     1      -1.726   6.503 -29.971  1.00  0.00     0.040 C 
ENDBRANCH  21  22
ENDBRANCH  19  21
ENDBRANCH   1  19
BRANCH   2  25
HETATM   25  O   UNL     1      -3.180   6.016 -34.891  1.00  0.00    -0.389 OA
HETATM   26  H   UNL     1      -3.602   5.869 -35.763  1.00  0.00     0.210 HD
ENDBRANCH   2  25
BRANCH   7  27
HETATM   27  O   UNL     1      -5.223   3.260 -29.110  1.00  0.00    -0.343 OA
HETATM   28  H   UNL     1      -4.331   3.148 -28.749  1.00  0.00     0.219 HD
ENDBRANCH   7  27
TORSDOF 6
ENDMDL
MODEL 3
REMARK VINA RESULT:      -7.4      2.972      5.442
REMARK  6 active torsions:
REMARK  status: ('A' for Active; 'I' for Inactive)
REMARK    1  A    between atoms: C_2  and  O_3 
REMARK    2  A    between atoms: O_3  and  C_4 
REMARK    3  A    between atoms: C_4  and  C_5 
REMARK    4  A    between atoms: C_6  and  O_7 
REMARK    5  A    between atoms: C_12  and  O_13 
REMARK    6  A    between atoms: C_17  and  C_18 
ROOT
HETATM    1  C   UNL     1      -6.123   1.230 -33.906  1.00  0.00     0.133 C 
HETATM    2  C   UNL     1      -5.687   0.063 -32.953  1.00  0.00     0.073 C 
HETATM    3  C   UNL     1      -4.176   0.121 -32.673  1.00  0.00     0.047 C 
HETATM    4  C   UNL     1      -6.465   0.027 -31.605  1.00  0.00     0.097 C 
HETATM    5  C   UNL     1      -6.677   1.403 -31.101  1.00  0.00     0.042 A 
HETATM    6  C   UNL     1      -6.574   2.580 -31.812  1.00  0.00     0.030 A 
HETATM    7  C   UNL     1      -6.922   3.558 -30.866  1.00  0.00     0.190 A 
HETATM    8  N   UNL     1      -7.204   3.064 -29.667  1.00  0.00    -0.149 NA
HETATM    9  N   UNL     1      -7.055   1.737 -29.833  1.00  0.00    -0.279 N 
HETATM   10  H   UNL     1      -7.238   1.130 -29.040  1.00  0.00     0.189 HD
HETATM   11  C   UNL     1      -6.233   2.643 -33.262  1.00  0.00     0.074 C 
ENDROOT
BRANCH  11  12
HETATM   12  C   UNL     1      -4.986   3.500 -33.462  1.00  0.00    -0.048 A 
HETATM   13  C   UNL     1      -3.808   3.395 -32.701  1.00  0.00     0.011 A 
HETATM   14  C   UNL     1      -2.709   4.221 -32.958  1.00  0.00     0.043 A 
HETATM   15  C   UNL     1      -2.775   5.155 -33.983  1.00  0.00     0.116 A 
HETATM   16  F   UNL     1      -1.722   5.945 -34.227  1.00  0.00    -0.206 F 
HETATM   17  C   UNL     1      -3.920   5.279 -34.756  1.00  0.00     0.043 A 
HETATM   18  C   UNL     1      -5.017   4.456 -34.499  1.00  0.00     0.011 A 
ENDBRANCH  11  12
BRANCH   1  19
HETATM   19  C   UNL     1      -7.471   0.920 -34.536  1.00  0.00     0.267 C 
HETATM   20  O   UNL     1      -7.684   0.004 -35.317  1.00  0.00    -0.265 OA
BRANCH  19  21
HETATM   21  O   UNL     1      -8.396   1.833 -34.124  1.00  0.00    -0.316 OA
BRANCH  21  22
HETATM   22  C   UNL     1      -9.768   1.396 -34.070  1.00  0.00     0.123 C 
HETATM   23  C   UNL     1     -10.644   2.643 -34.070  1.00  0.00     0.040 C 
HETATM   24  C   UNL     1      -9.955   0.589 -32.794  1.00  0.00     0.040 C 
ENDBRANCH  21  22
ENDBRANCH  19  21
ENDBRANCH   1  19
BRANCH   2  25
HETATM   25  O   UNL     1      -5.868  -1.199 -33.626  1.00  0.00    -0.389 OA
HETATM   26  H   UNL     1      -6.646  -1.641 -33.228  1.00  0.00     0.210 HD
ENDBRANCH   2  25
BRANCH   7  27
HETATM   27  O   UNL     1      -6.988   4.885 -30.996  1.00  0.00    -0.343 OA
HETATM   28  H   UNL     1      -7.914   5.162 -31.039  1.00  0.00     0.219 HD
ENDBRANCH   7  27
TORSDOF 6
ENDMDL
MODEL 4
REMARK VINA RESULT:      -7.3      2.288      3.587
REMARK  6 active torsions:
REMARK  status: ('A' for Active; 'I' for Inactive)
REMARK    1  A    between atoms: C_2  and  O_3 
REMARK    2  A    between atoms: O_3  and  C_4 
REMARK    3  A    between atoms: C_4  and  C_5 
REMARK    4  A    between atoms: C_6  and  O_7 
REMARK    5  A    between atoms: C_12  and  O_13 
REMARK    6  A    between atoms: C_17  and  C_18 
ROOT
HETATM    1  C   UNL     1      -3.970   4.024 -32.459  1.00  0.00     0.133 C 
HETATM    2  C   UNL     1      -5.058   4.877 -33.200  1.00  0.00     0.073 C 
HETATM    3  C   UNL     1      -5.631   4.107 -34.401  1.00  0.00     0.047 C 
HETATM    4  C   UNL     1      -6.221   5.349 -32.280  1.00  0.00     0.097 C 
HETATM    5  C   UNL     1      -6.591   4.274 -31.332  1.00  0.00     0.042 A 
HETATM    6  C   UNL     1      -5.848   3.162 -30.995  1.00  0.00     0.030 A 
HETATM    7  C   UNL     1      -6.647   2.522 -30.034  1.00  0.00     0.190 A 
HETATM    8  N   UNL     1      -7.792   3.148 -29.789  1.00  0.00    -0.149 NA
HETATM    9  N   UNL     1      -7.736   4.226 -30.590  1.00  0.00    -0.279 N 
HETATM   10  H   UNL     1      -8.511   4.883 -30.567  1.00  0.00     0.189 HD
HETATM   11  C   UNL     1      -4.495   2.874 -31.550  1.00  0.00     0.074 C 
ENDROOT
BRANCH  11  12
HETATM   12  C   UNL     1      -4.501   1.511 -32.239  1.00  0.00    -0.048 A 
HETATM   13  C   UNL     1      -3.442   0.587 -32.202  1.00  0.00     0.011 A 
HETATM   14  C   UNL     1      -3.537  -0.643 -32.860  1.00  0.00     0.043 A 
HETATM   15  C   UNL     1      -4.694  -0.963 -33.557  1.00  0.00     0.116 A 
HETATM   16  F   UNL     1      -4.783  -2.141 -34.187  1.00  0.00    -0.206 F 
HETATM   17  C   UNL     1      -5.759  -0.076 -33.608  1.00  0.00     0.043 A 
HETATM   18  C   UNL     1      -5.665   1.152 -32.952  1.00  0.00     0.011 A 
ENDBRANCH  11  12
BRANCH   1  19
HETATM   19  C   UNL     1      -3.101   4.918 -31.589  1.00  0.00     0.267 C 
HETATM   20  O   UNL     1      -3.446   5.404 -30.521  1.00  0.00    -0.265 OA
BRANCH  19  21
HETATM   21  O   UNL     1      -1.895   5.119 -32.192  1.00  0.00    -0.316 OA
BRANCH  21  22
HETATM   22  C   UNL     1      -1.146   6.281 -31.784  1.00  0.00     0.123 C 
HETATM   23  C   UNL     1      -0.945   7.150 -33.019  1.00  0.00     0.040 C 
HETATM   24  C   UNL     1       0.185   5.807 -31.219  1.00  0.00     0.040 C 
ENDBRANCH  21  22
ENDBRANCH  19  21
ENDBRANCH   1  19
BRANCH   2  25
HETATM   25  O   UNL     1      -4.436   6.035 -33.793  1.00  0.00    -0.389 OA
HETATM   26  H   UNL     1      -4.824   6.157 -34.684  1.00  0.00     0.210 HD
ENDBRANCH   2  25
BRANCH   7  27
HETATM   27  O   UNL     1      -6.430   1.389 -29.363  1.00  0.00    -0.343 OA
HETATM   28  H   UNL     1      -6.182   0.686 -29.981  1.00  0.00     0.219 HD
ENDBRANCH   7  27
TORSDOF 6
ENDMDL
MODEL 5
REMARK VINA RESULT:      -7.2      2.344      4.081
REMARK  6 active torsions:
REMARK  status: ('A' for Active; 'I' for Inactive)
REMARK    1  A    between atoms: C_2  and  O_3 
REMARK    2  A    between atoms: O_3  and  C_4 
REMARK    3  A    between atoms: C_4  and  C_5 
REMARK    4  A    between atoms: C_6  and  O_7 
REMARK    5  A    between atoms: C_12  and  O_13 
REMARK    6  A    between atoms: C_17  and  C_18 
ROOT
HETATM    1  C   UNL     1      -6.758   2.016 -31.921  1.00  0.00     0.133 C 
HETATM    2  C   UNL     1      -6.949   2.535 -30.453  1.00  0.00     0.073 C 
HETATM    3  C   UNL     1      -6.445   1.497 -29.437  1.00  0.00     0.047 C 
HETATM    4  C   UNL     1      -6.268   3.907 -30.177  1.00  0.00     0.097 C 
HETATM    5  C   UNL     1      -4.955   3.972 -30.859  1.00  0.00     0.042 A 
HETATM    6  C   UNL     1      -4.502   3.166 -31.882  1.00  0.00     0.030 A 
HETATM    7  C   UNL     1      -3.235   3.696 -32.171  1.00  0.00     0.190 A 
HETATM    8  N   UNL     1      -2.899   4.726 -31.404  1.00  0.00    -0.149 NA
HETATM    9  N   UNL     1      -3.972   4.886 -30.609  1.00  0.00    -0.279 N 
HETATM   10  H   UNL     1      -3.960   5.641 -29.931  1.00  0.00     0.189 HD
HETATM   11  C   UNL     1      -5.310   2.070 -32.490  1.00  0.00     0.074 C 
ENDROOT
BRANCH  11  12
HETATM   12  C   UNL     1      -4.559   0.747 -32.365  1.00  0.00    -0.048 A 
HETATM   13  C   UNL     1      -3.479   0.514 -31.496  1.00  0.00     0.011 A 
HETATM   14  C   UNL     1      -2.853  -0.735 -31.444  1.00  0.00     0.043 A 
HETATM   15  C   UNL     1      -3.304  -1.765 -32.258  1.00  0.00     0.116 A 
HETATM   16  F   UNL     1      -2.703  -2.961 -32.207  1.00  0.00    -0.206 F 
HETATM   17  C   UNL     1      -4.371  -1.570 -33.122  1.00  0.00     0.043 A 
HETATM   18  C   UNL     1      -4.996  -0.323 -33.175  1.00  0.00     0.011 A 
ENDBRANCH  11  12
BRANCH   1  19
HETATM   19  C   UNL     1      -7.642   2.801 -32.876  1.00  0.00     0.267 C 
HETATM   20  O   UNL     1      -7.314   3.830 -33.449  1.00  0.00    -0.265 OA
BRANCH  19  21
HETATM   21  O   UNL     1      -8.863   2.202 -32.975  1.00  0.00    -0.316 OA
BRANCH  21  22
HETATM   22  C   UNL     1      -9.274   1.765 -34.285  1.00  0.00     0.123 C 
HETATM   23  C   UNL     1     -10.761   1.442 -34.213  1.00  0.00     0.040 C 
HETATM   24  C   UNL     1      -8.458   0.533 -34.648  1.00  0.00     0.040 C 
ENDBRANCH  21  22
ENDBRANCH  19  21
ENDBRANCH   1  19
BRANCH   2  25
HETATM   25  O   UNL     1      -8.357   2.649 -30.164  1.00  0.00    -0.389 OA
HETATM   26  H   UNL     1      -8.639   3.554 -30.412  1.00  0.00     0.210 HD
ENDBRANCH   2  25
BRANCH   7  27
HETATM   27  O   UNL     1      -2.333   3.306 -33.074  1.00  0.00    -0.343 OA
HETATM   28  H   UNL     1      -1.853   2.533 -32.743  1.00  0.00     0.219 HD
ENDBRANCH   7  27
TORSDOF 6
ENDMDL
MODEL 6
REMARK VINA RESULT:      -7.2      3.385      5.729
REMARK  6 active torsions:
REMARK  status: ('A' for Active; 'I' for Inactive)
REMARK    1  A    between atoms: C_2  and  O_3 
REMARK    2  A    between atoms: O_3  and  C_4 
REMARK    3  A    between atoms: C_4  and  C_5 
REMARK    4  A    between atoms: C_6  and  O_7 
REMARK    5  A    between atoms: C_12  and  O_13 
REMARK    6  A    between atoms: C_17  and  C_18 
ROOT
HETATM    1  C   UNL     1      -6.287   2.764 -32.438  1.00  0.00     0.133 C 
HETATM    2  C   UNL     1      -5.895   1.742 -31.315  1.00  0.00     0.073 C 
HETATM    3  C   UNL     1      -4.439   1.277 -31.485  1.00  0.00     0.047 C 
HETATM    4  C   UNL     1      -6.104   2.283 -29.871  1.00  0.00     0.097 C 
HETATM    5  C   UNL     1      -5.709   3.707 -29.797  1.00  0.00     0.042 A 
HETATM    6  C   UNL     1      -5.533   4.584 -30.847  1.00  0.00     0.030 A 
HETATM    7  C   UNL     1      -5.213   5.792 -30.207  1.00  0.00     0.190 A 
HETATM    8  N   UNL     1      -5.171   5.700 -28.884  1.00  0.00    -0.149 NA
HETATM    9  N   UNL     1      -5.486   4.413 -28.650  1.00  0.00    -0.279 N 
HETATM   10  H   UNL     1      -5.535   4.098 -27.686  1.00  0.00     0.189 HD
HETATM   11  C   UNL     1      -5.740   4.213 -32.276  1.00  0.00     0.074 C 
ENDROOT
BRANCH  11  12
HETATM   12  C   UNL     1      -4.459   4.469 -33.066  1.00  0.00    -0.048 A 
HETATM   13  C   UNL     1      -3.160   4.201 -32.600  1.00  0.00     0.011 A 
HETATM   14  C   UNL     1      -2.041   4.464 -33.397  1.00  0.00     0.043 A 
HETATM   15  C   UNL     1      -2.211   4.993 -34.669  1.00  0.00     0.116 A 
HETATM   16  F   UNL     1      -1.139   5.245 -35.430  1.00  0.00    -0.206 F 
HETATM   17  C   UNL     1      -3.480   5.264 -35.161  1.00  0.00     0.043 A 
HETATM   18  C   UNL     1      -4.597   5.002 -34.366  1.00  0.00     0.011 A 
ENDBRANCH  11  12
BRANCH   1  19
HETATM   19  C   UNL     1      -7.800   2.868 -32.551  1.00  0.00     0.267 C 
HETATM   20  O   UNL     1      -8.476   3.770 -32.076  1.00  0.00    -0.265 OA
BRANCH  19  21
HETATM   21  O   UNL     1      -8.289   1.793 -33.232  1.00  0.00    -0.316 OA
BRANCH  21  22
HETATM   22  C   UNL     1      -9.685   1.486 -33.054  1.00  0.00     0.123 C 
HETATM   23  C   UNL     1      -9.791  -0.006 -32.769  1.00  0.00     0.040 C 
HETATM   24  C   UNL     1     -10.415   1.857 -34.337  1.00  0.00     0.040 C 
ENDBRANCH  21  22
ENDBRANCH  19  21
ENDBRANCH   1  19
BRANCH   2  25
HETATM   25  O   UNL     1      -6.666   0.534 -31.475  1.00  0.00    -0.389 OA
HETATM   26  H   UNL     1      -7.614   0.780 -31.445  1.00  0.00     0.210 HD
ENDBRANCH   2  25
BRANCH   7  27
HETATM   27  O   UNL     1      -4.933   6.986 -30.732  1.00  0.00    -0.343 OA
HETATM   28  H   UNL     1      -4.131   7.343 -30.322  1.00  0.00     0.219 HD
ENDBRANCH   7  27
TORSDOF 6
ENDMDL
MODEL 7
REMARK VINA RESULT:      -7.0      2.826      5.059
REMARK  6 active torsions:
REMARK  status: ('A' for Active; 'I' for Inactive)
REMARK    1  A    between atoms: C_2  and  O_3 
REMARK    2  A    between atoms: O_3  and  C_4 
REMARK    3  A    between atoms: C_4  and  C_5 
REMARK    4  A    between atoms: C_6  and  O_7 
REMARK    5  A    between atoms: C_12  and  O_13 
REMARK    6  A    between atoms: C_17  and  C_18 
ROOT
HETATM    1  C   UNL     1      -9.415   2.788 -33.213  1.00  0.00     0.133 C 
HETATM    2  C   UNL     1      -9.450   3.263 -31.718  1.00  0.00     0.073 C 
HETATM    3  C   UNL     1      -8.728   2.255 -30.808  1.00  0.00     0.047 C 
HETATM    4  C   UNL     1      -8.857   4.685 -31.496  1.00  0.00     0.097 C 
HETATM    5  C   UNL     1      -7.659   4.876 -32.344  1.00  0.00     0.042 A 
HETATM    6  C   UNL     1      -7.280   4.130 -33.440  1.00  0.00     0.030 A 
HETATM    7  C   UNL     1      -6.112   4.775 -33.879  1.00  0.00     0.190 A 
HETATM    8  N   UNL     1      -5.765   5.816 -33.133  1.00  0.00    -0.149 NA
HETATM    9  N   UNL     1      -6.731   5.868 -32.199  1.00  0.00    -0.279 N 
HETATM   10  H   UNL     1      -6.692   6.610 -31.507  1.00  0.00     0.189 HD
HETATM   11  C   UNL     1      -8.066   2.978 -33.967  1.00  0.00     0.074 C 
ENDROOT
BRANCH  11  12
HETATM   12  C   UNL     1      -7.196   1.724 -33.980  1.00  0.00    -0.048 A 
HETATM   13  C   UNL     1      -6.105   1.493 -33.124  1.00  0.00     0.011 A 
HETATM   14  C   UNL     1      -5.366   0.309 -33.204  1.00  0.00     0.043 A 
HETATM   15  C   UNL     1      -5.713  -0.658 -34.138  1.00  0.00     0.116 A 
HETATM   16  F   UNL     1      -5.003  -1.791 -34.214  1.00  0.00    -0.206 F 
HETATM   17  C   UNL     1      -6.787  -0.463 -34.994  1.00  0.00     0.043 A 
HETATM   18  C   UNL     1      -7.526   0.719 -34.915  1.00  0.00     0.011 A 
ENDBRANCH  11  12
BRANCH   1  19
HETATM   19  C   UNL     1     -10.483   3.508 -34.020  1.00  0.00     0.267 C 
HETATM   20  O   UNL     1     -10.284   4.481 -34.733  1.00  0.00    -0.265 OA
BRANCH  19  21
HETATM   21  O   UNL     1     -11.697   2.925 -33.805  1.00  0.00    -0.316 OA
BRANCH  21  22
HETATM   22  C   UNL     1     -11.918   1.634 -34.406  1.00  0.00     0.123 C 
HETATM   23  C   UNL     1     -12.392   1.870 -35.834  1.00  0.00     0.040 C 
HETATM   24  C   UNL     1     -12.976   0.909 -33.585  1.00  0.00     0.040 C 
ENDBRANCH  21  22
ENDBRANCH  19  21
ENDBRANCH   1  19
BRANCH   2  25
HETATM   25  O   UNL     1     -10.811   3.248 -31.242  1.00  0.00    -0.389 OA
HETATM   26  H   UNL     1     -11.394   3.087 -32.013  1.00  0.00     0.210 HD
ENDBRANCH   2  25
BRANCH   7  27
HETATM   27  O   UNL     1      -5.310   4.481 -34.904  1.00  0.00    -0.343 OA
HETATM   28  H   UNL     1      -5.796   3.958 -35.559  1.00  0.00     0.219 HD
ENDBRANCH   7  27
TORSDOF 6
ENDMDL
MODEL 8
REMARK VINA RESULT:      -6.8      4.392      6.753
REMARK  6 active torsions:
REMARK  status: ('A' for Active; 'I' for Inactive)
REMARK    1  A    between atoms: C_2  and  O_3 
REMARK    2  A    between atoms: O_3  and  C_4 
REMARK    3  A    between atoms: C_4  and  C_5 
REMARK    4  A    between atoms: C_6  and  O_7 
REMARK    5  A    between atoms: C_12  and  O_13 
REMARK    6  A    between atoms: C_17  and  C_18 
ROOT
HETATM    1  C   UNL     1      -3.176   6.493 -30.882  1.00  0.00     0.133 C 
HETATM    2  C   UNL     1      -1.690   6.375 -31.369  1.00  0.00     0.073 C 
HETATM    3  C   UNL     1      -1.110   4.994 -31.023  1.00  0.00     0.047 C 
HETATM    4  C   UNL     1      -1.501   6.654 -32.888  1.00  0.00     0.097 C 
HETATM    5  C   UNL     1      -2.618   6.064 -33.659  1.00  0.00     0.042 A 
HETATM    6  C   UNL     1      -3.843   5.652 -33.176  1.00  0.00     0.030 A 
HETATM    7  C   UNL     1      -4.517   5.228 -34.332  1.00  0.00     0.190 A 
HETATM    8  N   UNL     1      -3.797   5.339 -35.441  1.00  0.00    -0.149 NA
HETATM    9  N   UNL     1      -2.636   5.862 -35.009  1.00  0.00    -0.279 N 
HETATM   10  H   UNL     1      -1.912   6.059 -35.694  1.00  0.00     0.189 HD
HETATM   11  C   UNL     1      -4.245   5.760 -31.745  1.00  0.00     0.074 C 
ENDROOT
BRANCH  11  12
HETATM   12  C   UNL     1      -4.614   4.379 -31.208  1.00  0.00    -0.048 A 
HETATM   13  C   UNL     1      -3.928   3.190 -31.509  1.00  0.00     0.011 A 
HETATM   14  C   UNL     1      -4.334   1.966 -30.966  1.00  0.00     0.043 A 
HETATM   15  C   UNL     1      -5.428   1.922 -30.113  1.00  0.00     0.116 A 
HETATM   16  F   UNL     1      -5.816   0.750 -29.595  1.00  0.00    -0.206 F 
HETATM   17  C   UNL     1      -6.124   3.078 -29.791  1.00  0.00     0.043 A 
HETATM   18  C   UNL     1      -5.719   4.299 -30.333  1.00  0.00     0.011 A 
ENDBRANCH  11  12
BRANCH   1  19
HETATM   19  C   UNL     1      -3.591   7.953 -30.805  1.00  0.00     0.267 C 
HETATM   20  O   UNL     1      -3.314   8.805 -31.637  1.00  0.00    -0.265 OA
BRANCH  19  21
HETATM   21  O   UNL     1      -4.291   8.175 -29.655  1.00  0.00    -0.316 OA
BRANCH  21  22
HETATM   22  C   UNL     1      -3.918   7.396 -28.502  1.00  0.00     0.123 C 
HETATM   23  C   UNL     1      -5.203   6.998 -27.786  1.00  0.00     0.040 C 
HETATM   24  C   UNL     1      -3.036   8.262 -27.614  1.00  0.00     0.040 C 
ENDBRANCH  21  22
ENDBRANCH  19  21
ENDBRANCH   1  19
BRANCH   2  25
HETATM   25  O   UNL     1      -0.867   7.295 -30.622  1.00  0.00    -0.389 OA
HETATM   26  H   UNL     1      -1.001   7.108 -29.670  1.00  0.00     0.210 HD
ENDBRANCH   2  25
BRANCH   7  27
HETATM   27  O   UNL     1      -5.745   4.721 -34.466  1.00  0.00    -0.343 OA
HETATM   28  H   UNL     1      -5.707   3.756 -34.403  1.00  0.00     0.219 HD
ENDBRANCH   7  27
TORSDOF 6
ENDMDL
MODEL 9
REMARK VINA RESULT:      -6.8      3.205      6.049
REMARK  6 active torsions:
REMARK  status: ('A' for Active; 'I' for Inactive)
REMARK    1  A    between atoms: C_2  and  O_3 
REMARK    2  A    between atoms: O_3  and  C_4 
REMARK    3  A    between atoms: C_4  and  C_5 
REMARK    4  A    between atoms: C_6  and  O_7 
REMARK    5  A    between atoms: C_12  and  O_13 
REMARK    6  A    between atoms: C_17  and  C_18 
ROOT
HETATM    1  C   UNL     1      -5.237   1.275 -31.513  1.00  0.00     0.133 C 
HETATM    2  C   UNL     1      -6.491   1.331 -30.573  1.00  0.00     0.073 C 
HETATM    3  C   UNL     1      -6.274   2.339 -29.432  1.00  0.00     0.047 C 
HETATM    4  C   UNL     1      -7.819   1.661 -31.314  1.00  0.00     0.097 C 
HETATM    5  C   UNL     1      -7.582   2.688 -32.354  1.00  0.00     0.042 A 
HETATM    6  C   UNL     1      -6.372   3.067 -32.896  1.00  0.00     0.030 A 
HETATM    7  C   UNL     1      -6.736   4.026 -33.854  1.00  0.00     0.190 A 
HETATM    8  N   UNL     1      -8.042   4.255 -33.912  1.00  0.00    -0.149 NA
HETATM    9  N   UNL     1      -8.546   3.417 -32.988  1.00  0.00    -0.279 N 
HETATM   10  H   UNL     1      -9.553   3.397 -32.856  1.00  0.00     0.189 HD
HETATM   11  C   UNL     1      -5.067   2.459 -32.509  1.00  0.00     0.074 C 
ENDROOT
BRANCH  11  12
HETATM   12  C   UNL     1      -4.123   3.546 -32.002  1.00  0.00    -0.048 A 
HETATM   13  C   UNL     1      -2.735   3.575 -32.225  1.00  0.00     0.011 A 
HETATM   14  C   UNL     1      -1.947   4.617 -31.726  1.00  0.00     0.043 A 
HETATM   15  C   UNL     1      -2.540   5.642 -31.003  1.00  0.00     0.116 A 
HETATM   16  F   UNL     1      -1.783   6.639 -30.525  1.00  0.00    -0.206 F 
HETATM   17  C   UNL     1      -3.907   5.648 -30.770  1.00  0.00     0.043 A 
HETATM   18  C   UNL     1      -4.694   4.608 -31.268  1.00  0.00     0.011 A 
ENDBRANCH  11  12
BRANCH   1  19
HETATM   19  C   UNL     1      -5.253  -0.002 -32.338  1.00  0.00     0.267 C 
HETATM   20  O   UNL     1      -5.002  -1.118 -31.905  1.00  0.00    -0.265 OA
BRANCH  19  21
HETATM   21  O   UNL     1      -5.559   0.288 -33.635  1.00  0.00    -0.316 OA
BRANCH  21  22
HETATM   22  C   UNL     1      -6.673  -0.417 -34.217  1.00  0.00     0.123 C 
HETATM   23  C   UNL     1      -6.140  -1.728 -34.780  1.00  0.00     0.040 C 
HETATM   24  C   UNL     1      -7.260   0.458 -35.316  1.00  0.00     0.040 C 
ENDBRANCH  21  22
ENDBRANCH  19  21
ENDBRANCH   1  19
BRANCH   2  25
HETATM   25  O   UNL     1      -6.640   0.066 -29.896  1.00  0.00    -0.389 OA
HETATM   26  H   UNL     1      -7.168   0.222 -29.086  1.00  0.00     0.210 HD
ENDBRANCH   2  25
BRANCH   7  27
HETATM   27  O   UNL     1      -5.969   4.739 -34.681  1.00  0.00    -0.343 OA
HETATM   28  H   UNL     1      -5.048   4.447 -34.606  1.00  0.00     0.219 HD
ENDBRANCH   7  27
TORSDOF 6
ENDMDL
MODEL 10
REMARK VINA RESULT:      -6.8      2.969      5.494
REMARK  6 active torsions:
REMARK  status: ('A' for Active; 'I' for Inactive)
REMARK    1  A    between atoms: C_2  and  O_3 
REMARK    2  A    between atoms: O_3  and  C_4 
REMARK    3  A    between atoms: C_4  and  C_5 
REMARK    4  A    between atoms: C_6  and  O_7 
REMARK    5  A    between atoms: C_12  and  O_13 
REMARK    6  A    between atoms: C_17  and  C_18 
ROOT
HETATM    1  C   UNL     1      -7.119   1.794 -32.406  1.00  0.00     0.133 C 
HETATM    2  C   UNL     1      -6.166   3.015 -32.657  1.00  0.00     0.073 C 
HETATM    3  C   UNL     1      -6.545   3.745 -33.956  1.00  0.00     0.047 C 
HETATM    4  C   UNL     1      -6.123   4.032 -31.481  1.00  0.00     0.097 C 
HETATM    5  C   UNL     1      -7.477   4.209 -30.909  1.00  0.00     0.042 A 
HETATM    6  C   UNL     1      -8.570   3.385 -31.074  1.00  0.00     0.030 A 
HETATM    7  C   UNL     1      -9.556   3.998 -30.284  1.00  0.00     0.190 A 
HETATM    8  N   UNL     1      -9.146   5.109 -29.686  1.00  0.00    -0.149 NA
HETATM    9  N   UNL     1      -7.864   5.219 -30.076  1.00  0.00    -0.279 N 
HETATM   10  H   UNL     1      -7.320   6.002 -29.725  1.00  0.00     0.189 HD
HETATM   11  C   UNL     1      -8.544   2.128 -31.876  1.00  0.00     0.074 C 
ENDROOT
BRANCH  11  12
HETATM   12  C   UNL     1      -9.600   2.197 -32.976  1.00  0.00    -0.048 A 
HETATM   13  C   UNL     1      -9.828   3.310 -33.803  1.00  0.00     0.011 A 
HETATM   14  C   UNL     1     -10.817   3.282 -34.791  1.00  0.00     0.043 A 
HETATM   15  C   UNL     1     -11.584   2.138 -34.965  1.00  0.00     0.116 A 
HETATM   16  F   UNL     1     -12.531   2.113 -35.912  1.00  0.00    -0.206 F 
HETATM   17  C   UNL     1     -11.380   1.020 -34.170  1.00  0.00     0.043 A 
HETATM   18  C   UNL     1     -10.394   1.048 -33.183  1.00  0.00     0.011 A 
ENDBRANCH  11  12
BRANCH   1  19
HETATM   19  C   UNL     1      -6.489   0.829 -31.415  1.00  0.00     0.267 C 
HETATM   20  O   UNL     1      -5.972   1.152 -30.355  1.00  0.00    -0.265 OA
BRANCH  19  21
HETATM   21  O   UNL     1      -6.560  -0.444 -31.900  1.00  0.00    -0.316 OA
BRANCH  21  22
HETATM   22  C   UNL     1      -6.153  -0.647 -33.267  1.00  0.00     0.123 C 
HETATM   23  C   UNL     1      -7.143  -1.618 -33.898  1.00  0.00     0.040 C 
HETATM   24  C   UNL     1      -4.744  -1.222 -33.258  1.00  0.00     0.040 C 
ENDBRANCH  21  22
ENDBRANCH  19  21
ENDBRANCH   1  19
BRANCH   2  25
HETATM   25  O   UNL     1      -4.829   2.535 -32.906  1.00  0.00    -0.389 OA
HETATM   26  H   UNL     1      -4.756   1.640 -32.516  1.00  0.00     0.210 HD
ENDBRANCH   2  25
BRANCH   7  27
HETATM   27  O   UNL     1     -10.824   3.638 -30.071  1.00  0.00    -0.343 OA
HETATM   28  H   UNL     1     -11.360   4.424 -29.893  1.00  0.00     0.219 HD
ENDBRANCH   7  27
TORSDOF 6
ENDMDL
