MODEL 1
REMARK VINA RESULT:      -9.7      0.000      0.000
REMARK  5 active torsions:
REMARK  status: ('A' for Active; 'I' for Inactive)
REMARK    1  A    between atoms: C_12  and  C_13 
REMARK    2  A    between atoms: C_13  and  N_14 
REMARK    3  A    between atoms: N_14  and  C_15 
REMARK    4  A    between atoms: C_17  and  O_18 
REMARK    5  A    between atoms: C_19  and  O_20 
ROOT
HETATM    1  C   UNL     1      -6.020  -4.188 -35.169  1.00  0.00     0.048 C 
HETATM    2  C   UNL     1      -5.788  -2.813 -34.615  1.00  0.00    -0.059 A 
HETATM    3  C   UNL     1      -4.786  -2.580 -33.670  1.00  0.00     0.037 A 
HETATM    4  C   UNL     1      -4.605  -1.298 -33.150  1.00  0.00     0.046 A 
HETATM    5  C   UNL     1      -5.419  -0.225 -33.551  1.00  0.00    -0.003 A 
HETATM    6  C   UNL     1      -6.429  -0.450 -34.504  1.00  0.00    -0.049 A 
HETATM    7  C   UNL     1      -7.338   0.647 -34.986  1.00  0.00     0.049 C 
HETATM    8  C   UNL     1      -6.604  -1.748 -35.020  1.00  0.00     0.014 A 
HETATM    9  N   UNL     1      -3.589  -1.082 -32.211  1.00  0.00    -0.322 N 
HETATM   10  C   UNL     1      -3.317   0.131 -31.642  1.00  0.00     0.253 A 
HETATM   11  O   UNL     1      -2.395   0.264 -30.844  1.00  0.00    -0.268 OA
HETATM   12  C   UNL     1      -4.189   1.272 -32.035  1.00  0.00     0.024 A 
HETATM   13  C   UNL     1      -5.174   1.085 -32.932  1.00  0.00     0.028 A 
HETATM   14  H   UNL     1      -2.990  -1.845 -31.927  1.00  0.00     0.169 HD
ENDROOT
BRANCH  12  15
HETATM   15  C   UNL     1      -3.946   2.579 -31.338  1.00  0.00     0.136 C 
BRANCH  15  16
HETATM   16  N   UNL     1      -2.556   2.976 -31.553  1.00  0.00    -0.288 NA
HETATM   17  H   UNL     1      -2.023   2.931 -30.686  1.00  0.00     0.128 HD
BRANCH  16  18
HETATM   18  C   UNL     1      -2.282   4.172 -32.235  1.00  0.00     0.011 A 
HETATM   19  C   UNL     1      -2.969   4.417 -33.437  1.00  0.00     0.062 A 
HETATM   20  C   UNL     1      -2.789   5.616 -34.122  1.00  0.00     0.100 A 
HETATM   21  C   UNL     1      -1.946   6.596 -33.613  1.00  0.00     0.098 A 
HETATM   22  C   UNL     1      -1.289   6.399 -32.412  1.00  0.00     0.041 A 
HETATM   23  C   UNL     1      -1.472   5.196 -31.718  1.00  0.00     0.026 A 
BRANCH  20  24
HETATM   24  O   UNL     1      -3.430   5.880 -35.303  1.00  0.00    -0.358 OA
HETATM   25  H   UNL     1      -4.093   5.182 -35.444  1.00  0.00     0.218 HD
ENDBRANCH  20  24
BRANCH  21  26
HETATM   26  O   UNL     1      -1.772   7.769 -34.288  1.00  0.00    -0.358 OA
HETATM   27  H   UNL     1      -2.180   8.444 -33.710  1.00  0.00     0.218 HD
ENDBRANCH  21  26
ENDBRANCH  16  18
ENDBRANCH  15  16
ENDBRANCH  12  15
TORSDOF 5
ENDMDL
MODEL 2
REMARK VINA RESULT:      -8.9      1.490      2.289
REMARK  5 active torsions:
REMARK  status: ('A' for Active; 'I' for Inactive)
REMARK    1  A    between atoms: C_12  and  C_13 
REMARK    2  A    between atoms: C_13  and  N_14 
REMARK    3  A    between atoms: N_14  and  C_15 
REMARK    4  A    between atoms: C_17  and  O_18 
REMARK    5  A    between atoms: C_19  and  O_20 
ROOT
HETATM    1  C   UNL     1      -5.991  -3.810 -35.445  1.00  0.00     0.048 C 
HETATM    2  C   UNL     1      -5.513  -2.742 -34.507  1.00  0.00    -0.059 A 
HETATM    3  C   UNL     1      -6.079  -1.465 -34.525  1.00  0.00     0.037 A 
HETATM    4  C   UNL     1      -5.600  -0.480 -33.660  1.00  0.00     0.046 A 
HETATM    5  C   UNL     1      -4.548  -0.740 -32.766  1.00  0.00    -0.003 A 
HETATM    6  C   UNL     1      -3.974  -2.025 -32.738  1.00  0.00    -0.049 A 
HETATM    7  C   UNL     1      -2.847  -2.382 -31.808  1.00  0.00     0.049 C 
HETATM    8  C   UNL     1      -4.463  -3.009 -33.618  1.00  0.00     0.014 A 
HETATM    9  N   UNL     1      -6.186   0.792 -33.687  1.00  0.00    -0.322 N 
HETATM   10  C   UNL     1      -5.804   1.828 -32.881  1.00  0.00     0.253 A 
HETATM   11  O   UNL     1      -6.374   2.913 -32.930  1.00  0.00    -0.268 OA
HETATM   12  C   UNL     1      -4.672   1.576 -31.948  1.00  0.00     0.024 A 
HETATM   13  C   UNL     1      -4.091   0.363 -31.910  1.00  0.00     0.028 A 
HETATM   14  H   UNL     1      -6.953   0.984 -34.317  1.00  0.00     0.169 HD
ENDROOT
BRANCH  12  15
HETATM   15  C   UNL     1      -4.195   2.743 -31.133  1.00  0.00     0.136 C 
BRANCH  15  16
HETATM   16  N   UNL     1      -2.782   2.973 -31.423  1.00  0.00    -0.288 NA
HETATM   17  H   UNL     1      -2.213   2.872 -30.583  1.00  0.00     0.128 HD
BRANCH  16  18
HETATM   18  C   UNL     1      -2.406   4.125 -32.133  1.00  0.00     0.011 A 
HETATM   19  C   UNL     1      -3.110   4.432 -33.310  1.00  0.00     0.062 A 
HETATM   20  C   UNL     1      -2.828   5.596 -34.020  1.00  0.00     0.100 A 
HETATM   21  C   UNL     1      -1.863   6.482 -33.558  1.00  0.00     0.098 A 
HETATM   22  C   UNL     1      -1.183   6.227 -32.381  1.00  0.00     0.041 A 
HETATM   23  C   UNL     1      -1.468   5.059 -31.663  1.00  0.00     0.026 A 
BRANCH  20  24
HETATM   24  O   UNL     1      -3.483   5.916 -35.178  1.00  0.00    -0.358 OA
HETATM   25  H   UNL     1      -3.152   6.780 -35.479  1.00  0.00     0.218 HD
ENDBRANCH  20  24
BRANCH  21  26
HETATM   26  O   UNL     1      -1.589   7.622 -34.257  1.00  0.00    -0.358 OA
HETATM   27  H   UNL     1      -2.423   8.132 -34.226  1.00  0.00     0.218 HD
ENDBRANCH  21  26
ENDBRANCH  16  18
ENDBRANCH  15  16
ENDBRANCH  12  15
TORSDOF 5
ENDMDL
MODEL 3
REMARK VINA RESULT:      -8.4      4.460      8.150
REMARK  5 active torsions:
REMARK  status: ('A' for Active; 'I' for Inactive)
REMARK    1  A    between atoms: C_12  and  C_13 
REMARK    2  A    between atoms: C_13  and  N_14 
REMARK    3  A    between atoms: N_14  and  C_15 
REMARK    4  A    between atoms: C_17  and  O_18 
REMARK    5  A    between atoms: C_19  and  O_20 
ROOT
HETATM    1  C   UNL     1     -12.835   4.987 -35.233  1.00  0.00     0.048 C 
HETATM    2  C   UNL     1     -11.976   3.873 -34.711  1.00  0.00    -0.059 A 
HETATM    3  C   UNL     1     -10.602   4.048 -34.535  1.00  0.00     0.037 A 
HETATM    4  C   UNL     1      -9.820   2.989 -34.072  1.00  0.00     0.046 A 
HETATM    5  C   UNL     1     -10.384   1.736 -33.782  1.00  0.00    -0.003 A 
HETATM    6  C   UNL     1     -11.769   1.551 -33.953  1.00  0.00    -0.049 A 
HETATM    7  C   UNL     1     -12.447   0.241 -33.660  1.00  0.00     0.049 C 
HETATM    8  C   UNL     1     -12.547   2.626 -34.423  1.00  0.00     0.014 A 
HETATM    9  N   UNL     1      -8.445   3.187 -33.894  1.00  0.00    -0.322 N 
HETATM   10  C   UNL     1      -7.586   2.225 -33.440  1.00  0.00     0.253 A 
HETATM   11  O   UNL     1      -6.394   2.466 -33.277  1.00  0.00    -0.268 OA
HETATM   12  C   UNL     1      -8.163   0.884 -33.154  1.00  0.00     0.024 A 
HETATM   13  C   UNL     1      -9.481   0.671 -33.324  1.00  0.00     0.028 A 
HETATM   14  H   UNL     1      -8.032   4.089 -34.088  1.00  0.00     0.169 HD
ENDROOT
BRANCH  12  15
HETATM   15  C   UNL     1      -7.201  -0.193 -32.745  1.00  0.00     0.136 C 
BRANCH  15  16
HETATM   16  N   UNL     1      -6.360  -0.532 -33.891  1.00  0.00    -0.288 NA
HETATM   17  H   UNL     1      -6.787  -0.223 -34.764  1.00  0.00     0.128 HD
BRANCH  16  18
HETATM   18  C   UNL     1      -5.874  -1.843 -34.022  1.00  0.00     0.011 A 
HETATM   19  C   UNL     1      -6.714  -2.800 -34.618  1.00  0.00     0.062 A 
HETATM   20  C   UNL     1      -6.262  -4.099 -34.837  1.00  0.00     0.100 A 
HETATM   21  C   UNL     1      -4.965  -4.458 -34.491  1.00  0.00     0.098 A 
HETATM   22  C   UNL     1      -4.103  -3.527 -33.940  1.00  0.00     0.041 A 
HETATM   23  C   UNL     1      -4.554  -2.219 -33.724  1.00  0.00     0.026 A 
BRANCH  20  24
HETATM   24  O   UNL     1      -7.059  -5.059 -35.400  1.00  0.00    -0.358 OA
HETATM   25  H   UNL     1      -7.761  -4.608 -35.900  1.00  0.00     0.218 HD
ENDBRANCH  20  24
BRANCH  21  26
HETATM   26  O   UNL     1      -4.527  -5.733 -34.706  1.00  0.00    -0.358 OA
HETATM   27  H   UNL     1      -4.288  -5.750 -35.654  1.00  0.00     0.218 HD
ENDBRANCH  21  26
ENDBRANCH  16  18
ENDBRANCH  15  16
ENDBRANCH  12  15
TORSDOF 5
ENDMDL
MODEL 4
REMARK VINA RESULT:      -8.3      2.827      7.709
REMARK  5 active torsions:
REMARK  status: ('A' for Active; 'I' for Inactive)
REMARK    1  A    between atoms: C_12  and  C_13 
REMARK    2  A    between atoms: C_13  and  N_14 
REMARK    3  A    between atoms: N_14  and  C_15 
REMARK    4  A    between atoms: C_17  and  O_18 
REMARK    5  A    between atoms: C_19  and  O_20 
ROOT
HETATM    1  C   UNL     1      -1.217   6.130 -31.627  1.00  0.00     0.048 C 
HETATM    2  C   UNL     1      -2.326   5.169 -31.940  1.00  0.00    -0.059 A 
HETATM    3  C   UNL     1      -2.308   3.866 -31.437  1.00  0.00     0.037 A 
HETATM    4  C   UNL     1      -3.338   2.982 -31.762  1.00  0.00     0.046 A 
HETATM    5  C   UNL     1      -4.400   3.371 -32.596  1.00  0.00    -0.003 A 
HETATM    6  C   UNL     1      -4.428   4.683 -33.103  1.00  0.00    -0.049 A 
HETATM    7  C   UNL     1      -5.532   5.175 -33.998  1.00  0.00     0.049 C 
HETATM    8  C   UNL     1      -3.382   5.565 -32.771  1.00  0.00     0.014 A 
HETATM    9  N   UNL     1      -3.307   1.682 -31.242  1.00  0.00    -0.322 N 
HETATM   10  C   UNL     1      -4.264   0.737 -31.487  1.00  0.00     0.253 A 
HETATM   11  O   UNL     1      -4.198  -0.378 -30.979  1.00  0.00    -0.268 OA
HETATM   12  C   UNL     1      -5.381   1.125 -32.390  1.00  0.00     0.024 A 
HETATM   13  C   UNL     1      -5.427   2.367 -32.905  1.00  0.00     0.028 A 
HETATM   14  H   UNL     1      -2.554   1.397 -30.631  1.00  0.00     0.169 HD
ENDROOT
BRANCH  12  15
HETATM   15  C   UNL     1      -6.379   0.055 -32.730  1.00  0.00     0.136 C 
BRANCH  15  16
HETATM   16  N   UNL     1      -6.026  -0.522 -34.025  1.00  0.00    -0.288 NA
HETATM   17  H   UNL     1      -6.740  -0.320 -34.724  1.00  0.00     0.128 HD
BRANCH  16  18
HETATM   18  C   UNL     1      -5.642  -1.871 -34.094  1.00  0.00     0.011 A 
HETATM   19  C   UNL     1      -6.533  -2.779 -34.692  1.00  0.00     0.062 A 
HETATM   20  C   UNL     1      -6.179  -4.117 -34.850  1.00  0.00     0.100 A 
HETATM   21  C   UNL     1      -4.929  -4.564 -34.442  1.00  0.00     0.098 A 
HETATM   22  C   UNL     1      -4.016  -3.685 -33.888  1.00  0.00     0.041 A 
HETATM   23  C   UNL     1      -4.368  -2.338 -33.732  1.00  0.00     0.026 A 
BRANCH  20  24
HETATM   24  O   UNL     1      -7.029  -5.030 -35.413  1.00  0.00    -0.358 OA
HETATM   25  H   UNL     1      -7.713  -4.540 -35.901  1.00  0.00     0.218 HD
ENDBRANCH  20  24
BRANCH  21  26
HETATM   26  O   UNL     1      -4.586  -5.876 -34.598  1.00  0.00    -0.358 OA
HETATM   27  H   UNL     1      -3.611  -5.882 -34.530  1.00  0.00     0.218 HD
ENDBRANCH  21  26
ENDBRANCH  16  18
ENDBRANCH  15  16
ENDBRANCH  12  15
TORSDOF 5
ENDMDL
MODEL 5
REMARK VINA RESULT:      -8.2      1.847      2.157
REMARK  5 active torsions:
REMARK  status: ('A' for Active; 'I' for Inactive)
REMARK    1  A    between atoms: C_12  and  C_13 
REMARK    2  A    between atoms: C_13  and  N_14 
REMARK    3  A    between atoms: N_14  and  C_15 
REMARK    4  A    between atoms: C_17  and  O_18 
REMARK    5  A    between atoms: C_19  and  O_20 
ROOT
HETATM    1  C   UNL     1      -5.553  -3.925 -34.987  1.00  0.00     0.048 C 
HETATM    2  C   UNL     1      -5.667  -2.494 -34.551  1.00  0.00    -0.059 A 
HETATM    3  C   UNL     1      -4.687  -1.910 -33.746  1.00  0.00     0.037 A 
HETATM    4  C   UNL     1      -4.826  -0.585 -33.331  1.00  0.00     0.046 A 
HETATM    5  C   UNL     1      -5.943   0.183 -33.700  1.00  0.00    -0.003 A 
HETATM    6  C   UNL     1      -6.934  -0.397 -34.514  1.00  0.00    -0.049 A 
HETATM    7  C   UNL     1      -8.157   0.361 -34.954  1.00  0.00     0.049 C 
HETATM    8  C   UNL     1      -6.784  -1.735 -34.924  1.00  0.00     0.014 A 
HETATM    9  N   UNL     1      -3.828  -0.014 -32.532  1.00  0.00    -0.322 N 
HETATM   10  C   UNL     1      -3.857   1.274 -32.075  1.00  0.00     0.253 A 
HETATM   11  O   UNL     1      -2.939   1.728 -31.400  1.00  0.00    -0.268 OA
HETATM   12  C   UNL     1      -5.048   2.092 -32.435  1.00  0.00     0.024 A 
HETATM   13  C   UNL     1      -6.021   1.561 -33.197  1.00  0.00     0.028 A 
HETATM   14  H   UNL     1      -3.015  -0.554 -32.272  1.00  0.00     0.169 HD
ENDROOT
BRANCH  12  15
HETATM   15  C   UNL     1      -5.119   3.475 -31.853  1.00  0.00     0.136 C 
BRANCH  15  16
HETATM   16  N   UNL     1      -4.467   4.405 -32.773  1.00  0.00    -0.288 NA
HETATM   17  H   UNL     1      -4.439   4.027 -33.719  1.00  0.00     0.128 HD
BRANCH  16  18
HETATM   18  C   UNL     1      -3.221   4.952 -32.427  1.00  0.00     0.011 A 
HETATM   19  C   UNL     1      -3.052   5.427 -31.115  1.00  0.00     0.062 A 
HETATM   20  C   UNL     1      -1.819   5.917 -30.694  1.00  0.00     0.100 A 
HETATM   21  C   UNL     1      -0.732   5.919 -31.559  1.00  0.00     0.098 A 
HETATM   22  C   UNL     1      -0.857   5.420 -32.843  1.00  0.00     0.041 A 
HETATM   23  C   UNL     1      -2.096   4.922 -33.268  1.00  0.00     0.026 A 
BRANCH  20  24
HETATM   24  O   UNL     1      -1.625   6.402 -29.429  1.00  0.00    -0.358 OA
HETATM   25  H   UNL     1      -0.884   7.033 -29.461  1.00  0.00     0.218 HD
ENDBRANCH  20  24
BRANCH  21  26
HETATM   26  O   UNL     1       0.475   6.401 -31.142  1.00  0.00    -0.358 OA
HETATM   27  H   UNL     1       0.636   5.948 -30.291  1.00  0.00     0.218 HD
ENDBRANCH  21  26
ENDBRANCH  16  18
ENDBRANCH  15  16
ENDBRANCH  12  15
TORSDOF 5
ENDMDL
MODEL 6
REMARK VINA RESULT:      -8.2      2.517      3.451
REMARK  5 active torsions:
REMARK  status: ('A' for Active; 'I' for Inactive)
REMARK    1  A    between atoms: C_12  and  C_13 
REMARK    2  A    between atoms: C_13  and  N_14 
REMARK    3  A    between atoms: N_14  and  C_15 
REMARK    4  A    between atoms: C_17  and  O_18 
REMARK    5  A    between atoms: C_19  and  O_20 
ROOT
HETATM    1  C   UNL     1      -5.810  -3.900 -35.546  1.00  0.00     0.048 C 
HETATM    2  C   UNL     1      -5.732  -2.847 -34.480  1.00  0.00    -0.059 A 
HETATM    3  C   UNL     1      -6.822  -2.015 -34.213  1.00  0.00     0.037 A 
HETATM    4  C   UNL     1      -6.718  -1.026 -33.235  1.00  0.00     0.046 A 
HETATM    5  C   UNL     1      -5.531  -0.838 -32.508  1.00  0.00    -0.003 A 
HETATM    6  C   UNL     1      -4.429  -1.674 -32.767  1.00  0.00    -0.049 A 
HETATM    7  C   UNL     1      -3.125  -1.538 -32.029  1.00  0.00     0.049 C 
HETATM    8  C   UNL     1      -4.545  -2.667 -33.759  1.00  0.00     0.014 A 
HETATM    9  N   UNL     1      -7.824  -0.207 -32.976  1.00  0.00    -0.322 N 
HETATM   10  C   UNL     1      -7.838   0.787 -32.037  1.00  0.00     0.253 A 
HETATM   11  O   UNL     1      -8.848   1.454 -31.835  1.00  0.00    -0.268 OA
HETATM   12  C   UNL     1      -6.579   1.016 -31.277  1.00  0.00     0.024 A 
HETATM   13  C   UNL     1      -5.502   0.245 -31.515  1.00  0.00     0.028 A 
HETATM   14  H   UNL     1      -8.687  -0.343 -33.485  1.00  0.00     0.169 HD
ENDROOT
BRANCH  12  15
HETATM   15  C   UNL     1      -6.570   2.168 -30.315  1.00  0.00     0.136 C 
BRANCH  15  16
HETATM   16  N   UNL     1      -6.580   3.416 -31.075  1.00  0.00    -0.288 NA
HETATM   17  H   UNL     1      -7.384   3.459 -31.699  1.00  0.00     0.128 HD
BRANCH  16  18
HETATM   18  C   UNL     1      -5.415   3.819 -31.748  1.00  0.00     0.011 A 
HETATM   19  C   UNL     1      -4.189   3.702 -31.069  1.00  0.00     0.062 A 
HETATM   20  C   UNL     1      -2.994   4.021 -31.709  1.00  0.00     0.100 A 
HETATM   21  C   UNL     1      -2.997   4.436 -33.035  1.00  0.00     0.098 A 
HETATM   22  C   UNL     1      -4.183   4.521 -33.740  1.00  0.00     0.041 A 
HETATM   23  C   UNL     1      -5.387   4.195 -33.101  1.00  0.00     0.026 A 
BRANCH  20  24
HETATM   24  O   UNL     1      -1.786   3.935 -31.072  1.00  0.00    -0.358 OA
HETATM   25  H   UNL     1      -1.898   3.360 -30.295  1.00  0.00     0.218 HD
ENDBRANCH  20  24
BRANCH  21  26
HETATM   26  O   UNL     1      -1.823   4.748 -33.657  1.00  0.00    -0.358 OA
HETATM   27  H   UNL     1      -1.755   5.720 -33.571  1.00  0.00     0.218 HD
ENDBRANCH  21  26
ENDBRANCH  16  18
ENDBRANCH  15  16
ENDBRANCH  12  15
TORSDOF 5
ENDMDL
MODEL 7
REMARK VINA RESULT:      -8.1      3.271      7.763
REMARK  5 active torsions:
REMARK  status: ('A' for Active; 'I' for Inactive)
REMARK    1  A    between atoms: C_12  and  C_13 
REMARK    2  A    between atoms: C_13  and  N_14 
REMARK    3  A    between atoms: N_14  and  C_15 
REMARK    4  A    between atoms: C_17  and  O_18 
REMARK    5  A    between atoms: C_19  and  O_20 
ROOT
HETATM    1  C   UNL     1      -6.589   6.845 -31.885  1.00  0.00     0.048 C 
HETATM    2  C   UNL     1      -5.906   5.514 -32.006  1.00  0.00    -0.059 A 
HETATM    3  C   UNL     1      -6.540   4.342 -31.590  1.00  0.00     0.037 A 
HETATM    4  C   UNL     1      -5.876   3.119 -31.689  1.00  0.00     0.046 A 
HETATM    5  C   UNL     1      -4.568   3.036 -32.195  1.00  0.00    -0.003 A 
HETATM    6  C   UNL     1      -3.922   4.212 -32.620  1.00  0.00    -0.049 A 
HETATM    7  C   UNL     1      -2.524   4.206 -33.175  1.00  0.00     0.049 C 
HETATM    8  C   UNL     1      -4.601   5.440 -32.512  1.00  0.00     0.014 A 
HETATM    9  N   UNL     1      -6.532   1.953 -31.275  1.00  0.00    -0.322 N 
HETATM   10  C   UNL     1      -5.981   0.703 -31.333  1.00  0.00     0.253 A 
HETATM   11  O   UNL     1      -6.616  -0.286 -30.982  1.00  0.00    -0.268 OA
HETATM   12  C   UNL     1      -4.586   0.602 -31.841  1.00  0.00     0.024 A 
HETATM   13  C   UNL     1      -3.935   1.711 -32.239  1.00  0.00     0.028 A 
HETATM   14  H   UNL     1      -7.478   2.001 -30.922  1.00  0.00     0.169 HD
ENDROOT
BRANCH  12  15
HETATM   15  C   UNL     1      -3.954  -0.759 -31.816  1.00  0.00     0.136 C 
BRANCH  15  16
HETATM   16  N   UNL     1      -3.677  -1.175 -33.189  1.00  0.00    -0.288 NA
HETATM   17  H   UNL     1      -3.532  -0.368 -33.795  1.00  0.00     0.128 HD
BRANCH  16  18
HETATM   18  C   UNL     1      -4.527  -2.105 -33.809  1.00  0.00     0.011 A 
HETATM   19  C   UNL     1      -4.104  -3.444 -33.869  1.00  0.00     0.062 A 
HETATM   20  C   UNL     1      -4.933  -4.424 -34.410  1.00  0.00     0.100 A 
HETATM   21  C   UNL     1      -6.200  -4.093 -34.875  1.00  0.00     0.098 A 
HETATM   22  C   UNL     1      -6.658  -2.791 -34.792  1.00  0.00     0.041 A 
HETATM   23  C   UNL     1      -5.829  -1.804 -34.243  1.00  0.00     0.026 A 
BRANCH  20  24
HETATM   24  O   UNL     1      -4.546  -5.734 -34.499  1.00  0.00    -0.358 OA
HETATM   25  H   UNL     1      -5.218  -6.209 -35.018  1.00  0.00     0.218 HD
ENDBRANCH  20  24
BRANCH  21  26
HETATM   26  O   UNL     1      -7.008  -5.056 -35.406  1.00  0.00    -0.358 OA
HETATM   27  H   UNL     1      -7.342  -4.661 -36.235  1.00  0.00     0.218 HD
ENDBRANCH  21  26
ENDBRANCH  16  18
ENDBRANCH  15  16
ENDBRANCH  12  15
TORSDOF 5
ENDMDL
MODEL 8
REMARK VINA RESULT:      -8.0     16.319     18.202
REMARK  5 active torsions:
REMARK  status: ('A' for Active; 'I' for Inactive)
REMARK    1  A    between atoms: C_12  and  C_13 
REMARK    2  A    between atoms: C_13  and  N_14 
REMARK    3  A    between atoms: N_14  and  C_15 
REMARK    4  A    between atoms: C_17  and  O_18 
REMARK    5  A    between atoms: C_19  and  O_20 
ROOT
HETATM    1  C   UNL     1       1.527 -14.638 -38.718  1.00  0.00     0.048 C 
HETATM    2  C   UNL     1       0.072 -14.347 -38.937  1.00  0.00    -0.059 A 
HETATM    3  C   UNL     1      -0.482 -14.386 -40.218  1.00  0.00     0.037 A 
HETATM    4  C   UNL     1      -1.833 -14.087 -40.401  1.00  0.00     0.046 A 
HETATM    5  C   UNL     1      -2.657 -13.737 -39.318  1.00  0.00    -0.003 A 
HETATM    6  C   UNL     1      -2.108 -13.700 -38.023  1.00  0.00    -0.049 A 
HETATM    7  C   UNL     1      -2.926 -13.338 -36.814  1.00  0.00     0.049 C 
HETATM    8  C   UNL     1      -0.744 -14.000 -37.852  1.00  0.00     0.014 A 
HETATM    9  N   UNL     1      -2.372 -14.140 -41.692  1.00  0.00    -0.322 N 
HETATM   10  C   UNL     1      -3.681 -13.874 -41.987  1.00  0.00     0.253 A 
HETATM   11  O   UNL     1      -4.103 -13.964 -43.135  1.00  0.00    -0.268 OA
HETATM   12  C   UNL     1      -4.561 -13.476 -40.854  1.00  0.00     0.024 A 
HETATM   13  C   UNL     1      -4.061 -13.413 -39.606  1.00  0.00     0.028 A 
HETATM   14  H   UNL     1      -1.790 -14.403 -42.475  1.00  0.00     0.169 HD
ENDROOT
BRANCH  12  15
HETATM   15  C   UNL     1      -5.972 -13.095 -41.196  1.00  0.00     0.136 C 
BRANCH  15  16
HETATM   16  N   UNL     1      -6.799 -13.231 -39.999  1.00  0.00    -0.288 NA
HETATM   17  H   UNL     1      -6.426 -13.945 -39.374  1.00  0.00     0.128 HD
BRANCH  16  18
HETATM   18  C   UNL     1      -8.188 -13.380 -40.137  1.00  0.00     0.011 A 
HETATM   19  C   UNL     1      -8.965 -12.215 -40.264  1.00  0.00     0.062 A 
HETATM   20  C   UNL     1     -10.339 -12.301 -40.473  1.00  0.00     0.100 A 
HETATM   21  C   UNL     1     -10.956 -13.541 -40.582  1.00  0.00     0.098 A 
HETATM   22  C   UNL     1     -10.211 -14.704 -40.501  1.00  0.00     0.041 A 
HETATM   23  C   UNL     1      -8.828 -14.620 -40.297  1.00  0.00     0.026 A 
BRANCH  20  24
HETATM   24  O   UNL     1     -11.126 -11.187 -40.585  1.00  0.00    -0.358 OA
HETATM   25  H   UNL     1     -11.457 -10.965 -39.697  1.00  0.00     0.218 HD
ENDBRANCH  20  24
BRANCH  21  26
HETATM   26  O   UNL     1     -12.303 -13.620 -40.785  1.00  0.00    -0.358 OA
HETATM   27  H   UNL     1     -12.391 -14.009 -41.677  1.00  0.00     0.218 HD
ENDBRANCH  21  26
ENDBRANCH  16  18
ENDBRANCH  15  16
ENDBRANCH  12  15
TORSDOF 5
ENDMDL
MODEL 9
REMARK VINA RESULT:      -8.0      5.904      8.454
REMARK  5 active torsions:
REMARK  status: ('A' for Active; 'I' for Inactive)
REMARK    1  A    between atoms: C_12  and  C_13 
REMARK    2  A    between atoms: C_13  and  N_14 
REMARK    3  A    between atoms: N_14  and  C_15 
REMARK    4  A    between atoms: C_17  and  O_18 
REMARK    5  A    between atoms: C_19  and  O_20 
ROOT
HETATM    1  C   UNL     1      -2.458  -0.676 -31.965  1.00  0.00     0.048 C 
HETATM    2  C   UNL     1      -3.899  -0.702 -32.381  1.00  0.00    -0.059 A 
HETATM    3  C   UNL     1      -4.847   0.095 -31.734  1.00  0.00     0.037 A 
HETATM    4  C   UNL     1      -6.186   0.035 -32.122  1.00  0.00     0.046 A 
HETATM    5  C   UNL     1      -6.612  -0.821 -33.151  1.00  0.00    -0.003 A 
HETATM    6  C   UNL     1      -5.663  -1.625 -33.810  1.00  0.00    -0.049 A 
HETATM    7  C   UNL     1      -6.041  -2.563 -34.924  1.00  0.00     0.049 C 
HETATM    8  C   UNL     1      -4.316  -1.558 -33.409  1.00  0.00     0.014 A 
HETATM    9  N   UNL     1      -7.120   0.848 -31.467  1.00  0.00    -0.322 N 
HETATM   10  C   UNL     1      -8.453   0.877 -31.768  1.00  0.00     0.253 A 
HETATM   11  O   UNL     1      -9.219   1.632 -31.178  1.00  0.00    -0.268 OA
HETATM   12  C   UNL     1      -8.924  -0.044 -32.838  1.00  0.00     0.024 A 
HETATM   13  C   UNL     1      -8.045  -0.838 -33.475  1.00  0.00     0.028 A 
HETATM   14  H   UNL     1      -6.820   1.477 -30.734  1.00  0.00     0.169 HD
ENDROOT
BRANCH  12  15
HETATM   15  C   UNL     1     -10.402  -0.076 -33.100  1.00  0.00     0.136 C 
BRANCH  15  16
HETATM   16  N   UNL     1     -10.834   1.256 -33.519  1.00  0.00    -0.288 NA
HETATM   17  H   UNL     1     -10.267   1.981 -33.082  1.00  0.00     0.128 HD
BRANCH  16  18
HETATM   18  C   UNL     1     -12.196   1.591 -33.446  1.00  0.00     0.011 A 
HETATM   19  C   UNL     1     -13.110   0.785 -34.147  1.00  0.00     0.062 A 
HETATM   20  C   UNL     1     -14.479   1.025 -34.058  1.00  0.00     0.100 A 
HETATM   21  C   UNL     1     -14.959   2.052 -33.254  1.00  0.00     0.098 A 
HETATM   22  C   UNL     1     -14.086   2.836 -32.522  1.00  0.00     0.041 A 
HETATM   23  C   UNL     1     -12.709   2.592 -32.606  1.00  0.00     0.026 A 
BRANCH  20  24
HETATM   24  O   UNL     1     -15.394   0.270 -34.739  1.00  0.00    -0.358 OA
HETATM   25  H   UNL     1     -15.700  -0.436 -34.144  1.00  0.00     0.218 HD
ENDBRANCH  20  24
BRANCH  21  26
HETATM   26  O   UNL     1     -16.301   2.285 -33.171  1.00  0.00    -0.358 OA
HETATM   27  H   UNL     1     -16.687   1.738 -33.883  1.00  0.00     0.218 HD
ENDBRANCH  21  26
ENDBRANCH  16  18
ENDBRANCH  15  16
ENDBRANCH  12  15
TORSDOF 5
ENDMDL
MODEL 10
REMARK VINA RESULT:      -7.9      2.163      3.213
REMARK  5 active torsions:
REMARK  status: ('A' for Active; 'I' for Inactive)
REMARK    1  A    between atoms: C_12  and  C_13 
REMARK    2  A    between atoms: C_13  and  N_14 
REMARK    3  A    between atoms: N_14  and  C_15 
REMARK    4  A    between atoms: C_17  and  O_18 
REMARK    5  A    between atoms: C_19  and  O_20 
ROOT
HETATM    1  C   UNL     1      -5.554  -3.562 -34.759  1.00  0.00     0.048 C 
HETATM    2  C   UNL     1      -5.288  -2.227 -34.128  1.00  0.00    -0.059 A 
HETATM    3  C   UNL     1      -6.081  -1.119 -34.432  1.00  0.00     0.037 A 
HETATM    4  C   UNL     1      -5.799   0.118 -33.852  1.00  0.00     0.046 A 
HETATM    5  C   UNL     1      -4.721   0.282 -32.966  1.00  0.00    -0.003 A 
HETATM    6  C   UNL     1      -3.918  -0.831 -32.651  1.00  0.00    -0.049 A 
HETATM    7  C   UNL     1      -2.749  -0.737 -31.709  1.00  0.00     0.049 C 
HETATM    8  C   UNL     1      -4.211  -2.073 -33.245  1.00  0.00     0.014 A 
HETATM    9  N   UNL     1      -6.612   1.216 -34.162  1.00  0.00    -0.322 N 
HETATM   10  C   UNL     1      -6.434   2.470 -33.648  1.00  0.00     0.253 A 
HETATM   11  O   UNL     1      -7.196   3.387 -33.935  1.00  0.00    -0.268 OA
HETATM   12  C   UNL     1      -5.279   2.666 -32.729  1.00  0.00     0.024 A 
HETATM   13  C   UNL     1      -4.482   1.626 -32.422  1.00  0.00     0.028 A 
HETATM   14  H   UNL     1      -7.398   1.105 -34.788  1.00  0.00     0.169 HD
ENDROOT
BRANCH  12  15
HETATM   15  C   UNL     1      -5.033   4.064 -32.241  1.00  0.00     0.136 C 
BRANCH  15  16
HETATM   16  N   UNL     1      -4.156   4.745 -33.191  1.00  0.00    -0.288 NA
HETATM   17  H   UNL     1      -3.950   4.151 -33.993  1.00  0.00     0.128 HD
BRANCH  16  18
HETATM   18  C   UNL     1      -2.982   5.358 -32.723  1.00  0.00     0.011 A 
HETATM   19  C   UNL     1      -2.125   4.601 -31.906  1.00  0.00     0.062 A 
HETATM   20  C   UNL     1      -0.914   5.132 -31.468  1.00  0.00     0.100 A 
HETATM   21  C   UNL     1      -0.527   6.408 -31.855  1.00  0.00     0.098 A 
HETATM   22  C   UNL     1      -1.331   7.161 -32.692  1.00  0.00     0.041 A 
HETATM   23  C   UNL     1      -2.547   6.628 -33.138  1.00  0.00     0.026 A 
BRANCH  20  24
HETATM   24  O   UNL     1      -0.064   4.428 -30.658  1.00  0.00    -0.358 OA
HETATM   25  H   UNL     1      -0.356   3.499 -30.655  1.00  0.00     0.218 HD
ENDBRANCH  20  24
BRANCH  21  26
HETATM   26  O   UNL     1       0.660   6.925 -31.423  1.00  0.00    -0.358 OA
HETATM   27  H   UNL     1       0.864   6.419 -30.612  1.00  0.00     0.218 HD
ENDBRANCH  21  26
ENDBRANCH  16  18
ENDBRANCH  15  16
ENDBRANCH  12  15
TORSDOF 5
ENDMDL
