MODEL 1
REMARK VINA RESULT:      -7.4      0.000      0.000
REMARK  5 active torsions:
REMARK  status: ('A' for Active; 'I' for Inactive)
REMARK    1  A    between atoms: C_2  and  O_3 
REMARK    2  A    between atoms: O_3  and  C_4 
REMARK    3  A    between atoms: C_8  and  C_9 
REMARK    4  A    between atoms: C_9  and  N_10 
REMARK       I    between atoms: N_10  and  C_11 
REMARK    5  A    between atoms: C_11  and  C_12 
ROOT
HETATM    1  C   UNL     1      -4.450   0.330 -31.068  1.00  0.00     0.161 C 
ENDROOT
BRANCH   1   2
HETATM    2  C   UNL     1      -5.635   1.233 -30.875  1.00  0.00    -0.035 A 
HETATM    3  C   UNL     1      -5.506   2.432 -30.170  1.00  0.00     0.028 A 
HETATM    4  C   UNL     1      -6.631   3.219 -29.990  1.00  0.00     0.120 A 
HETATM    5  N   UNL     1      -7.858   2.893 -30.448  1.00  0.00    -0.237 NA
HETATM    6  C   UNL     1      -7.968   1.733 -31.121  1.00  0.00     0.165 A 
HETATM    7  C   UNL     1      -6.898   0.882 -31.360  1.00  0.00     0.066 A 
BRANCH   6   8
HETATM    8  O   UNL     1      -9.176   1.336 -31.645  1.00  0.00    -0.324 OA
BRANCH   8   9
HETATM    9  C   UNL     1      -9.714   1.999 -32.804  1.00  0.00     0.058 C 
HETATM   10  C   UNL     1      -8.627   2.520 -33.758  1.00  0.00     0.045 C 
HETATM   11  C   UNL     1     -10.735   3.085 -32.434  1.00  0.00     0.045 C 
HETATM   12  C   UNL     1     -10.474   0.880 -33.543  1.00  0.00     0.045 C 
ENDBRANCH   8   9
ENDBRANCH   6   8
ENDBRANCH   1   2
BRANCH   1  13
HETATM   13  N   UNL     1      -4.835  -0.863 -31.783  1.00  0.00    -0.353 N 
HETATM   14  C   UNL     1      -4.258  -1.182 -32.989  1.00  0.00     0.253 C 
HETATM   15  O   UNL     1      -3.310  -0.570 -33.467  1.00  0.00    -0.268 OA
HETATM   16  H   UNL     1      -5.685  -1.334 -31.501  1.00  0.00     0.163 HD
BRANCH  14  17
HETATM   17  C   UNL     1      -4.793  -2.379 -33.688  1.00  0.00     0.049 A 
HETATM   18  C   UNL     1      -5.976  -2.405 -34.438  1.00  0.00     0.026 A 
HETATM   19 BR   UNL     1      -7.058  -0.874 -34.751  1.00  0.00    -0.050 Br
HETATM   20  C   UNL     1      -6.389  -3.598 -35.044  1.00  0.00     0.020 A 
HETATM   21  C   UNL     1      -5.625  -4.760 -34.915  1.00  0.00     0.001 A 
HETATM   22  C   UNL     1      -4.439  -4.734 -34.186  1.00  0.00     0.001 A 
HETATM   23  C   UNL     1      -4.023  -3.549 -33.580  1.00  0.00     0.018 A 
ENDBRANCH  14  17
ENDBRANCH   1  13
TORSDOF 5
ENDMDL
MODEL 2
REMARK VINA RESULT:      -7.4      4.250      6.177
REMARK  5 active torsions:
REMARK  status: ('A' for Active; 'I' for Inactive)
REMARK    1  A    between atoms: C_2  and  O_3 
REMARK    2  A    between atoms: O_3  and  C_4 
REMARK    3  A    between atoms: C_8  and  C_9 
REMARK    4  A    between atoms: C_9  and  N_10 
REMARK       I    between atoms: N_10  and  C_11 
REMARK    5  A    between atoms: C_11  and  C_12 
ROOT
HETATM    1  C   UNL     1      -5.365   2.971 -32.271  1.00  0.00     0.161 C 
ENDROOT
BRANCH   1   2
HETATM    2  C   UNL     1      -4.211   3.842 -32.675  1.00  0.00    -0.035 A 
HETATM    3  C   UNL     1      -4.293   4.644 -33.816  1.00  0.00     0.028 A 
HETATM    4  C   UNL     1      -3.193   5.408 -34.168  1.00  0.00     0.120 A 
HETATM    5  N   UNL     1      -2.033   5.420 -33.479  1.00  0.00    -0.237 NA
HETATM    6  C   UNL     1      -1.967   4.639 -32.385  1.00  0.00     0.165 A 
HETATM    7  C   UNL     1      -3.017   3.846 -31.947  1.00  0.00     0.066 A 
BRANCH   6   8
HETATM    8  O   UNL     1      -0.832   4.610 -31.609  1.00  0.00    -0.324 OA
BRANCH   8   9
HETATM    9  C   UNL     1      -0.487   5.744 -30.791  1.00  0.00     0.058 C 
HETATM   10  C   UNL     1      -1.706   6.397 -30.123  1.00  0.00     0.045 C 
HETATM   11  C   UNL     1       0.383   6.762 -31.542  1.00  0.00     0.045 C 
HETATM   12  C   UNL     1       0.377   5.132 -29.670  1.00  0.00     0.045 C 
ENDBRANCH   8   9
ENDBRANCH   6   8
ENDBRANCH   1   2
BRANCH   1  13
HETATM   13  N   UNL     1      -5.318   1.710 -32.973  1.00  0.00    -0.353 N 
HETATM   14  C   UNL     1      -5.828   0.566 -32.407  1.00  0.00     0.253 C 
HETATM   15  O   UNL     1      -6.462   0.556 -31.359  1.00  0.00    -0.268 OA
HETATM   16  H   UNL     1      -4.708   1.635 -33.776  1.00  0.00     0.163 HD
BRANCH  14  17
HETATM   17  C   UNL     1      -5.642  -0.694 -33.172  1.00  0.00     0.049 A 
HETATM   18  C   UNL     1      -4.488  -1.487 -33.138  1.00  0.00     0.026 A 
HETATM   19 BR   UNL     1      -2.987  -1.115 -32.034  1.00  0.00    -0.050 Br
HETATM   20  C   UNL     1      -4.422  -2.653 -33.913  1.00  0.00     0.020 A 
HETATM   21  C   UNL     1      -5.503  -3.035 -34.711  1.00  0.00     0.001 A 
HETATM   22  C   UNL     1      -6.659  -2.260 -34.733  1.00  0.00     0.001 A 
HETATM   23  C   UNL     1      -6.730  -1.099 -33.964  1.00  0.00     0.018 A 
ENDBRANCH  14  17
ENDBRANCH   1  13
TORSDOF 5
ENDMDL
MODEL 3
REMARK VINA RESULT:      -7.3      4.180      6.084
REMARK  5 active torsions:
REMARK  status: ('A' for Active; 'I' for Inactive)
REMARK    1  A    between atoms: C_2  and  O_3 
REMARK    2  A    between atoms: O_3  and  C_4 
REMARK    3  A    between atoms: C_8  and  C_9 
REMARK    4  A    between atoms: C_9  and  N_10 
REMARK       I    between atoms: N_10  and  C_11 
REMARK    5  A    between atoms: C_11  and  C_12 
ROOT
HETATM    1  C   UNL     1      -5.035   2.814 -32.045  1.00  0.00     0.161 C 
ENDROOT
BRANCH   1   2
HETATM    2  C   UNL     1      -3.966   3.770 -32.490  1.00  0.00    -0.035 A 
HETATM    3  C   UNL     1      -4.170   4.597 -33.598  1.00  0.00     0.028 A 
HETATM    4  C   UNL     1      -3.146   5.441 -33.992  1.00  0.00     0.120 A 
HETATM    5  N   UNL     1      -1.948   5.510 -33.373  1.00  0.00    -0.237 NA
HETATM    6  C   UNL     1      -1.765   4.705 -32.311  1.00  0.00     0.165 A 
HETATM    7  C   UNL     1      -2.733   3.832 -31.835  1.00  0.00     0.066 A 
BRANCH   6   8
HETATM    8  O   UNL     1      -0.584   4.729 -31.606  1.00  0.00    -0.324 OA
BRANCH   8   9
HETATM    9  C   UNL     1      -0.300   5.820 -30.710  1.00  0.00     0.058 C 
HETATM   10  C   UNL     1      -1.565   6.437 -30.094  1.00  0.00     0.045 C 
HETATM   11  C   UNL     1       0.616   6.876 -31.346  1.00  0.00     0.045 C 
HETATM   12  C   UNL     1       0.487   5.152 -29.564  1.00  0.00     0.045 C 
ENDBRANCH   8   9
ENDBRANCH   6   8
ENDBRANCH   1   2
BRANCH   1  13
HETATM   13  N   UNL     1      -4.987   1.602 -32.826  1.00  0.00    -0.353 N 
HETATM   14  C   UNL     1      -5.710   0.493 -32.457  1.00  0.00     0.253 C 
HETATM   15  O   UNL     1      -6.528   0.493 -31.544  1.00  0.00    -0.268 OA
HETATM   16  H   UNL     1      -4.248   1.505 -33.510  1.00  0.00     0.163 HD
BRANCH  14  17
HETATM   17  C   UNL     1      -5.515  -0.732 -33.275  1.00  0.00     0.049 A 
HETATM   18  C   UNL     1      -6.311  -1.099 -34.367  1.00  0.00     0.026 A 
HETATM   19 BR   UNL     1      -7.738  -0.036 -35.035  1.00  0.00    -0.050 Br
HETATM   20  C   UNL     1      -6.038  -2.287 -35.059  1.00  0.00     0.020 A 
HETATM   21  C   UNL     1      -4.972  -3.102 -34.674  1.00  0.00     0.001 A 
HETATM   22  C   UNL     1      -4.166  -2.732 -33.600  1.00  0.00     0.001 A 
HETATM   23  C   UNL     1      -4.433  -1.551 -32.908  1.00  0.00     0.018 A 
ENDBRANCH  14  17
ENDBRANCH   1  13
TORSDOF 5
ENDMDL
MODEL 4
REMARK VINA RESULT:      -7.3      2.464      4.008
REMARK  5 active torsions:
REMARK  status: ('A' for Active; 'I' for Inactive)
REMARK    1  A    between atoms: C_2  and  O_3 
REMARK    2  A    between atoms: O_3  and  C_4 
REMARK    3  A    between atoms: C_8  and  C_9 
REMARK    4  A    between atoms: C_9  and  N_10 
REMARK       I    between atoms: N_10  and  C_11 
REMARK    5  A    between atoms: C_11  and  C_12 
ROOT
HETATM    1  C   UNL     1      -8.391   0.540 -33.281  1.00  0.00     0.161 C 
ENDROOT
BRANCH   1   2
HETATM    2  C   UNL     1      -7.734   1.641 -32.498  1.00  0.00    -0.035 A 
HETATM    3  C   UNL     1      -8.263   2.053 -31.273  1.00  0.00     0.028 A 
HETATM    4  C   UNL     1      -7.643   3.093 -30.600  1.00  0.00     0.120 A 
HETATM    5  N   UNL     1      -6.556   3.745 -31.063  1.00  0.00    -0.237 NA
HETATM    6  C   UNL     1      -6.061   3.340 -32.246  1.00  0.00     0.165 A 
HETATM    7  C   UNL     1      -6.606   2.303 -32.990  1.00  0.00     0.066 A 
BRANCH   6   8
HETATM    8  O   UNL     1      -4.940   3.932 -32.779  1.00  0.00    -0.324 OA
BRANCH   8   9
HETATM    9  C   UNL     1      -3.691   3.891 -32.062  1.00  0.00     0.058 C 
HETATM   10  C   UNL     1      -3.452   2.553 -31.346  1.00  0.00     0.045 C 
HETATM   11  C   UNL     1      -3.515   5.095 -31.125  1.00  0.00     0.045 C 
HETATM   12  C   UNL     1      -2.630   4.011 -33.175  1.00  0.00     0.045 C 
ENDBRANCH   8   9
ENDBRANCH   6   8
ENDBRANCH   1   2
BRANCH   1  13
HETATM   13  N   UNL     1      -7.545  -0.629 -33.317  1.00  0.00    -0.353 N 
HETATM   14  C   UNL     1      -6.873  -0.981 -34.463  1.00  0.00     0.253 C 
HETATM   15  O   UNL     1      -6.834  -0.277 -35.466  1.00  0.00    -0.268 OA
HETATM   16  H   UNL     1      -7.633  -1.304 -32.568  1.00  0.00     0.163 HD
BRANCH  14  17
HETATM   17  C   UNL     1      -6.107  -2.253 -34.422  1.00  0.00     0.049 A 
HETATM   18  C   UNL     1      -4.789  -2.378 -33.965  1.00  0.00     0.026 A 
HETATM   19 BR   UNL     1      -3.784  -0.937 -33.242  1.00  0.00    -0.050 Br
HETATM   20  C   UNL     1      -4.163  -3.631 -33.983  1.00  0.00     0.020 A 
HETATM   21  C   UNL     1      -4.846  -4.759 -34.444  1.00  0.00     0.001 A 
HETATM   22  C   UNL     1      -6.163  -4.642 -34.882  1.00  0.00     0.001 A 
HETATM   23  C   UNL     1      -6.791  -3.397 -34.866  1.00  0.00     0.018 A 
ENDBRANCH  14  17
ENDBRANCH   1  13
TORSDOF 5
ENDMDL
MODEL 5
REMARK VINA RESULT:      -7.2      2.121      2.702
REMARK  5 active torsions:
REMARK  status: ('A' for Active; 'I' for Inactive)
REMARK    1  A    between atoms: C_2  and  O_3 
REMARK    2  A    between atoms: O_3  and  C_4 
REMARK    3  A    between atoms: C_8  and  C_9 
REMARK    4  A    between atoms: C_9  and  N_10 
REMARK       I    between atoms: N_10  and  C_11 
REMARK    5  A    between atoms: C_11  and  C_12 
ROOT
HETATM    1  C   UNL     1      -3.467  -0.165 -31.120  1.00  0.00     0.161 C 
ENDROOT
BRANCH   1   2
HETATM    2  C   UNL     1      -4.477   0.933 -30.940  1.00  0.00    -0.035 A 
HETATM    3  C   UNL     1      -5.575   0.754 -30.095  1.00  0.00     0.028 A 
HETATM    4  C   UNL     1      -6.497   1.781 -29.982  1.00  0.00     0.120 A 
HETATM    5  N   UNL     1      -6.407   2.950 -30.651  1.00  0.00    -0.237 NA
HETATM    6  C   UNL     1      -5.346   3.105 -31.464  1.00  0.00     0.165 A 
HETATM    7  C   UNL     1      -4.366   2.139 -31.636  1.00  0.00     0.066 A 
BRANCH   6   8
HETATM    8  O   UNL     1      -5.162   4.275 -32.164  1.00  0.00    -0.324 OA
BRANCH   8   9
HETATM    9  C   UNL     1      -5.726   4.425 -33.481  1.00  0.00     0.058 C 
HETATM   10  C   UNL     1      -6.511   3.188 -33.943  1.00  0.00     0.045 C 
HETATM   11  C   UNL     1      -4.683   4.875 -34.514  1.00  0.00     0.045 C 
HETATM   12  C   UNL     1      -6.739   5.575 -33.313  1.00  0.00     0.045 C 
ENDBRANCH   8   9
ENDBRANCH   6   8
ENDBRANCH   1   2
BRANCH   1  13
HETATM   13  N   UNL     1      -4.055  -1.284 -31.816  1.00  0.00    -0.353 N 
HETATM   14  C   UNL     1      -4.000  -1.373 -33.186  1.00  0.00     0.253 C 
HETATM   15  O   UNL     1      -3.351  -0.605 -33.887  1.00  0.00    -0.268 OA
HETATM   16  H   UNL     1      -4.699  -1.876 -31.307  1.00  0.00     0.163 HD
BRANCH  14  17
HETATM   17  C   UNL     1      -4.719  -2.513 -33.809  1.00  0.00     0.049 A 
HETATM   18  C   UNL     1      -5.989  -2.435 -34.395  1.00  0.00     0.026 A 
HETATM   19 BR   UNL     1      -6.974  -0.818 -34.559  1.00  0.00    -0.050 Br
HETATM   20  C   UNL     1      -6.575  -3.583 -34.943  1.00  0.00     0.020 A 
HETATM   21  C   UNL     1      -5.898  -4.805 -34.919  1.00  0.00     0.001 A 
HETATM   22  C   UNL     1      -4.627  -4.884 -34.354  1.00  0.00     0.001 A 
HETATM   23  C   UNL     1      -4.039  -3.743 -33.807  1.00  0.00     0.018 A 
ENDBRANCH  14  17
ENDBRANCH   1  13
TORSDOF 5
ENDMDL
MODEL 6
REMARK VINA RESULT:      -6.8      2.535      3.887
REMARK  5 active torsions:
REMARK  status: ('A' for Active; 'I' for Inactive)
REMARK    1  A    between atoms: C_2  and  O_3 
REMARK    2  A    between atoms: O_3  and  C_4 
REMARK    3  A    between atoms: C_8  and  C_9 
REMARK    4  A    between atoms: C_9  and  N_10 
REMARK       I    between atoms: N_10  and  C_11 
REMARK    5  A    between atoms: C_11  and  C_12 
ROOT
HETATM    1  C   UNL     1      -7.981   1.333 -31.771  1.00  0.00     0.161 C 
ENDROOT
BRANCH   1   2
HETATM    2  C   UNL     1      -9.331   1.528 -32.401  1.00  0.00    -0.035 A 
HETATM    3  C   UNL     1     -10.028   0.441 -32.935  1.00  0.00     0.028 A 
HETATM    4  C   UNL     1     -11.255   0.670 -33.533  1.00  0.00     0.120 A 
HETATM    5  N   UNL     1     -11.822   1.890 -33.643  1.00  0.00    -0.237 NA
HETATM    6  C   UNL     1     -11.138   2.928 -33.128  1.00  0.00     0.165 A 
HETATM    7  C   UNL     1      -9.906   2.798 -32.502  1.00  0.00     0.066 A 
BRANCH   6   8
HETATM    8  O   UNL     1     -11.653   4.202 -33.174  1.00  0.00    -0.324 OA
BRANCH   8   9
HETATM    9  C   UNL     1     -11.611   4.955 -34.401  1.00  0.00     0.058 C 
HETATM   10  C   UNL     1     -12.828   4.702 -35.303  1.00  0.00     0.045 C 
HETATM   11  C   UNL     1     -10.282   4.778 -35.150  1.00  0.00     0.045 C 
HETATM   12  C   UNL     1     -11.686   6.421 -33.929  1.00  0.00     0.045 C 
ENDBRANCH   8   9
ENDBRANCH   6   8
ENDBRANCH   1   2
BRANCH   1  13
HETATM   13  N   UNL     1      -7.377   0.109 -32.239  1.00  0.00    -0.353 N 
HETATM   14  C   UNL     1      -6.551   0.103 -33.338  1.00  0.00     0.253 C 
HETATM   15  O   UNL     1      -6.171   1.122 -33.903  1.00  0.00    -0.268 OA
HETATM   16  H   UNL     1      -7.745  -0.767 -31.892  1.00  0.00     0.163 HD
BRANCH  14  17
HETATM   17  C   UNL     1      -6.059  -1.223 -33.793  1.00  0.00     0.049 A 
HETATM   18  C   UNL     1      -4.735  -1.666 -33.679  1.00  0.00     0.026 A 
HETATM   19 BR   UNL     1      -3.356  -0.660 -32.842  1.00  0.00    -0.050 Br
HETATM   20  C   UNL     1      -4.383  -2.936 -34.154  1.00  0.00     0.020 A 
HETATM   21  C   UNL     1      -5.344  -3.768 -34.732  1.00  0.00     0.001 A 
HETATM   22  C   UNL     1      -6.666  -3.339 -34.831  1.00  0.00     0.001 A 
HETATM   23  C   UNL     1      -7.021  -2.075 -34.359  1.00  0.00     0.018 A 
ENDBRANCH  14  17
ENDBRANCH   1  13
TORSDOF 5
ENDMDL
MODEL 7
REMARK VINA RESULT:      -6.8      3.641      6.225
REMARK  5 active torsions:
REMARK  status: ('A' for Active; 'I' for Inactive)
REMARK    1  A    between atoms: C_2  and  O_3 
REMARK    2  A    between atoms: O_3  and  C_4 
REMARK    3  A    between atoms: C_8  and  C_9 
REMARK    4  A    between atoms: C_9  and  N_10 
REMARK       I    between atoms: N_10  and  C_11 
REMARK    5  A    between atoms: C_11  and  C_12 
ROOT
HETATM    1  C   UNL     1      -5.179   2.736 -30.022  1.00  0.00     0.161 C 
ENDROOT
BRANCH   1   2
HETATM    2  C   UNL     1      -6.281   2.101 -30.821  1.00  0.00    -0.035 A 
HETATM    3  C   UNL     1      -7.502   2.758 -30.991  1.00  0.00     0.028 A 
HETATM    4  C   UNL     1      -8.501   2.123 -31.710  1.00  0.00     0.120 A 
HETATM    5  N   UNL     1      -8.372   0.894 -32.253  1.00  0.00    -0.237 NA
HETATM    6  C   UNL     1      -7.192   0.272 -32.077  1.00  0.00     0.165 A 
HETATM    7  C   UNL     1      -6.129   0.829 -31.381  1.00  0.00     0.066 A 
BRANCH   6   8
HETATM    8  O   UNL     1      -6.966  -0.972 -32.618  1.00  0.00    -0.324 OA
BRANCH   8   9
HETATM    9  C   UNL     1      -6.288  -1.096 -33.882  1.00  0.00     0.058 C 
HETATM   10  C   UNL     1      -4.764  -1.231 -33.737  1.00  0.00     0.045 C 
HETATM   11  C   UNL     1      -6.685   0.011 -34.870  1.00  0.00     0.045 C 
HETATM   12  C   UNL     1      -6.814  -2.432 -34.445  1.00  0.00     0.045 C 
ENDBRANCH   8   9
ENDBRANCH   6   8
ENDBRANCH   1   2
BRANCH   1  13
HETATM   13  N   UNL     1      -4.496   3.736 -30.807  1.00  0.00    -0.353 N 
HETATM   14  C   UNL     1      -3.348   3.431 -31.498  1.00  0.00     0.253 C 
HETATM   15  O   UNL     1      -2.908   2.292 -31.607  1.00  0.00    -0.268 OA
HETATM   16  H   UNL     1      -4.741   4.707 -30.658  1.00  0.00     0.163 HD
BRANCH  14  17
HETATM   17  C   UNL     1      -2.672   4.555 -32.195  1.00  0.00     0.049 A 
HETATM   18  C   UNL     1      -3.165   5.201 -33.336  1.00  0.00     0.026 A 
HETATM   19 BR   UNL     1      -4.838   4.789 -34.139  1.00  0.00    -0.050 Br
HETATM   20  C   UNL     1      -2.433   6.245 -33.916  1.00  0.00     0.020 A 
HETATM   21  C   UNL     1      -1.219   6.654 -33.359  1.00  0.00     0.001 A 
HETATM   22  C   UNL     1      -0.734   6.027 -32.213  1.00  0.00     0.001 A 
HETATM   23  C   UNL     1      -1.459   4.987 -31.632  1.00  0.00     0.018 A 
ENDBRANCH  14  17
ENDBRANCH   1  13
TORSDOF 5
ENDMDL
MODEL 8
REMARK VINA RESULT:      -6.6     14.441     15.555
REMARK  5 active torsions:
REMARK  status: ('A' for Active; 'I' for Inactive)
REMARK    1  A    between atoms: C_2  and  O_3 
REMARK    2  A    between atoms: O_3  and  C_4 
REMARK    3  A    between atoms: C_8  and  C_9 
REMARK    4  A    between atoms: C_9  and  N_10 
REMARK       I    between atoms: N_10  and  C_11 
REMARK    5  A    between atoms: C_11  and  C_12 
ROOT
HETATM    1  C   UNL     1      -5.193 -13.813 -36.161  1.00  0.00     0.161 C 
ENDROOT
BRANCH   1   2
HETATM    2  C   UNL     1      -6.431 -14.378 -36.798  1.00  0.00    -0.035 A 
HETATM    3  C   UNL     1      -6.654 -15.757 -36.815  1.00  0.00     0.028 A 
HETATM    4  C   UNL     1      -7.793 -16.236 -37.440  1.00  0.00     0.120 A 
HETATM    5  N   UNL     1      -8.705 -15.448 -38.048  1.00  0.00    -0.237 NA
HETATM    6  C   UNL     1      -8.474 -14.123 -38.028  1.00  0.00     0.165 A 
HETATM    7  C   UNL     1      -7.368 -13.547 -37.420  1.00  0.00     0.066 A 
BRANCH   6   8
HETATM    8  O   UNL     1      -9.365 -13.245 -38.601  1.00  0.00    -0.324 OA
BRANCH   8   9
HETATM    9  C   UNL     1      -9.476 -13.163 -40.034  1.00  0.00     0.058 C 
HETATM   10  C   UNL     1     -10.366 -14.263 -40.632  1.00  0.00     0.045 C 
HETATM   11  C   UNL     1      -8.106 -13.081 -40.723  1.00  0.00     0.045 C 
HETATM   12  C   UNL     1     -10.193 -11.817 -40.265  1.00  0.00     0.045 C 
ENDBRANCH   8   9
ENDBRANCH   6   8
ENDBRANCH   1   2
BRANCH   1  13
HETATM   13  N   UNL     1      -4.031 -14.111 -36.963  1.00  0.00    -0.353 N 
HETATM   14  C   UNL     1      -3.455 -13.149 -37.759  1.00  0.00     0.253 C 
HETATM   15  O   UNL     1      -3.791 -11.970 -37.744  1.00  0.00    -0.268 OA
HETATM   16  H   UNL     1      -3.787 -15.082 -37.107  1.00  0.00     0.163 HD
BRANCH  14  17
HETATM   17  C   UNL     1      -2.323 -13.584 -38.617  1.00  0.00     0.049 A 
HETATM   18  C   UNL     1      -2.438 -13.966 -39.960  1.00  0.00     0.026 A 
HETATM   19 BR   UNL     1      -4.069 -13.912 -40.934  1.00  0.00    -0.050 Br
HETATM   20  C   UNL     1      -1.299 -14.370 -40.668  1.00  0.00     0.020 A 
HETATM   21  C   UNL     1      -0.047 -14.386 -40.048  1.00  0.00     0.001 A 
HETATM   22  C   UNL     1       0.075 -13.989 -38.718  1.00  0.00     0.001 A 
HETATM   23  C   UNL     1      -1.057 -13.586 -38.008  1.00  0.00     0.018 A 
ENDBRANCH  14  17
ENDBRANCH   1  13
TORSDOF 5
ENDMDL
MODEL 9
REMARK VINA RESULT:      -6.6      3.711      5.071
REMARK  5 active torsions:
REMARK  status: ('A' for Active; 'I' for Inactive)
REMARK    1  A    between atoms: C_2  and  O_3 
REMARK    2  A    between atoms: O_3  and  C_4 
REMARK    3  A    between atoms: C_8  and  C_9 
REMARK    4  A    between atoms: C_9  and  N_10 
REMARK       I    between atoms: N_10  and  C_11 
REMARK    5  A    between atoms: C_11  and  C_12 
ROOT
HETATM    1  C   UNL     1      -5.415   2.158 -30.841  1.00  0.00     0.161 C 
ENDROOT
BRANCH   1   2
HETATM    2  C   UNL     1      -5.536   3.534 -31.432  1.00  0.00    -0.035 A 
HETATM    3  C   UNL     1      -6.777   4.020 -31.849  1.00  0.00     0.028 A 
HETATM    4  C   UNL     1      -6.838   5.282 -32.416  1.00  0.00     0.120 A 
HETATM    5  N   UNL     1      -5.762   6.075 -32.602  1.00  0.00    -0.237 NA
HETATM    6  C   UNL     1      -4.573   5.591 -32.200  1.00  0.00     0.165 A 
HETATM    7  C   UNL     1      -4.412   4.344 -31.614  1.00  0.00     0.066 A 
BRANCH   6   8
HETATM    8  O   UNL     1      -3.428   6.343 -32.328  1.00  0.00    -0.324 OA
BRANCH   8   9
HETATM    9  C   UNL     1      -2.471   6.032 -33.359  1.00  0.00     0.058 C 
HETATM   10  C   UNL     1      -3.125   5.525 -34.653  1.00  0.00     0.045 C 
HETATM   11  C   UNL     1      -1.360   5.096 -32.860  1.00  0.00     0.045 C 
HETATM   12  C   UNL     1      -1.823   7.394 -33.675  1.00  0.00     0.045 C 
ENDBRANCH   8   9
ENDBRANCH   6   8
ENDBRANCH   1   2
BRANCH   1  13
HETATM   13  N   UNL     1      -5.346   1.164 -31.885  1.00  0.00    -0.353 N 
HETATM   14  C   UNL     1      -6.054  -0.011 -31.791  1.00  0.00     0.253 C 
HETATM   15  O   UNL     1      -6.876  -0.235 -30.910  1.00  0.00    -0.268 OA
HETATM   16  H   UNL     1      -4.602   1.240 -32.566  1.00  0.00     0.163 HD
BRANCH  14  17
HETATM   17  C   UNL     1      -5.838  -1.006 -32.872  1.00  0.00     0.049 A 
HETATM   18  C   UNL     1      -4.643  -1.704 -33.089  1.00  0.00     0.026 A 
HETATM   19 BR   UNL     1      -3.113  -1.544 -31.973  1.00  0.00    -0.050 Br
HETATM   20  C   UNL     1      -4.551  -2.614 -34.150  1.00  0.00     0.020 A 
HETATM   21  C   UNL     1      -5.646  -2.838 -34.988  1.00  0.00     0.001 A 
HETATM   22  C   UNL     1      -6.842  -2.161 -34.765  1.00  0.00     0.001 A 
HETATM   23  C   UNL     1      -6.939  -1.254 -33.709  1.00  0.00     0.018 A 
ENDBRANCH  14  17
ENDBRANCH   1  13
TORSDOF 5
ENDMDL
MODEL 10
REMARK VINA RESULT:      -6.5      4.989      7.478
REMARK  5 active torsions:
REMARK  status: ('A' for Active; 'I' for Inactive)
REMARK    1  A    between atoms: C_2  and  O_3 
REMARK    2  A    between atoms: O_3  and  C_4 
REMARK    3  A    between atoms: C_8  and  C_9 
REMARK    4  A    between atoms: C_9  and  N_10 
REMARK       I    between atoms: N_10  and  C_11 
REMARK    5  A    between atoms: C_11  and  C_12 
ROOT
HETATM    1  C   UNL     1      -3.040   3.217 -32.300  1.00  0.00     0.161 C 
ENDROOT
BRANCH   1   2
HETATM    2  C   UNL     1      -4.443   2.889 -31.876  1.00  0.00    -0.035 A 
HETATM    3  C   UNL     1      -4.817   2.978 -30.533  1.00  0.00     0.028 A 
HETATM    4  C   UNL     1      -6.112   2.637 -30.182  1.00  0.00     0.120 A 
HETATM    5  N   UNL     1      -7.042   2.210 -31.063  1.00  0.00    -0.237 NA
HETATM    6  C   UNL     1      -6.666   2.125 -32.351  1.00  0.00     0.165 A 
HETATM    7  C   UNL     1      -5.395   2.453 -32.801  1.00  0.00     0.066 A 
BRANCH   6   8
HETATM    8  O   UNL     1      -7.557   1.725 -33.319  1.00  0.00    -0.324 OA
BRANCH   8   9
HETATM    9  C   UNL     1      -7.705   0.326 -33.630  1.00  0.00     0.058 C 
HETATM   10  C   UNL     1      -6.692  -0.564 -32.895  1.00  0.00     0.045 C 
HETATM   11  C   UNL     1      -7.723   0.063 -35.143  1.00  0.00     0.045 C 
HETATM   12  C   UNL     1      -9.104  -0.021 -33.082  1.00  0.00     0.045 C 
ENDBRANCH   8   9
ENDBRANCH   6   8
ENDBRANCH   1   2
BRANCH   1  13
HETATM   13  N   UNL     1      -2.424   4.120 -31.357  1.00  0.00    -0.353 N 
HETATM   14  C   UNL     1      -1.401   4.953 -31.741  1.00  0.00     0.253 C 
HETATM   15  O   UNL     1      -1.037   5.085 -32.904  1.00  0.00    -0.268 OA
HETATM   16  H   UNL     1      -2.597   3.971 -30.372  1.00  0.00     0.163 HD
BRANCH  14  17
HETATM   17  C   UNL     1      -0.773   5.773 -30.673  1.00  0.00     0.049 A 
HETATM   18  C   UNL     1      -0.988   7.145 -30.487  1.00  0.00     0.026 A 
HETATM   19 BR   UNL     1      -2.191   8.173 -31.538  1.00  0.00    -0.050 Br
HETATM   20  C   UNL     1      -0.331   7.817 -29.448  1.00  0.00     0.020 A 
HETATM   21  C   UNL     1       0.529   7.128 -28.590  1.00  0.00     0.001 A 
HETATM   22  C   UNL     1       0.730   5.761 -28.759  1.00  0.00     0.001 A 
HETATM   23  C   UNL     1       0.079   5.086 -29.792  1.00  0.00     0.018 A 
ENDBRANCH  14  17
ENDBRANCH   1  13
TORSDOF 5
ENDMDL
