MODEL 1
REMARK VINA RESULT:      -8.2      0.000      0.000
REMARK  6 active torsions:
REMARK  status: ('A' for Active; 'I' for Inactive)
REMARK    1  A    between atoms: C_4  and  C_5 
REMARK    2  A    between atoms: C_5  and  C_6 
REMARK    3  A    between atoms: C_6  and  N_7 
REMARK       I    between atoms: N_7  and  C_8 
REMARK    4  A    between atoms: C_8  and  C_9 
REMARK    5  A    between atoms: C_12  and  N_13 
REMARK       I    between atoms: N_13  and  C_14 
REMARK       I    between atoms: C_14  and  N_15 
REMARK    6  A    between atoms: N_15  and  C_16 
ROOT
HETATM    1  C   UNL     1     -10.113   1.624 -34.190  1.00  0.00     0.032 A 
HETATM    2  C   UNL     1     -10.930   0.614 -33.671  1.00  0.00     0.019 A 
HETATM    3  C   UNL     1     -12.294   0.848 -33.459  1.00  0.00     0.030 A 
HETATM    4  C   UNL     1     -12.863   2.085 -33.769  1.00  0.00     0.036 A 
HETATM    5  C   UNL     1     -12.046   3.086 -34.312  1.00  0.00     0.030 A 
HETATM    6  C   UNL     1     -10.683   2.856 -34.525  1.00  0.00     0.019 A 
ENDROOT
BRANCH   1   7
HETATM    7  C   UNL     1      -8.653   1.431 -34.414  1.00  0.00     0.251 C 
HETATM    8  N   UNL     1      -8.284   0.312 -35.134  1.00  0.00    -0.357 N 
HETATM    9  H   UNL     1      -8.962  -0.436 -35.225  1.00  0.00     0.162 HD
HETATM   10  O   UNL     1      -7.848   2.224 -33.938  1.00  0.00    -0.268 OA
BRANCH   8  11
HETATM   11  C   UNL     1      -6.886  -0.062 -35.253  1.00  0.00     0.127 C 
BRANCH  11  12
HETATM   12  C   UNL     1      -6.359  -0.773 -34.004  1.00  0.00     0.058 C 
BRANCH  12  13
HETATM   13  C   UNL     1      -5.942  -2.207 -34.240  1.00  0.00    -0.057 A 
HETATM   14  C   UNL     1      -4.620  -2.609 -34.002  1.00  0.00     0.007 A 
HETATM   15  C   UNL     1      -4.233  -3.934 -34.210  1.00  0.00     0.001 A 
HETATM   16  C   UNL     1      -5.161  -4.870 -34.657  1.00  0.00     0.000 A 
HETATM   17  C   UNL     1      -6.479  -4.485 -34.893  1.00  0.00     0.001 A 
HETATM   18  C   UNL     1      -6.870  -3.162 -34.682  1.00  0.00     0.007 A 
ENDBRANCH  12  13
ENDBRANCH  11  12
ENDBRANCH   8  11
ENDBRANCH   1   7
BRANCH   4  19
HETATM   19  N   UNL     1     -14.219   2.408 -33.551  1.00  0.00    -0.309 N 
HETATM   20  C   UNL     1     -14.756   3.140 -32.502  1.00  0.00     0.325 C 
HETATM   21  N   UNL     1     -16.106   3.379 -32.710  1.00  0.00    -0.306 N 
HETATM   22  O   UNL     1     -14.132   3.540 -31.527  1.00  0.00    -0.247 OA
HETATM   23  H   UNL     1     -16.529   3.089 -33.577  1.00  0.00     0.171 HD
HETATM   24  H   UNL     1     -14.876   2.022 -34.210  1.00  0.00     0.170 HD
BRANCH  21  25
HETATM   25  C   UNL     1     -16.907   4.098 -31.844  1.00  0.00     0.072 A 
HETATM   26  C   UNL     1     -16.718   5.343 -31.203  1.00  0.00     0.169 A 
HETATM   27  N   UNL     1     -17.762   5.685 -30.439  1.00  0.00    -0.185 NA
HETATM   28  N   UNL     1     -18.615   4.662 -30.594  1.00  0.00    -0.287 N 
HETATM   29  H   UNL     1     -19.502   4.701 -30.103  1.00  0.00     0.188 HD
HETATM   30  C   UNL     1     -18.148   3.682 -31.423  1.00  0.00     0.140 A 
ENDBRANCH  21  25
ENDBRANCH   4  19
TORSDOF 6
ENDMDL
MODEL 2
REMARK VINA RESULT:      -8.0      3.625      4.276
REMARK  6 active torsions:
REMARK  status: ('A' for Active; 'I' for Inactive)
REMARK    1  A    between atoms: C_4  and  C_5 
REMARK    2  A    between atoms: C_5  and  C_6 
REMARK    3  A    between atoms: C_6  and  N_7 
REMARK       I    between atoms: N_7  and  C_8 
REMARK    4  A    between atoms: C_8  and  C_9 
REMARK    5  A    between atoms: C_12  and  N_13 
REMARK       I    between atoms: N_13  and  C_14 
REMARK       I    between atoms: C_14  and  N_15 
REMARK    6  A    between atoms: N_15  and  C_16 
ROOT
HETATM    1  C   UNL     1     -10.825   1.561 -33.461  1.00  0.00     0.032 A 
HETATM    2  C   UNL     1     -10.873   2.751 -32.728  1.00  0.00     0.019 A 
HETATM    3  C   UNL     1     -11.750   3.776 -33.103  1.00  0.00     0.030 A 
HETATM    4  C   UNL     1     -12.594   3.626 -34.205  1.00  0.00     0.036 A 
HETATM    5  C   UNL     1     -12.560   2.422 -34.922  1.00  0.00     0.030 A 
HETATM    6  C   UNL     1     -11.685   1.396 -34.550  1.00  0.00     0.019 A 
ENDROOT
BRANCH   1   7
HETATM    7  C   UNL     1      -9.895   0.449 -33.114  1.00  0.00     0.251 C 
HETATM    8  N   UNL     1      -8.562   0.647 -33.411  1.00  0.00    -0.357 N 
HETATM    9  H   UNL     1      -8.328   1.377 -34.075  1.00  0.00     0.162 HD
HETATM   10  O   UNL     1     -10.332  -0.587 -32.625  1.00  0.00    -0.268 OA
BRANCH   8  11
HETATM   11  C   UNL     1      -7.606  -0.438 -33.280  1.00  0.00     0.127 C 
BRANCH  11  12
HETATM   12  C   UNL     1      -7.096  -0.941 -34.633  1.00  0.00     0.058 C 
BRANCH  12  13
HETATM   13  C   UNL     1      -6.308  -2.229 -34.555  1.00  0.00    -0.057 A 
HETATM   14  C   UNL     1      -6.912  -3.450 -34.887  1.00  0.00     0.007 A 
HETATM   15  C   UNL     1      -6.185  -4.641 -34.825  1.00  0.00     0.001 A 
HETATM   16  C   UNL     1      -4.850  -4.624 -34.432  1.00  0.00     0.000 A 
HETATM   17  C   UNL     1      -4.237  -3.417 -34.103  1.00  0.00     0.001 A 
HETATM   18  C   UNL     1      -4.960  -2.225 -34.168  1.00  0.00     0.007 A 
ENDBRANCH  12  13
ENDBRANCH  11  12
ENDBRANCH   8  11
ENDBRANCH   1   7
BRANCH   4  19
HETATM   19  N   UNL     1     -13.477   4.625 -34.667  1.00  0.00    -0.309 N 
HETATM   20  C   UNL     1     -13.159   5.772 -35.378  1.00  0.00     0.325 C 
HETATM   21  N   UNL     1     -14.308   6.432 -35.786  1.00  0.00    -0.306 N 
HETATM   22  O   UNL     1     -12.023   6.155 -35.632  1.00  0.00    -0.247 OA
HETATM   23  H   UNL     1     -15.207   6.011 -35.610  1.00  0.00     0.171 HD
HETATM   24  H   UNL     1     -14.445   4.512 -34.408  1.00  0.00     0.170 HD
BRANCH  21  25
HETATM   25  C   UNL     1     -14.309   7.598 -36.528  1.00  0.00     0.072 A 
HETATM   26  C   UNL     1     -14.241   8.957 -36.146  1.00  0.00     0.169 A 
HETATM   27  N   UNL     1     -14.264   9.783 -37.198  1.00  0.00    -0.185 NA
HETATM   28  N   UNL     1     -14.344   8.953 -38.249  1.00  0.00    -0.287 N 
HETATM   29  H   UNL     1     -14.369   9.360 -39.177  1.00  0.00     0.188 HD
HETATM   30  C   UNL     1     -14.379   7.633 -37.900  1.00  0.00     0.140 A 
ENDBRANCH  21  25
ENDBRANCH   4  19
TORSDOF 6
ENDMDL
MODEL 3
REMARK VINA RESULT:      -8.0      6.184      7.784
REMARK  6 active torsions:
REMARK  status: ('A' for Active; 'I' for Inactive)
REMARK    1  A    between atoms: C_4  and  C_5 
REMARK    2  A    between atoms: C_5  and  C_6 
REMARK    3  A    between atoms: C_6  and  N_7 
REMARK       I    between atoms: N_7  and  C_8 
REMARK    4  A    between atoms: C_8  and  C_9 
REMARK    5  A    between atoms: C_12  and  N_13 
REMARK       I    between atoms: N_13  and  C_14 
REMARK       I    between atoms: C_14  and  N_15 
REMARK    6  A    between atoms: N_15  and  C_16 
ROOT
HETATM    1  C   UNL     1      -5.554   4.710 -33.947  1.00  0.00     0.032 A 
HETATM    2  C   UNL     1      -5.743   3.349 -34.204  1.00  0.00     0.019 A 
HETATM    3  C   UNL     1      -6.955   2.729 -33.874  1.00  0.00     0.030 A 
HETATM    4  C   UNL     1      -7.995   3.459 -33.294  1.00  0.00     0.036 A 
HETATM    5  C   UNL     1      -7.811   4.828 -33.062  1.00  0.00     0.030 A 
HETATM    6  C   UNL     1      -6.601   5.450 -33.390  1.00  0.00     0.019 A 
ENDROOT
BRANCH   1   7
HETATM    7  C   UNL     1      -4.277   5.410 -34.261  1.00  0.00     0.251 C 
HETATM    8  N   UNL     1      -3.664   6.070 -33.215  1.00  0.00    -0.357 N 
HETATM    9  H   UNL     1      -4.223   6.280 -32.395  1.00  0.00     0.162 HD
HETATM   10  O   UNL     1      -3.841   5.410 -35.408  1.00  0.00    -0.268 OA
BRANCH   8  11
HETATM   11  C   UNL     1      -2.517   6.928 -33.453  1.00  0.00     0.127 C 
BRANCH  11  12
HETATM   12  C   UNL     1      -1.185   6.191 -33.287  1.00  0.00     0.058 C 
BRANCH  12  13
HETATM   13  C   UNL     1      -0.636   6.220 -31.878  1.00  0.00    -0.057 A 
HETATM   14  C   UNL     1      -0.825   7.349 -31.068  1.00  0.00     0.007 A 
HETATM   15  C   UNL     1      -0.328   7.377 -29.764  1.00  0.00     0.001 A 
HETATM   16  C   UNL     1       0.364   6.280 -29.256  1.00  0.00     0.000 A 
HETATM   17  C   UNL     1       0.555   5.151 -30.050  1.00  0.00     0.001 A 
HETATM   18  C   UNL     1       0.055   5.119 -31.353  1.00  0.00     0.007 A 
ENDBRANCH  12  13
ENDBRANCH  11  12
ENDBRANCH   8  11
ENDBRANCH   1   7
BRANCH   4  19
HETATM   19  N   UNL     1      -9.229   2.900 -32.902  1.00  0.00    -0.309 N 
HETATM   20  C   UNL     1     -10.402   2.836 -33.640  1.00  0.00     0.325 C 
HETATM   21  N   UNL     1     -11.358   2.078 -32.979  1.00  0.00    -0.306 N 
HETATM   22  O   UNL     1     -10.579   3.359 -34.733  1.00  0.00    -0.247 OA
HETATM   23  H   UNL     1     -11.109   1.610 -32.122  1.00  0.00     0.171 HD
HETATM   24  H   UNL     1      -9.274   2.549 -31.958  1.00  0.00     0.170 HD
BRANCH  21  25
HETATM   25  C   UNL     1     -12.621   1.822 -33.476  1.00  0.00     0.072 A 
HETATM   26  C   UNL     1     -13.073   0.951 -34.493  1.00  0.00     0.169 A 
HETATM   27  N   UNL     1     -14.399   1.005 -34.657  1.00  0.00    -0.185 NA
HETATM   28  N   UNL     1     -14.793   1.906 -33.745  1.00  0.00    -0.287 N 
HETATM   29  H   UNL     1     -15.784   2.114 -33.676  1.00  0.00     0.188 HD
HETATM   30  C   UNL     1     -13.765   2.429 -33.015  1.00  0.00     0.140 A 
ENDBRANCH  21  25
ENDBRANCH   4  19
TORSDOF 6
ENDMDL
MODEL 4
REMARK VINA RESULT:      -8.0      6.916     10.127
REMARK  6 active torsions:
REMARK  status: ('A' for Active; 'I' for Inactive)
REMARK    1  A    between atoms: C_4  and  C_5 
REMARK    2  A    between atoms: C_5  and  C_6 
REMARK    3  A    between atoms: C_6  and  N_7 
REMARK       I    between atoms: N_7  and  C_8 
REMARK    4  A    between atoms: C_8  and  C_9 
REMARK    5  A    between atoms: C_12  and  N_13 
REMARK       I    between atoms: N_13  and  C_14 
REMARK       I    between atoms: C_14  and  N_15 
REMARK    6  A    between atoms: N_15  and  C_16 
ROOT
HETATM    1  C   UNL     1      -5.512   2.742 -33.102  1.00  0.00     0.032 A 
HETATM    2  C   UNL     1      -5.416   4.005 -33.695  1.00  0.00     0.019 A 
HETATM    3  C   UNL     1      -4.369   4.870 -33.352  1.00  0.00     0.030 A 
HETATM    4  C   UNL     1      -3.400   4.484 -32.424  1.00  0.00     0.036 A 
HETATM    5  C   UNL     1      -3.485   3.208 -31.850  1.00  0.00     0.030 A 
HETATM    6  C   UNL     1      -4.531   2.343 -32.189  1.00  0.00     0.019 A 
ENDROOT
BRANCH   1   7
HETATM    7  C   UNL     1      -6.618   1.796 -33.418  1.00  0.00     0.251 C 
HETATM    8  N   UNL     1      -6.420   0.478 -33.059  1.00  0.00    -0.357 N 
HETATM    9  H   UNL     1      -5.471   0.176 -32.869  1.00  0.00     0.162 HD
HETATM   10  O   UNL     1      -7.621   2.195 -34.000  1.00  0.00    -0.268 OA
BRANCH   8  11
HETATM   11  C   UNL     1      -7.354  -0.551 -33.482  1.00  0.00     0.127 C 
BRANCH  11  12
HETATM   12  C   UNL     1      -6.957  -1.196 -34.812  1.00  0.00     0.058 C 
BRANCH  12  13
HETATM   13  C   UNL     1      -6.177  -2.484 -34.664  1.00  0.00    -0.057 A 
HETATM   14  C   UNL     1      -4.856  -2.462 -34.196  1.00  0.00     0.007 A 
HETATM   15  C   UNL     1      -4.135  -3.648 -34.049  1.00  0.00     0.001 A 
HETATM   16  C   UNL     1      -4.727  -4.868 -34.368  1.00  0.00     0.000 A 
HETATM   17  C   UNL     1      -6.041  -4.904 -34.830  1.00  0.00     0.001 A 
HETATM   18  C   UNL     1      -6.764  -3.719 -34.974  1.00  0.00     0.007 A 
ENDBRANCH  12  13
ENDBRANCH  11  12
ENDBRANCH   8  11
ENDBRANCH   1   7
BRANCH   4  19
HETATM   19  N   UNL     1      -2.338   5.310 -32.001  1.00  0.00    -0.309 N 
HETATM   20  C   UNL     1      -2.298   6.133 -30.885  1.00  0.00     0.325 C 
HETATM   21  N   UNL     1      -1.032   6.672 -30.716  1.00  0.00    -0.306 N 
HETATM   22  O   UNL     1      -3.242   6.353 -30.135  1.00  0.00    -0.247 OA
HETATM   23  H   UNL     1      -0.286   6.378 -31.326  1.00  0.00     0.171 HD
HETATM   24  H   UNL     1      -1.532   5.338 -32.607  1.00  0.00     0.170 HD
BRANCH  21  25
HETATM   25  C   UNL     1      -0.682   7.517 -29.680  1.00  0.00     0.072 A 
HETATM   26  C   UNL     1      -1.359   8.607 -29.086  1.00  0.00     0.169 A 
HETATM   27  N   UNL     1      -0.658   9.158 -28.089  1.00  0.00    -0.185 NA
HETATM   28  N   UNL     1       0.462   8.420 -28.045  1.00  0.00    -0.287 N 
HETATM   29  H   UNL     1       1.159   8.653 -27.346  1.00  0.00     0.188 HD
HETATM   30  C   UNL     1       0.498   7.427 -28.981  1.00  0.00     0.140 A 
ENDBRANCH  21  25
ENDBRANCH   4  19
TORSDOF 6
ENDMDL
MODEL 5
REMARK VINA RESULT:      -7.9     14.129     16.717
REMARK  6 active torsions:
REMARK  status: ('A' for Active; 'I' for Inactive)
REMARK    1  A    between atoms: C_4  and  C_5 
REMARK    2  A    between atoms: C_5  and  C_6 
REMARK    3  A    between atoms: C_6  and  N_7 
REMARK       I    between atoms: N_7  and  C_8 
REMARK    4  A    between atoms: C_8  and  C_9 
REMARK    5  A    between atoms: C_12  and  N_13 
REMARK       I    between atoms: N_13  and  C_14 
REMARK       I    between atoms: C_14  and  N_15 
REMARK    6  A    between atoms: N_15  and  C_16 
ROOT
HETATM    1  C   UNL     1       1.174   8.153 -26.584  1.00  0.00     0.032 A 
HETATM    2  C   UNL     1       1.414   8.540 -27.907  1.00  0.00     0.019 A 
HETATM    3  C   UNL     1       0.855   7.816 -28.967  1.00  0.00     0.030 A 
HETATM    4  C   UNL     1       0.044   6.706 -28.724  1.00  0.00     0.036 A 
HETATM    5  C   UNL     1      -0.215   6.337 -27.398  1.00  0.00     0.030 A 
HETATM    6  C   UNL     1       0.342   7.057 -26.336  1.00  0.00     0.019 A 
ENDROOT
BRANCH   1   7
HETATM    7  C   UNL     1       1.762   8.878 -25.424  1.00  0.00     0.251 C 
HETATM    8  N   UNL     1       2.702   8.191 -24.682  1.00  0.00    -0.357 N 
HETATM    9  H   UNL     1       2.738   7.183 -24.780  1.00  0.00     0.162 HD
HETATM   10  O   UNL     1       1.380  10.011 -25.149  1.00  0.00    -0.268 OA
BRANCH   8  11
HETATM   11  C   UNL     1       3.200   8.737 -23.432  1.00  0.00     0.127 C 
BRANCH  11  12
HETATM   12  C   UNL     1       4.360   9.715 -23.637  1.00  0.00     0.058 C 
BRANCH  12  13
HETATM   13  C   UNL     1       5.728   9.083 -23.513  1.00  0.00    -0.057 A 
HETATM   14  C   UNL     1       6.854   9.719 -24.057  1.00  0.00     0.007 A 
HETATM   15  C   UNL     1       8.120   9.144 -23.938  1.00  0.00     0.001 A 
HETATM   16  C   UNL     1       8.276   7.930 -23.273  1.00  0.00     0.000 A 
HETATM   17  C   UNL     1       7.166   7.290 -22.725  1.00  0.00     0.001 A 
HETATM   18  C   UNL     1       5.900   7.865 -22.840  1.00  0.00     0.007 A 
ENDBRANCH  12  13
ENDBRANCH  11  12
ENDBRANCH   8  11
ENDBRANCH   1   7
BRANCH   4  19
HETATM   19  N   UNL     1      -0.525   5.906 -29.738  1.00  0.00    -0.309 N 
HETATM   20  C   UNL     1      -1.271   6.327 -30.829  1.00  0.00     0.325 C 
HETATM   21  N   UNL     1      -1.528   5.267 -31.686  1.00  0.00    -0.306 N 
HETATM   22  O   UNL     1      -1.645   7.476 -31.029  1.00  0.00    -0.247 OA
HETATM   23  H   UNL     1      -1.115   4.368 -31.496  1.00  0.00     0.171 HD
HETATM   24  H   UNL     1      -0.414   4.910 -29.628  1.00  0.00     0.170 HD
BRANCH  21  25
HETATM   25  C   UNL     1      -2.235   5.382 -32.868  1.00  0.00     0.072 A 
HETATM   26  C   UNL     1      -3.622   5.432 -33.134  1.00  0.00     0.169 A 
HETATM   27  N   UNL     1      -3.886   5.556 -34.439  1.00  0.00    -0.185 NA
HETATM   28  N   UNL     1      -2.670   5.588 -35.005  1.00  0.00    -0.287 N 
HETATM   29  H   UNL     1      -2.615   5.686 -36.013  1.00  0.00     0.188 HD
HETATM   30  C   UNL     1      -1.647   5.482 -34.107  1.00  0.00     0.140 A 
ENDBRANCH  21  25
ENDBRANCH   4  19
TORSDOF 6
ENDMDL
MODEL 6
REMARK VINA RESULT:      -7.9      8.176     11.451
REMARK  6 active torsions:
REMARK  status: ('A' for Active; 'I' for Inactive)
REMARK    1  A    between atoms: C_4  and  C_5 
REMARK    2  A    between atoms: C_5  and  C_6 
REMARK    3  A    between atoms: C_6  and  N_7 
REMARK       I    between atoms: N_7  and  C_8 
REMARK    4  A    between atoms: C_8  and  C_9 
REMARK    5  A    between atoms: C_12  and  N_13 
REMARK       I    between atoms: N_13  and  C_14 
REMARK       I    between atoms: C_14  and  N_15 
REMARK    6  A    between atoms: N_15  and  C_16 
ROOT
HETATM    1  C   UNL     1      -4.274   4.379 -32.912  1.00  0.00     0.032 A 
HETATM    2  C   UNL     1      -4.039   5.756 -32.965  1.00  0.00     0.019 A 
HETATM    3  C   UNL     1      -2.915   6.306 -32.336  1.00  0.00     0.030 A 
HETATM    4  C   UNL     1      -2.008   5.491 -31.656  1.00  0.00     0.036 A 
HETATM    5  C   UNL     1      -2.234   4.108 -31.626  1.00  0.00     0.030 A 
HETATM    6  C   UNL     1      -3.356   3.556 -32.253  1.00  0.00     0.019 A 
ENDROOT
BRANCH   1   7
HETATM    7  C   UNL     1      -5.466   3.749 -33.548  1.00  0.00     0.251 C 
HETATM    8  N   UNL     1      -5.757   2.456 -33.163  1.00  0.00    -0.357 N 
HETATM    9  H   UNL     1      -5.025   1.921 -32.709  1.00  0.00     0.162 HD
HETATM   10  O   UNL     1      -6.109   4.364 -34.391  1.00  0.00    -0.268 OA
BRANCH   8  11
HETATM   11  C   UNL     1      -6.783   1.693 -33.852  1.00  0.00     0.127 C 
BRANCH  11  12
HETATM   12  C   UNL     1      -7.137   0.392 -33.126  1.00  0.00     0.058 C 
BRANCH  12  13
HETATM   13  C   UNL     1      -6.333  -0.805 -33.581  1.00  0.00    -0.057 A 
HETATM   14  C   UNL     1      -6.905  -1.759 -34.435  1.00  0.00     0.007 A 
HETATM   15  C   UNL     1      -6.165  -2.861 -34.865  1.00  0.00     0.001 A 
HETATM   16  C   UNL     1      -4.846  -3.023 -34.446  1.00  0.00     0.000 A 
HETATM   17  C   UNL     1      -4.265  -2.080 -33.601  1.00  0.00     0.001 A 
HETATM   18  C   UNL     1      -5.002  -0.975 -33.173  1.00  0.00     0.007 A 
ENDBRANCH  12  13
ENDBRANCH  11  12
ENDBRANCH   8  11
ENDBRANCH   1   7
BRANCH   4  19
HETATM   19  N   UNL     1      -0.874   5.972 -30.968  1.00  0.00    -0.309 N 
HETATM   20  C   UNL     1      -0.837   6.591 -29.727  1.00  0.00     0.325 C 
HETATM   21  N   UNL     1       0.472   6.785 -29.314  1.00  0.00    -0.306 N 
HETATM   22  O   UNL     1      -1.818   6.914 -29.069  1.00  0.00    -0.247 OA
HETATM   23  H   UNL     1       1.225   6.417 -29.873  1.00  0.00     0.171 HD
HETATM   24  H   UNL     1       0.004   5.898 -31.459  1.00  0.00     0.170 HD
BRANCH  21  25
HETATM   25  C   UNL     1       0.826   7.364 -28.110  1.00  0.00     0.072 A 
HETATM   26  C   UNL     1       0.647   6.939 -26.774  1.00  0.00     0.169 A 
HETATM   27  N   UNL     1       1.153   7.808 -25.892  1.00  0.00    -0.185 NA
HETATM   28  N   UNL     1       1.655   8.784 -26.663  1.00  0.00    -0.287 N 
HETATM   29  H   UNL     1       2.106   9.569 -26.206  1.00  0.00     0.188 HD
HETATM   30  C   UNL     1       1.481   8.567 -28.000  1.00  0.00     0.140 A 
ENDBRANCH  21  25
ENDBRANCH   4  19
TORSDOF 6
ENDMDL
MODEL 7
REMARK VINA RESULT:      -7.9      6.504      8.412
REMARK  6 active torsions:
REMARK  status: ('A' for Active; 'I' for Inactive)
REMARK    1  A    between atoms: C_4  and  C_5 
REMARK    2  A    between atoms: C_5  and  C_6 
REMARK    3  A    between atoms: C_6  and  N_7 
REMARK       I    between atoms: N_7  and  C_8 
REMARK    4  A    between atoms: C_8  and  C_9 
REMARK    5  A    between atoms: C_12  and  N_13 
REMARK       I    between atoms: N_13  and  C_14 
REMARK       I    between atoms: C_14  and  N_15 
REMARK    6  A    between atoms: N_15  and  C_16 
ROOT
HETATM    1  C   UNL     1      -4.495   3.754 -32.277  1.00  0.00     0.032 A 
HETATM    2  C   UNL     1      -5.469   4.575 -31.700  1.00  0.00     0.019 A 
HETATM    3  C   UNL     1      -6.802   4.148 -31.631  1.00  0.00     0.030 A 
HETATM    4  C   UNL     1      -7.177   2.898 -32.127  1.00  0.00     0.036 A 
HETATM    5  C   UNL     1      -6.193   2.069 -32.682  1.00  0.00     0.030 A 
HETATM    6  C   UNL     1      -4.861   2.492 -32.752  1.00  0.00     0.019 A 
ENDROOT
BRANCH   1   7
HETATM    7  C   UNL     1      -3.069   4.171 -32.391  1.00  0.00     0.251 C 
HETATM    8  N   UNL     1      -2.762   5.035 -33.423  1.00  0.00    -0.357 N 
HETATM    9  H   UNL     1      -3.425   5.116 -34.186  1.00  0.00     0.162 HD
HETATM   10  O   UNL     1      -2.233   3.722 -31.614  1.00  0.00    -0.268 OA
BRANCH   8  11
HETATM   11  C   UNL     1      -1.380   5.358 -33.730  1.00  0.00     0.127 C 
BRANCH  11  12
HETATM   12  C   UNL     1      -1.046   6.829 -33.468  1.00  0.00     0.058 C 
BRANCH  12  13
HETATM   13  C   UNL     1      -0.877   7.172 -32.005  1.00  0.00    -0.057 A 
HETATM   14  C   UNL     1       0.242   6.713 -31.296  1.00  0.00     0.007 A 
HETATM   15  C   UNL     1       0.407   7.035 -29.947  1.00  0.00     0.001 A 
HETATM   16  C   UNL     1      -0.542   7.817 -29.294  1.00  0.00     0.000 A 
HETATM   17  C   UNL     1      -1.656   8.283 -29.990  1.00  0.00     0.001 A 
HETATM   18  C   UNL     1      -1.822   7.966 -31.339  1.00  0.00     0.007 A 
ENDBRANCH  12  13
ENDBRANCH  11  12
ENDBRANCH   8  11
ENDBRANCH   1   7
BRANCH   4  19
HETATM   19  N   UNL     1      -8.502   2.413 -32.127  1.00  0.00    -0.309 N 
HETATM   20  C   UNL     1      -9.519   2.731 -33.015  1.00  0.00     0.325 C 
HETATM   21  N   UNL     1     -10.635   1.941 -32.786  1.00  0.00    -0.306 N 
HETATM   22  O   UNL     1      -9.449   3.579 -33.895  1.00  0.00    -0.247 OA
HETATM   23  H   UNL     1     -10.587   1.206 -32.098  1.00  0.00     0.171 HD
HETATM   24  H   UNL     1      -8.748   1.801 -31.365  1.00  0.00     0.170 HD
BRANCH  21  25
HETATM   25  C   UNL     1     -11.801   2.016 -33.525  1.00  0.00     0.072 A 
HETATM   26  C   UNL     1     -12.173   1.431 -34.757  1.00  0.00     0.169 A 
HETATM   27  N   UNL     1     -13.417   1.761 -35.121  1.00  0.00    -0.185 NA
HETATM   28  N   UNL     1     -13.838   2.553 -34.124  1.00  0.00    -0.287 N 
HETATM   29  H   UNL     1     -14.779   2.929 -34.178  1.00  0.00     0.188 HD
HETATM   30  C   UNL     1     -12.905   2.740 -33.145  1.00  0.00     0.140 A 
ENDBRANCH  21  25
ENDBRANCH   4  19
TORSDOF 6
ENDMDL
MODEL 8
REMARK VINA RESULT:      -7.9      0.719      1.232
REMARK  6 active torsions:
REMARK  status: ('A' for Active; 'I' for Inactive)
REMARK    1  A    between atoms: C_4  and  C_5 
REMARK    2  A    between atoms: C_5  and  C_6 
REMARK    3  A    between atoms: C_6  and  N_7 
REMARK       I    between atoms: N_7  and  C_8 
REMARK    4  A    between atoms: C_8  and  C_9 
REMARK    5  A    between atoms: C_12  and  N_13 
REMARK       I    between atoms: N_13  and  C_14 
REMARK       I    between atoms: C_14  and  N_15 
REMARK    6  A    between atoms: N_15  and  C_16 
ROOT
HETATM    1  C   UNL     1      -9.967   2.265 -34.214  1.00  0.00     0.032 A 
HETATM    2  C   UNL     1     -11.068   1.403 -34.179  1.00  0.00     0.019 A 
HETATM    3  C   UNL     1     -12.362   1.915 -34.026  1.00  0.00     0.030 A 
HETATM    4  C   UNL     1     -12.577   3.291 -33.916  1.00  0.00     0.036 A 
HETATM    5  C   UNL     1     -11.474   4.153 -33.977  1.00  0.00     0.030 A 
HETATM    6  C   UNL     1     -10.180   3.645 -34.129  1.00  0.00     0.019 A 
ENDROOT
BRANCH   1   7
HETATM    7  C   UNL     1      -8.570   1.768 -34.355  1.00  0.00     0.251 C 
HETATM    8  N   UNL     1      -8.399   0.617 -35.098  1.00  0.00    -0.357 N 
HETATM    9  H   UNL     1      -9.212   0.036 -35.264  1.00  0.00     0.162 HD
HETATM   10  O   UNL     1      -7.649   2.354 -33.795  1.00  0.00    -0.268 OA
BRANCH   8  11
HETATM   11  C   UNL     1      -7.108  -0.047 -35.145  1.00  0.00     0.127 C 
BRANCH  11  12
HETATM   12  C   UNL     1      -6.832  -0.887 -33.895  1.00  0.00     0.058 C 
BRANCH  12  13
HETATM   13  C   UNL     1      -6.218  -2.238 -34.184  1.00  0.00    -0.057 A 
HETATM   14  C   UNL     1      -7.019  -3.301 -34.625  1.00  0.00     0.007 A 
HETATM   15  C   UNL     1      -6.455  -4.548 -34.902  1.00  0.00     0.001 A 
HETATM   16  C   UNL     1      -5.086  -4.745 -34.741  1.00  0.00     0.000 A 
HETATM   17  C   UNL     1      -4.278  -3.696 -34.307  1.00  0.00     0.001 A 
HETATM   18  C   UNL     1      -4.839  -2.448 -34.034  1.00  0.00     0.007 A 
ENDBRANCH  12  13
ENDBRANCH  11  12
ENDBRANCH   8  11
ENDBRANCH   1   7
BRANCH   4  19
HETATM   19  N   UNL     1     -13.844   3.880 -33.724  1.00  0.00    -0.309 N 
HETATM   20  C   UNL     1     -14.549   4.002 -32.536  1.00  0.00     0.325 C 
HETATM   21  N   UNL     1     -15.688   4.773 -32.717  1.00  0.00    -0.306 N 
HETATM   22  O   UNL     1     -14.216   3.515 -31.463  1.00  0.00    -0.247 OA
HETATM   23  H   UNL     1     -15.850   5.209 -33.610  1.00  0.00     0.171 HD
HETATM   24  H   UNL     1     -14.310   4.207 -34.557  1.00  0.00     0.170 HD
BRANCH  21  25
HETATM   25  C   UNL     1     -16.580   5.084 -31.708  1.00  0.00     0.072 A 
HETATM   26  C   UNL     1     -16.544   6.063 -30.690  1.00  0.00     0.169 A 
HETATM   27  N   UNL     1     -17.632   6.029 -29.913  1.00  0.00    -0.185 NA
HETATM   28  N   UNL     1     -18.362   5.033 -30.436  1.00  0.00    -0.287 N 
HETATM   29  H   UNL     1     -19.256   4.819 -30.006  1.00  0.00     0.188 HD
HETATM   30  C   UNL     1     -17.773   4.431 -31.511  1.00  0.00     0.140 A 
ENDBRANCH  21  25
ENDBRANCH   4  19
TORSDOF 6
ENDMDL
MODEL 9
REMARK VINA RESULT:      -7.7      5.864      6.365
REMARK  6 active torsions:
REMARK  status: ('A' for Active; 'I' for Inactive)
REMARK    1  A    between atoms: C_4  and  C_5 
REMARK    2  A    between atoms: C_5  and  C_6 
REMARK    3  A    between atoms: C_6  and  N_7 
REMARK       I    between atoms: N_7  and  C_8 
REMARK    4  A    between atoms: C_8  and  C_9 
REMARK    5  A    between atoms: C_12  and  N_13 
REMARK       I    between atoms: N_13  and  C_14 
REMARK       I    between atoms: C_14  and  N_15 
REMARK    6  A    between atoms: N_15  and  C_16 
ROOT
HETATM    1  C   UNL     1      -6.541   3.138 -31.424  1.00  0.00     0.032 A 
HETATM    2  C   UNL     1      -6.654   4.442 -31.916  1.00  0.00     0.019 A 
HETATM    3  C   UNL     1      -7.484   5.370 -31.274  1.00  0.00     0.030 A 
HETATM    4  C   UNL     1      -8.203   5.013 -30.131  1.00  0.00     0.036 A 
HETATM    5  C   UNL     1      -8.068   3.713 -29.627  1.00  0.00     0.030 A 
HETATM    6  C   UNL     1      -7.240   2.784 -30.266  1.00  0.00     0.019 A 
ENDROOT
BRANCH   1   7
HETATM    7  C   UNL     1      -5.688   2.110 -32.083  1.00  0.00     0.251 C 
HETATM    8  N   UNL     1      -6.172   0.817 -32.083  1.00  0.00    -0.357 N 
HETATM    9  H   UNL     1      -6.906   0.586 -31.423  1.00  0.00     0.162 HD
HETATM   10  O   UNL     1      -4.601   2.425 -32.557  1.00  0.00    -0.268 OA
BRANCH   8  11
HETATM   11  C   UNL     1      -5.340  -0.283 -32.537  1.00  0.00     0.127 C 
BRANCH  11  12
HETATM   12  C   UNL     1      -5.624  -0.677 -33.989  1.00  0.00     0.058 C 
BRANCH  12  13
HETATM   13  C   UNL     1      -5.569  -2.166 -34.246  1.00  0.00    -0.057 A 
HETATM   14  C   UNL     1      -4.380  -2.878 -34.034  1.00  0.00     0.007 A 
HETATM   15  C   UNL     1      -4.327  -4.254 -34.262  1.00  0.00     0.001 A 
HETATM   16  C   UNL     1      -5.460  -4.933 -34.703  1.00  0.00     0.000 A 
HETATM   17  C   UNL     1      -6.649  -4.238 -34.913  1.00  0.00     0.001 A 
HETATM   18  C   UNL     1      -6.706  -2.863 -34.682  1.00  0.00     0.007 A 
ENDBRANCH  12  13
ENDBRANCH  11  12
ENDBRANCH   8  11
ENDBRANCH   1   7
BRANCH   4  19
HETATM   19  N   UNL     1      -9.085   5.879 -29.451  1.00  0.00    -0.309 N 
HETATM   20  C   UNL     1      -8.832   6.612 -28.301  1.00  0.00     0.325 C 
HETATM   21  N   UNL     1      -9.890   7.463 -28.018  1.00  0.00    -0.306 N 
HETATM   22  O   UNL     1      -7.812   6.540 -27.627  1.00  0.00    -0.247 OA
HETATM   23  H   UNL     1     -10.659   7.526 -28.667  1.00  0.00     0.171 HD
HETATM   24  H   UNL     1     -10.022   5.932 -29.819  1.00  0.00     0.170 HD
BRANCH  21  25
HETATM   25  C   UNL     1      -9.919   8.331 -26.943  1.00  0.00     0.072 A 
HETATM   26  C   UNL     1      -9.291   9.578 -26.724  1.00  0.00     0.169 A 
HETATM   27  N   UNL     1      -9.595  10.098 -25.530  1.00  0.00    -0.185 NA
HETATM   28  N   UNL     1     -10.417   9.186 -24.989  1.00  0.00    -0.287 N 
HETATM   29  H   UNL     1     -10.791   9.370 -24.064  1.00  0.00     0.188 HD
HETATM   30  C   UNL     1     -10.639   8.106 -25.795  1.00  0.00     0.140 A 
ENDBRANCH  21  25
ENDBRANCH   4  19
TORSDOF 6
ENDMDL
MODEL 10
REMARK VINA RESULT:      -7.7     10.961     13.694
REMARK  6 active torsions:
REMARK  status: ('A' for Active; 'I' for Inactive)
REMARK    1  A    between atoms: C_4  and  C_5 
REMARK    2  A    between atoms: C_5  and  C_6 
REMARK    3  A    between atoms: C_6  and  N_7 
REMARK       I    between atoms: N_7  and  C_8 
REMARK    4  A    between atoms: C_8  and  C_9 
REMARK    5  A    between atoms: C_12  and  N_13 
REMARK       I    between atoms: N_13  and  C_14 
REMARK       I    between atoms: C_14  and  N_15 
REMARK    6  A    between atoms: N_15  and  C_16 
ROOT
HETATM    1  C   UNL     1      -1.146   5.431 -30.889  1.00  0.00     0.032 A 
HETATM    2  C   UNL     1       0.023   4.941 -30.298  1.00  0.00     0.019 A 
HETATM    3  C   UNL     1       0.788   5.763 -29.460  1.00  0.00     0.030 A 
HETATM    4  C   UNL     1       0.393   7.075 -29.193  1.00  0.00     0.036 A 
HETATM    5  C   UNL     1      -0.792   7.554 -29.768  1.00  0.00     0.030 A 
HETATM    6  C   UNL     1      -1.558   6.736 -30.606  1.00  0.00     0.019 A 
ENDROOT
BRANCH   1   7
HETATM    7  C   UNL     1      -1.982   4.603 -31.803  1.00  0.00     0.251 C 
HETATM    8  N   UNL     1      -2.940   3.807 -31.209  1.00  0.00    -0.357 N 
HETATM    9  H   UNL     1      -2.845   3.612 -30.218  1.00  0.00     0.162 HD
HETATM   10  O   UNL     1      -1.778   4.626 -33.013  1.00  0.00    -0.268 OA
BRANCH   8  11
HETATM   11  C   UNL     1      -3.680   2.833 -31.991  1.00  0.00     0.127 C 
BRANCH  11  12
HETATM   12  C   UNL     1      -3.455   1.397 -31.512  1.00  0.00     0.058 C 
BRANCH  12  13
HETATM   13  C   UNL     1      -4.103   0.346 -32.385  1.00  0.00    -0.057 A 
HETATM   14  C   UNL     1      -3.542  -0.935 -32.485  1.00  0.00     0.007 A 
HETATM   15  C   UNL     1      -4.141  -1.912 -33.283  1.00  0.00     0.001 A 
HETATM   16  C   UNL     1      -5.306  -1.619 -33.987  1.00  0.00     0.000 A 
HETATM   17  C   UNL     1      -5.876  -0.351 -33.893  1.00  0.00     0.001 A 
HETATM   18  C   UNL     1      -5.281   0.626 -33.093  1.00  0.00     0.007 A 
ENDBRANCH  12  13
ENDBRANCH  11  12
ENDBRANCH   8  11
ENDBRANCH   1   7
BRANCH   4  19
HETATM   19  N   UNL     1       1.127   7.973 -28.390  1.00  0.00    -0.309 N 
HETATM   20  C   UNL     1       1.052   8.134 -27.014  1.00  0.00     0.325 C 
HETATM   21  N   UNL     1       2.035   9.004 -26.567  1.00  0.00    -0.306 N 
HETATM   22  O   UNL     1       0.244   7.578 -26.281  1.00  0.00    -0.247 OA
HETATM   23  H   UNL     1       2.716   9.356 -27.220  1.00  0.00     0.171 HD
HETATM   24  H   UNL     1       1.743   8.602 -28.881  1.00  0.00     0.170 HD
BRANCH  21  25
HETATM   25  C   UNL     1       2.220   9.345 -25.241  1.00  0.00     0.072 A 
HETATM   26  C   UNL     1       3.087   8.832 -24.249  1.00  0.00     0.169 A 
HETATM   27  N   UNL     1       2.949   9.463 -23.078  1.00  0.00    -0.185 NA
HETATM   28  N   UNL     1       1.999  10.377 -23.321  1.00  0.00    -0.287 N 
HETATM   29  H   UNL     1       1.724  10.993 -22.563  1.00  0.00     0.188 HD
HETATM   30  C   UNL     1       1.526  10.345 -24.602  1.00  0.00     0.140 A 
ENDBRANCH  21  25
ENDBRANCH   4  19
TORSDOF 6
ENDMDL
