MODEL 1
REMARK VINA RESULT:      -7.7      0.000      0.000
REMARK  10 active torsions:
REMARK  status: ('A' for Active; 'I' for Inactive)
REMARK    1  A    between atoms: C_2  and  C_3 
REMARK    2  A    between atoms: C_3  and  C_4 
REMARK       I    between atoms: C_4  and  N_5 
REMARK    3  A    between atoms: N_5  and  C_6 
REMARK    4  A    between atoms: C_6  and  N_7 
REMARK    5  A    between atoms: C_6  and  C_21 
REMARK    6  A    between atoms: N_7  and  C_8 
REMARK    7  A    between atoms: C_8  and  N_9 
REMARK    8  A    between atoms: N_9  and  N_10 
REMARK       I    between atoms: N_10  and  C_11 
REMARK    9  A    between atoms: C_11  and  C_12 
REMARK   10  A    between atoms: C_13  and  O_14 
ROOT
HETATM    1  C   UNL     1      -3.969   3.109 -31.042  1.00  0.00     0.188 C 
HETATM    2  S   UNL     1      -5.435   2.862 -30.271  1.00  0.00    -0.039 SA
ENDROOT
BRANCH   1   3
HETATM    3  N   UNL     1      -3.365   4.312 -30.879  1.00  0.00    -0.341 N 
HETATM    4  H   UNL     1      -3.970   5.030 -30.487  1.00  0.00     0.164 HD
BRANCH   3   5
HETATM    5  C   UNL     1      -2.112   4.832 -31.418  1.00  0.00     0.241 C 
BRANCH   5   6
HETATM    6  N   UNL     1      -1.381   5.446 -30.313  1.00  0.00    -0.336 N 
HETATM    7  C   UNL     1      -0.044   5.261 -30.088  1.00  0.00     0.219 C 
HETATM    8  O   UNL     1       0.657   4.564 -30.811  1.00  0.00    -0.274 OA
HETATM    9  H   UNL     1      -1.870   6.136 -29.757  1.00  0.00     0.164 HD
BRANCH   7  10
HETATM   10  C   UNL     1       0.512   6.007 -28.893  1.00  0.00     0.102 C 
BRANCH  10  11
HETATM   11  C   UNL     1       0.574   7.517 -29.108  1.00  0.00     0.005 C 
HETATM   12  C   UNL     1       1.276   8.262 -27.982  1.00  0.00     0.005 C 
ENDBRANCH  10  11
ENDBRANCH   7  10
ENDBRANCH   5   6
BRANCH   5  13
HETATM   13  C   UNL     1      -2.253   5.673 -32.766  1.00  0.00     0.226 C 
HETATM   14 CL   UNL     1      -1.950   4.637 -34.210  1.00  0.00    -0.080 Cl
HETATM   15 CL   UNL     1      -3.959   6.273 -32.917  1.00  0.00    -0.080 Cl
HETATM   16 CL   UNL     1      -1.197   7.117 -32.849  1.00  0.00    -0.080 Cl
ENDBRANCH   5  13
ENDBRANCH   3   5
ENDBRANCH   1   3
BRANCH   1  17
HETATM   17  N   UNL     1      -3.347   2.183 -31.834  1.00  0.00    -0.274 N 
HETATM   18  H   UNL     1      -2.400   1.853 -31.660  1.00  0.00     0.189 HD
BRANCH  17  19
HETATM   19  N   UNL     1      -4.102   1.295 -32.613  1.00  0.00    -0.264 N 
HETATM   20  C   UNL     1      -4.009  -0.053 -32.337  1.00  0.00     0.272 C 
HETATM   21  O   UNL     1      -3.240  -0.503 -31.487  1.00  0.00    -0.266 OA
HETATM   22  H   UNL     1      -4.640   1.698 -33.376  1.00  0.00     0.190 HD
BRANCH  20  23
HETATM   23  C   UNL     1      -4.859  -0.973 -33.136  1.00  0.00     0.066 A 
HETATM   24  C   UNL     1      -6.237  -0.725 -33.239  1.00  0.00     0.081 A 
HETATM   25  C   UNL     1      -7.058  -1.578 -33.974  1.00  0.00     0.037 A 
HETATM   26  C   UNL     1      -6.508  -2.677 -34.634  1.00  0.00     0.003 A 
HETATM   27  C   UNL     1      -5.137  -2.919 -34.564  1.00  0.00     0.001 A 
HETATM   28  C   UNL     1      -4.312  -2.070 -33.819  1.00  0.00     0.020 A 
BRANCH  24  29
HETATM   29  O   UNL     1      -6.854   0.341 -32.642  1.00  0.00    -0.360 OA
HETATM   30  H   UNL     1      -6.859   1.087 -33.281  1.00  0.00     0.217 HD
ENDBRANCH  24  29
ENDBRANCH  20  23
ENDBRANCH  17  19
ENDBRANCH   1  17
TORSDOF 10
ENDMDL
MODEL 2
REMARK VINA RESULT:      -7.3      3.418      8.564
REMARK  10 active torsions:
REMARK  status: ('A' for Active; 'I' for Inactive)
REMARK    1  A    between atoms: C_2  and  C_3 
REMARK    2  A    between atoms: C_3  and  C_4 
REMARK       I    between atoms: C_4  and  N_5 
REMARK    3  A    between atoms: N_5  and  C_6 
REMARK    4  A    between atoms: C_6  and  N_7 
REMARK    5  A    between atoms: C_6  and  C_21 
REMARK    6  A    between atoms: N_7  and  C_8 
REMARK    7  A    between atoms: C_8  and  N_9 
REMARK    8  A    between atoms: N_9  and  N_10 
REMARK       I    between atoms: N_10  and  C_11 
REMARK    9  A    between atoms: C_11  and  C_12 
REMARK   10  A    between atoms: C_13  and  O_14 
ROOT
HETATM    1  C   UNL     1      -6.669   3.941 -33.882  1.00  0.00     0.188 C 
HETATM    2  S   UNL     1      -7.744   5.128 -33.394  1.00  0.00    -0.039 SA
ENDROOT
BRANCH   1   3
HETATM    3  N   UNL     1      -7.061   2.649 -33.771  1.00  0.00    -0.341 N 
HETATM    4  H   UNL     1      -7.994   2.466 -34.136  1.00  0.00     0.164 HD
BRANCH   3   5
HETATM    5  C   UNL     1      -6.516   1.550 -32.981  1.00  0.00     0.241 C 
BRANCH   5   6
HETATM    6  N   UNL     1      -6.974   0.304 -33.589  1.00  0.00    -0.336 N 
HETATM    7  C   UNL     1      -6.136  -0.699 -33.997  1.00  0.00     0.219 C 
HETATM    8  O   UNL     1      -4.919  -0.633 -33.874  1.00  0.00    -0.274 OA
HETATM    9  H   UNL     1      -7.971   0.129 -33.598  1.00  0.00     0.164 HD
BRANCH   7  10
HETATM   10  C   UNL     1      -6.828  -1.910 -34.585  1.00  0.00     0.102 C 
BRANCH  10  11
HETATM   11  C   UNL     1      -5.889  -3.099 -34.777  1.00  0.00     0.005 C 
HETATM   12  C   UNL     1      -6.604  -4.374 -35.200  1.00  0.00     0.005 C 
ENDBRANCH  10  11
ENDBRANCH   7  10
ENDBRANCH   5   6
BRANCH   5  13
HETATM   13  C   UNL     1      -6.682   1.705 -31.402  1.00  0.00     0.226 C 
HETATM   14 CL   UNL     1      -8.323   2.319 -30.980  1.00  0.00    -0.080 Cl
HETATM   15 CL   UNL     1      -6.532   0.072 -30.625  1.00  0.00    -0.080 Cl
HETATM   16 CL   UNL     1      -5.448   2.750 -30.630  1.00  0.00    -0.080 Cl
ENDBRANCH   5  13
ENDBRANCH   3   5
ENDBRANCH   1   3
BRANCH   1  17
HETATM   17  N   UNL     1      -5.416   4.189 -34.375  1.00  0.00    -0.274 N 
HETATM   18  H   UNL     1      -5.246   4.468 -35.338  1.00  0.00     0.189 HD
BRANCH  17  19
HETATM   19  N   UNL     1      -4.371   4.541 -33.509  1.00  0.00    -0.264 N 
HETATM   20  C   UNL     1      -3.244   5.121 -34.053  1.00  0.00     0.272 C 
HETATM   21  O   UNL     1      -3.097   5.272 -35.266  1.00  0.00    -0.266 OA
HETATM   22  H   UNL     1      -4.487   4.301 -32.528  1.00  0.00     0.190 HD
BRANCH  20  23
HETATM   23  C   UNL     1      -2.171   5.540 -33.113  1.00  0.00     0.066 A 
HETATM   24  C   UNL     1      -1.508   6.760 -33.322  1.00  0.00     0.081 A 
HETATM   25  C   UNL     1      -0.492   7.171 -32.461  1.00  0.00     0.037 A 
HETATM   26  C   UNL     1      -0.143   6.378 -31.368  1.00  0.00     0.003 A 
HETATM   27  C   UNL     1      -0.812   5.179 -31.133  1.00  0.00     0.001 A 
HETATM   28  C   UNL     1      -1.825   4.758 -32.001  1.00  0.00     0.020 A 
BRANCH  24  29
HETATM   29  O   UNL     1      -1.804   7.608 -34.355  1.00  0.00    -0.360 OA
HETATM   30  H   UNL     1      -1.809   8.525 -34.005  1.00  0.00     0.217 HD
ENDBRANCH  24  29
ENDBRANCH  20  23
ENDBRANCH  17  19
ENDBRANCH   1  17
TORSDOF 10
ENDMDL
MODEL 3
REMARK VINA RESULT:      -7.2      5.209      8.652
REMARK  10 active torsions:
REMARK  status: ('A' for Active; 'I' for Inactive)
REMARK    1  A    between atoms: C_2  and  C_3 
REMARK    2  A    between atoms: C_3  and  C_4 
REMARK       I    between atoms: C_4  and  N_5 
REMARK    3  A    between atoms: N_5  and  C_6 
REMARK    4  A    between atoms: C_6  and  N_7 
REMARK    5  A    between atoms: C_6  and  C_21 
REMARK    6  A    between atoms: N_7  and  C_8 
REMARK    7  A    between atoms: C_8  and  N_9 
REMARK    8  A    between atoms: N_9  and  N_10 
REMARK       I    between atoms: N_10  and  C_11 
REMARK    9  A    between atoms: C_11  and  C_12 
REMARK   10  A    between atoms: C_13  and  O_14 
ROOT
HETATM    1  C   UNL     1      -8.316   0.700 -32.147  1.00  0.00     0.188 C 
HETATM    2  S   UNL     1      -8.528   2.209 -31.452  1.00  0.00    -0.039 SA
ENDROOT
BRANCH   1   3
HETATM    3  N   UNL     1      -7.184   0.019 -31.845  1.00  0.00    -0.341 N 
HETATM    4  H   UNL     1      -7.301  -0.675 -31.109  1.00  0.00     0.164 HD
BRANCH   3   5
HETATM    5  C   UNL     1      -5.789   0.289 -32.176  1.00  0.00     0.241 C 
BRANCH   5   6
HETATM    6  N   UNL     1      -5.252  -0.906 -32.821  1.00  0.00    -0.336 N 
HETATM    7  C   UNL     1      -5.698  -1.390 -34.021  1.00  0.00     0.219 C 
HETATM    8  O   UNL     1      -6.590  -0.847 -34.662  1.00  0.00    -0.274 OA
HETATM    9  H   UNL     1      -4.427  -1.325 -32.412  1.00  0.00     0.164 HD
BRANCH   7  10
HETATM   10  C   UNL     1      -4.987  -2.633 -34.513  1.00  0.00     0.102 C 
BRANCH  10  11
HETATM   11  C   UNL     1      -5.832  -3.461 -35.478  1.00  0.00     0.005 C 
HETATM   12  C   UNL     1      -6.760  -4.445 -34.780  1.00  0.00     0.005 C 
ENDBRANCH  10  11
ENDBRANCH   7  10
ENDBRANCH   5   6
BRANCH   5  13
HETATM   13  C   UNL     1      -4.930   0.943 -31.001  1.00  0.00     0.226 C 
HETATM   14 CL   UNL     1      -4.868   2.737 -31.166  1.00  0.00    -0.080 Cl
HETATM   15 CL   UNL     1      -5.738   0.603 -29.413  1.00  0.00    -0.080 Cl
HETATM   16 CL   UNL     1      -3.260   0.309 -30.869  1.00  0.00    -0.080 Cl
ENDBRANCH   5  13
ENDBRANCH   3   5
ENDBRANCH   1   3
BRANCH   1  17
HETATM   17  N   UNL     1      -9.203   0.115 -33.009  1.00  0.00    -0.274 N 
HETATM   18  H   UNL     1      -8.985  -0.723 -33.544  1.00  0.00     0.189 HD
BRANCH  17  19
HETATM   19  N   UNL     1     -10.581   0.323 -32.857  1.00  0.00    -0.264 N 
HETATM   20  C   UNL     1     -11.229   1.102 -33.793  1.00  0.00     0.272 C 
HETATM   21  O   UNL     1     -10.632   1.672 -34.707  1.00  0.00    -0.266 OA
HETATM   22  H   UNL     1     -11.017  -0.076 -32.029  1.00  0.00     0.190 HD
BRANCH  20  23
HETATM   23  C   UNL     1     -12.699   1.264 -33.647  1.00  0.00     0.066 A 
HETATM   24  C   UNL     1     -13.202   2.226 -32.757  1.00  0.00     0.081 A 
HETATM   25  C   UNL     1     -14.576   2.392 -32.595  1.00  0.00     0.037 A 
HETATM   26  C   UNL     1     -15.464   1.613 -33.337  1.00  0.00     0.003 A 
HETATM   27  C   UNL     1     -14.978   0.674 -34.245  1.00  0.00     0.001 A 
HETATM   28  C   UNL     1     -13.599   0.499 -34.403  1.00  0.00     0.020 A 
BRANCH  24  29
HETATM   29  O   UNL     1     -12.403   3.046 -32.007  1.00  0.00    -0.360 OA
HETATM   30  H   UNL     1     -11.951   2.497 -31.330  1.00  0.00     0.217 HD
ENDBRANCH  24  29
ENDBRANCH  20  23
ENDBRANCH  17  19
ENDBRANCH   1  17
TORSDOF 10
ENDMDL
MODEL 4
REMARK VINA RESULT:      -7.2      3.159      8.590
REMARK  10 active torsions:
REMARK  status: ('A' for Active; 'I' for Inactive)
REMARK    1  A    between atoms: C_2  and  C_3 
REMARK    2  A    between atoms: C_3  and  C_4 
REMARK       I    between atoms: C_4  and  N_5 
REMARK    3  A    between atoms: N_5  and  C_6 
REMARK    4  A    between atoms: C_6  and  N_7 
REMARK    5  A    between atoms: C_6  and  C_21 
REMARK    6  A    between atoms: N_7  and  C_8 
REMARK    7  A    between atoms: C_8  and  N_9 
REMARK    8  A    between atoms: N_9  and  N_10 
REMARK       I    between atoms: N_10  and  C_11 
REMARK    9  A    between atoms: C_11  and  C_12 
REMARK   10  A    between atoms: C_13  and  O_14 
ROOT
HETATM    1  C   UNL     1      -5.320   2.856 -32.310  1.00  0.00     0.188 C 
HETATM    2  S   UNL     1      -6.061   4.301 -31.903  1.00  0.00    -0.039 SA
ENDROOT
BRANCH   1   3
HETATM    3  N   UNL     1      -6.018   1.981 -33.075  1.00  0.00    -0.341 N 
HETATM    4  H   UNL     1      -6.030   2.214 -34.066  1.00  0.00     0.164 HD
BRANCH   3   5
HETATM    5  C   UNL     1      -6.975   0.943 -32.707  1.00  0.00     0.241 C 
BRANCH   5   6
HETATM    6  N   UNL     1      -6.655  -0.246 -33.492  1.00  0.00    -0.336 N 
HETATM    7  C   UNL     1      -5.477  -0.936 -33.386  1.00  0.00     0.219 C 
HETATM    8  O   UNL     1      -4.590  -0.611 -32.607  1.00  0.00    -0.274 OA
HETATM    9  H   UNL     1      -7.394  -0.644 -34.057  1.00  0.00     0.164 HD
BRANCH   7  10
HETATM   10  C   UNL     1      -5.364  -2.150 -34.284  1.00  0.00     0.102 C 
BRANCH  10  11
HETATM   11  C   UNL     1      -6.714  -2.795 -34.589  1.00  0.00     0.005 C 
HETATM   12  C   UNL     1      -6.614  -4.268 -34.957  1.00  0.00     0.005 C 
ENDBRANCH  10  11
ENDBRANCH   7  10
ENDBRANCH   5   6
BRANCH   5  13
HETATM   13  C   UNL     1      -8.499   1.412 -32.665  1.00  0.00     0.226 C 
HETATM   14 CL   UNL     1      -8.865   2.545 -34.018  1.00  0.00    -0.080 Cl
HETATM   15 CL   UNL     1      -9.572  -0.032 -32.904  1.00  0.00    -0.080 Cl
HETATM   16 CL   UNL     1      -8.996   2.165 -31.118  1.00  0.00    -0.080 Cl
ENDBRANCH   5  13
ENDBRANCH   3   5
ENDBRANCH   1   3
BRANCH   1  17
HETATM   17  N   UNL     1      -4.061   2.494 -31.913  1.00  0.00    -0.274 N 
HETATM   18  H   UNL     1      -3.553   1.716 -32.327  1.00  0.00     0.189 HD
BRANCH  17  19
HETATM   19  N   UNL     1      -3.222   3.424 -31.284  1.00  0.00    -0.264 N 
HETATM   20  C   UNL     1      -2.373   4.172 -32.073  1.00  0.00     0.272 C 
HETATM   21  O   UNL     1      -2.278   4.002 -33.289  1.00  0.00    -0.266 OA
HETATM   22  H   UNL     1      -3.253   3.458 -30.268  1.00  0.00     0.190 HD
BRANCH  20  23
HETATM   23  C   UNL     1      -1.532   5.193 -31.394  1.00  0.00     0.066 A 
HETATM   24  C   UNL     1      -2.110   6.033 -30.430  1.00  0.00     0.081 A 
HETATM   25  C   UNL     1      -1.346   7.004 -29.786  1.00  0.00     0.037 A 
HETATM   26  C   UNL     1       0.011   7.131 -30.082  1.00  0.00     0.003 A 
HETATM   27  C   UNL     1       0.604   6.285 -31.017  1.00  0.00     0.001 A 
HETATM   28  C   UNL     1      -0.162   5.316 -31.672  1.00  0.00     0.020 A 
BRANCH  24  29
HETATM   29  O   UNL     1      -3.427   5.960 -30.063  1.00  0.00    -0.360 OA
HETATM   30  H   UNL     1      -3.866   5.292 -30.633  1.00  0.00     0.217 HD
ENDBRANCH  24  29
ENDBRANCH  20  23
ENDBRANCH  17  19
ENDBRANCH   1  17
TORSDOF 10
ENDMDL
MODEL 5
REMARK VINA RESULT:      -7.1      6.365      9.532
REMARK  10 active torsions:
REMARK  status: ('A' for Active; 'I' for Inactive)
REMARK    1  A    between atoms: C_2  and  C_3 
REMARK    2  A    between atoms: C_3  and  C_4 
REMARK       I    between atoms: C_4  and  N_5 
REMARK    3  A    between atoms: N_5  and  C_6 
REMARK    4  A    between atoms: C_6  and  N_7 
REMARK    5  A    between atoms: C_6  and  C_21 
REMARK    6  A    between atoms: N_7  and  C_8 
REMARK    7  A    between atoms: C_8  and  N_9 
REMARK    8  A    between atoms: N_9  and  N_10 
REMARK       I    between atoms: N_10  and  C_11 
REMARK    9  A    between atoms: C_11  and  C_12 
REMARK   10  A    between atoms: C_13  and  O_14 
ROOT
HETATM    1  C   UNL     1     -10.121   3.182 -31.209  1.00  0.00     0.188 C 
HETATM    2  S   UNL     1      -9.854   4.819 -30.981  1.00  0.00    -0.039 SA
ENDROOT
BRANCH   1   3
HETATM    3  N   UNL     1     -11.086   2.815 -32.088  1.00  0.00    -0.341 N 
HETATM    4  H   UNL     1     -11.166   1.809 -32.220  1.00  0.00     0.164 HD
BRANCH   3   5
HETATM    5  C   UNL     1     -11.825   3.594 -33.075  1.00  0.00     0.241 C 
BRANCH   5   6
HETATM    6  N   UNL     1     -13.212   3.137 -33.045  1.00  0.00    -0.336 N 
HETATM    7  C   UNL     1     -13.591   1.839 -33.259  1.00  0.00     0.219 C 
HETATM    8  O   UNL     1     -12.786   0.945 -33.485  1.00  0.00    -0.274 OA
HETATM    9  H   UNL     1     -13.913   3.796 -32.734  1.00  0.00     0.164 HD
BRANCH   7  10
HETATM   10  C   UNL     1     -15.081   1.585 -33.164  1.00  0.00     0.102 C 
BRANCH  10  11
HETATM   11  C   UNL     1     -15.727   2.263 -31.959  1.00  0.00     0.005 C 
HETATM   12  C   UNL     1     -17.177   2.662 -32.192  1.00  0.00     0.005 C 
ENDBRANCH  10  11
ENDBRANCH   7  10
ENDBRANCH   5   6
BRANCH   5  13
HETATM   13  C   UNL     1     -11.121   3.724 -34.501  1.00  0.00     0.226 C 
HETATM   14 CL   UNL     1     -10.248   5.294 -34.652  1.00  0.00    -0.080 Cl
HETATM   15 CL   UNL     1      -9.866   2.423 -34.664  1.00  0.00    -0.080 Cl
HETATM   16 CL   UNL     1     -12.233   3.535 -35.892  1.00  0.00    -0.080 Cl
ENDBRANCH   5  13
ENDBRANCH   3   5
ENDBRANCH   1   3
BRANCH   1  17
HETATM   17  N   UNL     1      -9.438   2.190 -30.560  1.00  0.00    -0.274 N 
HETATM   18  H   UNL     1      -9.843   1.643 -29.803  1.00  0.00     0.189 HD
BRANCH  17  19
HETATM   19  N   UNL     1      -8.360   1.546 -31.183  1.00  0.00    -0.264 N 
HETATM   20  C   UNL     1      -8.628   0.461 -31.991  1.00  0.00     0.272 C 
HETATM   21  O   UNL     1      -9.762   0.000 -32.125  1.00  0.00    -0.266 OA
HETATM   22  H   UNL     1      -7.429   1.890 -30.961  1.00  0.00     0.190 HD
BRANCH  20  23
HETATM   23  C   UNL     1      -7.478  -0.172 -32.688  1.00  0.00     0.066 A 
HETATM   24  C   UNL     1      -6.293  -0.421 -31.979  1.00  0.00     0.081 A 
HETATM   25  C   UNL     1      -5.197  -1.005 -32.612  1.00  0.00     0.037 A 
HETATM   26  C   UNL     1      -5.282  -1.369 -33.955  1.00  0.00     0.003 A 
HETATM   27  C   UNL     1      -6.463  -1.154 -34.664  1.00  0.00     0.001 A 
HETATM   28  C   UNL     1      -7.561  -0.559 -34.035  1.00  0.00     0.020 A 
BRANCH  24  29
HETATM   29  O   UNL     1      -6.133  -0.117 -30.654  1.00  0.00    -0.360 OA
HETATM   30  H   UNL     1      -6.362   0.830 -30.528  1.00  0.00     0.217 HD
ENDBRANCH  24  29
ENDBRANCH  20  23
ENDBRANCH  17  19
ENDBRANCH   1  17
TORSDOF 10
ENDMDL
MODEL 6
REMARK VINA RESULT:      -7.1      2.700      8.763
REMARK  10 active torsions:
REMARK  status: ('A' for Active; 'I' for Inactive)
REMARK    1  A    between atoms: C_2  and  C_3 
REMARK    2  A    between atoms: C_3  and  C_4 
REMARK       I    between atoms: C_4  and  N_5 
REMARK    3  A    between atoms: N_5  and  C_6 
REMARK    4  A    between atoms: C_6  and  N_7 
REMARK    5  A    between atoms: C_6  and  C_21 
REMARK    6  A    between atoms: N_7  and  C_8 
REMARK    7  A    between atoms: C_8  and  N_9 
REMARK    8  A    between atoms: N_9  and  N_10 
REMARK       I    between atoms: N_10  and  C_11 
REMARK    9  A    between atoms: C_11  and  C_12 
REMARK   10  A    between atoms: C_13  and  O_14 
ROOT
HETATM    1  C   UNL     1      -4.088   3.803 -32.905  1.00  0.00     0.188 C 
HETATM    2  S   UNL     1      -4.083   5.121 -33.938  1.00  0.00    -0.039 SA
ENDROOT
BRANCH   1   3
HETATM    3  N   UNL     1      -5.248   3.116 -32.763  1.00  0.00    -0.341 N 
HETATM    4  H   UNL     1      -6.084   3.679 -32.909  1.00  0.00     0.164 HD
BRANCH   3   5
HETATM    5  C   UNL     1      -5.519   1.811 -32.171  1.00  0.00     0.241 C 
BRANCH   5   6
HETATM    6  N   UNL     1      -5.988   0.933 -33.240  1.00  0.00    -0.336 N 
HETATM    7  C   UNL     1      -5.691  -0.400 -33.317  1.00  0.00     0.219 C 
HETATM    8  O   UNL     1      -5.006  -0.974 -32.479  1.00  0.00    -0.274 OA
HETATM    9  H   UNL     1      -6.665   1.312 -33.890  1.00  0.00     0.164 HD
BRANCH   7  10
HETATM   10  C   UNL     1      -6.297  -1.123 -34.502  1.00  0.00     0.102 C 
BRANCH  10  11
HETATM   11  C   UNL     1      -5.671  -2.493 -34.750  1.00  0.00     0.005 C 
HETATM   12  C   UNL     1      -6.691  -3.620 -34.831  1.00  0.00     0.005 C 
ENDBRANCH  10  11
ENDBRANCH   7  10
ENDBRANCH   5   6
BRANCH   5  13
HETATM   13  C   UNL     1      -6.365   1.844 -30.819  1.00  0.00     0.226 C 
HETATM   14 CL   UNL     1      -6.314   3.479 -30.063  1.00  0.00    -0.080 Cl
HETATM   15 CL   UNL     1      -8.108   1.511 -31.199  1.00  0.00    -0.080 Cl
HETATM   16 CL   UNL     1      -5.866   0.622 -29.608  1.00  0.00    -0.080 Cl
ENDBRANCH   5  13
ENDBRANCH   3   5
ENDBRANCH   1   3
BRANCH   1  17
HETATM   17  N   UNL     1      -3.003   3.380 -32.187  1.00  0.00    -0.274 N 
HETATM   18  H   UNL     1      -2.346   2.686 -32.534  1.00  0.00     0.189 HD
BRANCH  17  19
HETATM   19  N   UNL     1      -2.463   4.189 -31.177  1.00  0.00    -0.264 N 
HETATM   20  C   UNL     1      -1.292   4.868 -31.444  1.00  0.00     0.272 C 
HETATM   21  O   UNL     1      -0.676   4.733 -32.502  1.00  0.00    -0.266 OA
HETATM   22  H   UNL     1      -2.943   4.188 -30.281  1.00  0.00     0.190 HD
BRANCH  20  23
HETATM   23  C   UNL     1      -0.765   5.764 -30.382  1.00  0.00     0.066 A 
HETATM   24  C   UNL     1       0.254   5.304 -29.534  1.00  0.00     0.081 A 
HETATM   25  C   UNL     1       0.760   6.122 -28.525  1.00  0.00     0.037 A 
HETATM   26  C   UNL     1       0.267   7.417 -28.366  1.00  0.00     0.003 A 
HETATM   27  C   UNL     1      -0.725   7.896 -29.220  1.00  0.00     0.001 A 
HETATM   28  C   UNL     1      -1.241   7.075 -30.228  1.00  0.00     0.020 A 
BRANCH  24  29
HETATM   29  O   UNL     1       0.810   4.057 -29.635  1.00  0.00    -0.360 OA
HETATM   30  H   UNL     1       0.343   3.572 -30.350  1.00  0.00     0.217 HD
ENDBRANCH  24  29
ENDBRANCH  20  23
ENDBRANCH  17  19
ENDBRANCH   1  17
TORSDOF 10
ENDMDL
MODEL 7
REMARK VINA RESULT:      -7.0      1.339      2.165
REMARK  10 active torsions:
REMARK  status: ('A' for Active; 'I' for Inactive)
REMARK    1  A    between atoms: C_2  and  C_3 
REMARK    2  A    between atoms: C_3  and  C_4 
REMARK       I    between atoms: C_4  and  N_5 
REMARK    3  A    between atoms: N_5  and  C_6 
REMARK    4  A    between atoms: C_6  and  N_7 
REMARK    5  A    between atoms: C_6  and  C_21 
REMARK    6  A    between atoms: N_7  and  C_8 
REMARK    7  A    between atoms: C_8  and  N_9 
REMARK    8  A    between atoms: N_9  and  N_10 
REMARK       I    between atoms: N_10  and  C_11 
REMARK    9  A    between atoms: C_11  and  C_12 
REMARK   10  A    between atoms: C_13  and  O_14 
ROOT
HETATM    1  C   UNL     1      -4.359   3.663 -31.688  1.00  0.00     0.188 C 
HETATM    2  S   UNL     1      -5.944   4.144 -31.935  1.00  0.00    -0.039 SA
ENDROOT
BRANCH   1   3
HETATM    3  N   UNL     1      -3.385   4.593 -31.840  1.00  0.00    -0.341 N 
HETATM    4  H   UNL     1      -3.605   5.495 -31.423  1.00  0.00     0.164 HD
BRANCH   3   5
HETATM    5  C   UNL     1      -2.224   4.624 -32.722  1.00  0.00     0.241 C 
BRANCH   5   6
HETATM    6  N   UNL     1      -1.042   4.813 -31.885  1.00  0.00    -0.336 N 
HETATM    7  C   UNL     1      -1.007   5.635 -30.791  1.00  0.00     0.219 C 
HETATM    8  O   UNL     1      -1.979   6.279 -30.417  1.00  0.00    -0.274 OA
HETATM    9  H   UNL     1      -0.248   4.211 -32.059  1.00  0.00     0.164 HD
BRANCH   7  10
HETATM   10  C   UNL     1       0.318   5.666 -30.058  1.00  0.00     0.102 C 
BRANCH  10  11
HETATM   11  C   UNL     1       0.216   6.288 -28.668  1.00  0.00     0.005 C 
HETATM   12  C   UNL     1       0.788   7.696 -28.589  1.00  0.00     0.005 C 
ENDBRANCH  10  11
ENDBRANCH   7  10
ENDBRANCH   5   6
BRANCH   5  13
HETATM   13  C   UNL     1      -2.374   5.557 -34.007  1.00  0.00     0.226 C 
HETATM   14 CL   UNL     1      -2.255   7.300 -33.559  1.00  0.00    -0.080 Cl
HETATM   15 CL   UNL     1      -1.001   5.228 -35.146  1.00  0.00    -0.080 Cl
HETATM   16 CL   UNL     1      -3.882   5.293 -34.938  1.00  0.00    -0.080 Cl
ENDBRANCH   5  13
ENDBRANCH   3   5
ENDBRANCH   1   3
BRANCH   1  17
HETATM   17  N   UNL     1      -3.981   2.391 -31.354  1.00  0.00    -0.274 N 
HETATM   18  H   UNL     1      -3.875   2.080 -30.391  1.00  0.00     0.189 HD
BRANCH  17  19
HETATM   19  N   UNL     1      -4.182   1.333 -32.251  1.00  0.00    -0.264 N 
HETATM   20  C   UNL     1      -5.195   0.436 -31.983  1.00  0.00     0.272 C 
HETATM   21  O   UNL     1      -5.874   0.491 -30.958  1.00  0.00    -0.266 OA
HETATM   22  H   UNL     1      -3.531   1.260 -33.029  1.00  0.00     0.190 HD
BRANCH  20  23
HETATM   23  C   UNL     1      -5.429  -0.646 -32.976  1.00  0.00     0.066 A 
HETATM   24  C   UNL     1      -4.445  -1.627 -33.173  1.00  0.00     0.081 A 
HETATM   25  C   UNL     1      -4.636  -2.646 -34.104  1.00  0.00     0.037 A 
HETATM   26  C   UNL     1      -5.824  -2.710 -34.832  1.00  0.00     0.003 A 
HETATM   27  C   UNL     1      -6.821  -1.759 -34.626  1.00  0.00     0.001 A 
HETATM   28  C   UNL     1      -6.629  -0.729 -33.699  1.00  0.00     0.020 A 
BRANCH  24  29
HETATM   29  O   UNL     1      -3.261  -1.652 -32.485  1.00  0.00    -0.360 OA
HETATM   30  H   UNL     1      -3.347  -1.056 -31.709  1.00  0.00     0.217 HD
ENDBRANCH  24  29
ENDBRANCH  20  23
ENDBRANCH  17  19
ENDBRANCH   1  17
TORSDOF 10
ENDMDL
MODEL 8
REMARK VINA RESULT:      -7.0      4.861      7.668
REMARK  10 active torsions:
REMARK  status: ('A' for Active; 'I' for Inactive)
REMARK    1  A    between atoms: C_2  and  C_3 
REMARK    2  A    between atoms: C_3  and  C_4 
REMARK       I    between atoms: C_4  and  N_5 
REMARK    3  A    between atoms: N_5  and  C_6 
REMARK    4  A    between atoms: C_6  and  N_7 
REMARK    5  A    between atoms: C_6  and  C_21 
REMARK    6  A    between atoms: N_7  and  C_8 
REMARK    7  A    between atoms: C_8  and  N_9 
REMARK    8  A    between atoms: N_9  and  N_10 
REMARK       I    between atoms: N_10  and  C_11 
REMARK    9  A    between atoms: C_11  and  C_12 
REMARK   10  A    between atoms: C_13  and  O_14 
ROOT
HETATM    1  C   UNL     1      -7.117   2.298 -30.607  1.00  0.00     0.188 C 
HETATM    2  S   UNL     1      -6.151   3.586 -30.147  1.00  0.00    -0.039 SA
ENDROOT
BRANCH   1   3
HETATM    3  N   UNL     1      -6.506   1.201 -31.120  1.00  0.00    -0.341 N 
HETATM    4  H   UNL     1      -6.399   0.438 -30.455  1.00  0.00     0.164 HD
BRANCH   3   5
HETATM    5  C   UNL     1      -5.734   1.023 -32.344  1.00  0.00     0.241 C 
BRANCH   5   6
HETATM    6  N   UNL     1      -6.374  -0.039 -33.116  1.00  0.00    -0.336 N 
HETATM    7  C   UNL     1      -6.795   0.107 -34.410  1.00  0.00     0.219 C 
HETATM    8  O   UNL     1      -6.659   1.152 -35.035  1.00  0.00    -0.274 OA
HETATM    9  H   UNL     1      -6.397  -0.963 -32.705  1.00  0.00     0.164 HD
BRANCH   7  10
HETATM   10  C   UNL     1      -7.417  -1.130 -35.023  1.00  0.00     0.102 C 
BRANCH  10  11
HETATM   11  C   UNL     1      -6.872  -2.427 -34.432  1.00  0.00     0.005 C 
HETATM   12  C   UNL     1      -5.575  -2.891 -35.081  1.00  0.00     0.005 C 
ENDBRANCH  10  11
ENDBRANCH   7  10
ENDBRANCH   5   6
BRANCH   5  13
HETATM   13  C   UNL     1      -4.154   0.938 -32.141  1.00  0.00     0.226 C 
HETATM   14 CL   UNL     1      -3.744   0.296 -30.507  1.00  0.00    -0.080 Cl
HETATM   15 CL   UNL     1      -3.462  -0.235 -33.340  1.00  0.00    -0.080 Cl
HETATM   16 CL   UNL     1      -3.294   2.489 -32.394  1.00  0.00    -0.080 Cl
ENDBRANCH   5  13
ENDBRANCH   3   5
ENDBRANCH   1   3
BRANCH   1  17
HETATM   17  N   UNL     1      -8.482   2.282 -30.511  1.00  0.00    -0.274 N 
HETATM   18  H   UNL     1      -8.975   2.364 -29.625  1.00  0.00     0.189 HD
BRANCH  17  19
HETATM   19  N   UNL     1      -9.274   2.634 -31.613  1.00  0.00    -0.264 N 
HETATM   20  C   UNL     1      -9.740   1.625 -32.428  1.00  0.00     0.272 C 
HETATM   21  O   UNL     1      -9.430   0.445 -32.263  1.00  0.00    -0.266 OA
HETATM   22  H   UNL     1      -9.417   3.628 -31.776  1.00  0.00     0.190 HD
BRANCH  20  23
HETATM   23  C   UNL     1     -10.625   2.013 -33.558  1.00  0.00     0.066 A 
HETATM   24  C   UNL     1     -11.715   1.195 -33.893  1.00  0.00     0.081 A 
HETATM   25  C   UNL     1     -12.554   1.531 -34.954  1.00  0.00     0.037 A 
HETATM   26  C   UNL     1     -12.327   2.702 -35.677  1.00  0.00     0.003 A 
HETATM   27  C   UNL     1     -11.264   3.537 -35.337  1.00  0.00     0.001 A 
HETATM   28  C   UNL     1     -10.415   3.198 -34.279  1.00  0.00     0.020 A 
BRANCH  24  29
HETATM   29  O   UNL     1     -12.024   0.042 -33.222  1.00  0.00    -0.360 OA
HETATM   30  H   UNL     1     -12.891   0.170 -32.779  1.00  0.00     0.217 HD
ENDBRANCH  24  29
ENDBRANCH  20  23
ENDBRANCH  17  19
ENDBRANCH   1  17
TORSDOF 10
ENDMDL
MODEL 9
REMARK VINA RESULT:      -6.9      1.708      2.031
REMARK  10 active torsions:
REMARK  status: ('A' for Active; 'I' for Inactive)
REMARK    1  A    between atoms: C_2  and  C_3 
REMARK    2  A    between atoms: C_3  and  C_4 
REMARK       I    between atoms: C_4  and  N_5 
REMARK    3  A    between atoms: N_5  and  C_6 
REMARK    4  A    between atoms: C_6  and  N_7 
REMARK    5  A    between atoms: C_6  and  C_21 
REMARK    6  A    between atoms: N_7  and  C_8 
REMARK    7  A    between atoms: C_8  and  N_9 
REMARK    8  A    between atoms: N_9  and  N_10 
REMARK       I    between atoms: N_10  and  C_11 
REMARK    9  A    between atoms: C_11  and  C_12 
REMARK   10  A    between atoms: C_13  and  O_14 
ROOT
HETATM    1  C   UNL     1      -2.976   3.974 -31.650  1.00  0.00     0.188 C 
HETATM    2  S   UNL     1      -2.485   4.083 -33.248  1.00  0.00    -0.039 SA
ENDROOT
BRANCH   1   3
HETATM    3  N   UNL     1      -2.656   4.997 -30.820  1.00  0.00    -0.341 N 
HETATM    4  H   UNL     1      -3.283   5.097 -30.025  1.00  0.00     0.164 HD
BRANCH   3   5
HETATM    5  C   UNL     1      -1.761   6.134 -31.006  1.00  0.00     0.241 C 
BRANCH   5   6
HETATM    6  N   UNL     1      -0.994   6.294 -29.774  1.00  0.00    -0.336 N 
HETATM    7  C   UNL     1       0.084   5.519 -29.440  1.00  0.00     0.219 C 
HETATM    8  O   UNL     1       0.501   4.622 -30.163  1.00  0.00    -0.274 OA
HETATM    9  H   UNL     1      -1.202   7.099 -29.197  1.00  0.00     0.164 HD
BRANCH   7  10
HETATM   10  C   UNL     1       0.741   5.871 -28.123  1.00  0.00     0.102 C 
BRANCH  10  11
HETATM   11  C   UNL     1       0.334   7.246 -27.601  1.00  0.00     0.005 C 
HETATM   12  C   UNL     1       1.359   8.333 -27.891  1.00  0.00     0.005 C 
ENDBRANCH  10  11
ENDBRANCH   7  10
ENDBRANCH   5   6
BRANCH   5  13
HETATM   13  C   UNL     1      -2.443   7.437 -31.625  1.00  0.00     0.226 C 
HETATM   14 CL   UNL     1      -1.885   7.717 -33.316  1.00  0.00    -0.080 Cl
HETATM   15 CL   UNL     1      -4.238   7.183 -31.715  1.00  0.00    -0.080 Cl
HETATM   16 CL   UNL     1      -2.187   8.929 -30.668  1.00  0.00    -0.080 Cl
ENDBRANCH   5  13
ENDBRANCH   3   5
ENDBRANCH   1   3
BRANCH   1  17
HETATM   17  N   UNL     1      -3.669   2.918 -31.125  1.00  0.00    -0.274 N 
HETATM   18  H   UNL     1      -3.967   2.879 -30.153  1.00  0.00     0.189 HD
BRANCH  17  19
HETATM   19  N   UNL     1      -4.417   2.076 -31.960  1.00  0.00    -0.264 N 
HETATM   20  C   UNL     1      -3.922   0.816 -32.226  1.00  0.00     0.272 C 
HETATM   21  O   UNL     1      -2.824   0.437 -31.817  1.00  0.00    -0.266 OA
HETATM   22  H   UNL     1      -5.265   2.465 -32.365  1.00  0.00     0.190 HD
BRANCH  20  23
HETATM   23  C   UNL     1      -4.756  -0.082 -33.066  1.00  0.00     0.066 A 
HETATM   24  C   UNL     1      -4.453  -1.451 -33.124  1.00  0.00     0.081 A 
HETATM   25  C   UNL     1      -5.213  -2.314 -33.912  1.00  0.00     0.037 A 
HETATM   26  C   UNL     1      -6.301  -1.821 -34.633  1.00  0.00     0.003 A 
HETATM   27  C   UNL     1      -6.630  -0.468 -34.562  1.00  0.00     0.001 A 
HETATM   28  C   UNL     1      -5.863   0.401 -33.780  1.00  0.00     0.020 A 
BRANCH  24  29
HETATM   29  O   UNL     1      -3.418  -2.021 -32.431  1.00  0.00    -0.360 OA
HETATM   30  H   UNL     1      -2.581  -1.798 -32.893  1.00  0.00     0.217 HD
ENDBRANCH  24  29
ENDBRANCH  20  23
ENDBRANCH  17  19
ENDBRANCH   1  17
TORSDOF 10
ENDMDL
MODEL 10
REMARK VINA RESULT:      -6.9      2.375      3.244
REMARK  10 active torsions:
REMARK  status: ('A' for Active; 'I' for Inactive)
REMARK    1  A    between atoms: C_2  and  C_3 
REMARK    2  A    between atoms: C_3  and  C_4 
REMARK       I    between atoms: C_4  and  N_5 
REMARK    3  A    between atoms: N_5  and  C_6 
REMARK    4  A    between atoms: C_6  and  N_7 
REMARK    5  A    between atoms: C_6  and  C_21 
REMARK    6  A    between atoms: N_7  and  C_8 
REMARK    7  A    between atoms: C_8  and  N_9 
REMARK    8  A    between atoms: N_9  and  N_10 
REMARK       I    between atoms: N_10  and  C_11 
REMARK    9  A    between atoms: C_11  and  C_12 
REMARK   10  A    between atoms: C_13  and  O_14 
ROOT
HETATM    1  C   UNL     1      -5.936   2.910 -30.481  1.00  0.00     0.188 C 
HETATM    2  S   UNL     1      -7.559   3.192 -30.180  1.00  0.00    -0.039 SA
ENDROOT
BRANCH   1   3
HETATM    3  N   UNL     1      -5.197   3.936 -30.971  1.00  0.00    -0.341 N 
HETATM    4  H   UNL     1      -5.300   4.806 -30.452  1.00  0.00     0.164 HD
BRANCH   3   5
HETATM    5  C   UNL     1      -4.514   4.096 -32.250  1.00  0.00     0.241 C 
BRANCH   5   6
HETATM    6  N   UNL     1      -3.462   5.092 -32.064  1.00  0.00    -0.336 N 
HETATM    7  C   UNL     1      -2.226   4.808 -31.549  1.00  0.00     0.219 C 
HETATM    8  O   UNL     1      -1.896   3.679 -31.207  1.00  0.00    -0.274 OA
HETATM    9  H   UNL     1      -3.621   6.014 -32.448  1.00  0.00     0.164 HD
BRANCH   7  10
HETATM   10  C   UNL     1      -1.284   5.990 -31.460  1.00  0.00     0.102 C 
BRANCH  10  11
HETATM   11  C   UNL     1      -1.652   7.120 -32.418  1.00  0.00     0.005 C 
HETATM   12  C   UNL     1      -1.096   6.932 -33.822  1.00  0.00     0.005 C 
ENDBRANCH  10  11
ENDBRANCH   7  10
ENDBRANCH   5   6
BRANCH   5  13
HETATM   13  C   UNL     1      -5.473   4.263 -33.513  1.00  0.00     0.226 C 
HETATM   14 CL   UNL     1      -6.791   5.445 -33.173  1.00  0.00    -0.080 Cl
HETATM   15 CL   UNL     1      -4.520   4.944 -34.898  1.00  0.00    -0.080 Cl
HETATM   16 CL   UNL     1      -6.196   2.732 -34.097  1.00  0.00    -0.080 Cl
ENDBRANCH   5  13
ENDBRANCH   3   5
ENDBRANCH   1   3
BRANCH   1  17
HETATM   17  N   UNL     1      -5.308   1.712 -30.276  1.00  0.00    -0.274 N 
HETATM   18  H   UNL     1      -4.989   1.403 -29.361  1.00  0.00     0.189 HD
BRANCH  17  19
HETATM   19  N   UNL     1      -5.490   0.654 -31.177  1.00  0.00    -0.264 N 
HETATM   20  C   UNL     1      -4.392   0.196 -31.875  1.00  0.00     0.272 C 
HETATM   21  O   UNL     1      -3.284   0.727 -31.786  1.00  0.00    -0.266 OA
HETATM   22  H   UNL     1      -6.441   0.315 -31.302  1.00  0.00     0.190 HD
BRANCH  20  23
HETATM   23  C   UNL     1      -4.594  -0.963 -32.783  1.00  0.00     0.066 A 
HETATM   24  C   UNL     1      -3.790  -2.104 -32.634  1.00  0.00     0.081 A 
HETATM   25  C   UNL     1      -3.953  -3.201 -33.478  1.00  0.00     0.037 A 
HETATM   26  C   UNL     1      -4.936  -3.179 -34.467  1.00  0.00     0.003 A 
HETATM   27  C   UNL     1      -5.759  -2.063 -34.607  1.00  0.00     0.001 A 
HETATM   28  C   UNL     1      -5.593  -0.957 -33.768  1.00  0.00     0.020 A 
BRANCH  24  29
HETATM   29  O   UNL     1      -2.819  -2.219 -31.676  1.00  0.00    -0.360 OA
HETATM   30  H   UNL     1      -2.326  -3.052 -31.839  1.00  0.00     0.217 HD
ENDBRANCH  24  29
ENDBRANCH  20  23
ENDBRANCH  17  19
ENDBRANCH   1  17
TORSDOF 10
ENDMDL
