MODEL 1
REMARK VINA RESULT:      -8.9      0.000      0.000
REMARK  5 active torsions:
REMARK  status: ('A' for Active; 'I' for Inactive)
REMARK    1  A    between atoms: C_3  and  N_4 
REMARK       I    between atoms: N_4  and  C_5 
REMARK    2  A    between atoms: C_5  and  C_6 
REMARK    3  A    between atoms: C_14  and  C_15 
REMARK    4  A    between atoms: C_21  and  O_22 
REMARK    5  A    between atoms: C_24  and  O_25 
ROOT
HETATM    1  N   UNL     1      -8.246   0.924 -32.945  1.00  0.00    -0.322 N 
HETATM    2  C   UNL     1      -7.176   1.047 -33.807  1.00  0.00     0.257 C 
HETATM    3  O   UNL     1      -6.915   1.948 -34.588  1.00  0.00    -0.267 OA
HETATM    4  H   UNL     1      -8.142   0.172 -32.272  1.00  0.00     0.169 HD
ENDROOT
BRANCH   2   5
HETATM    5  C   UNL     1      -6.193  -0.068 -33.718  1.00  0.00     0.046 A 
HETATM    6  C   UNL     1      -5.080  -0.043 -32.844  1.00  0.00     0.008 A 
HETATM    7  C   UNL     1      -4.218  -1.151 -32.922  1.00  0.00     0.068 A 
HETATM    8  C   UNL     1      -4.789   0.977 -31.897  1.00  0.00     0.015 A 
HETATM    9  C   UNL     1      -3.085  -1.180 -32.119  1.00  0.00     0.032 A 
HETATM   10  N   UNL     1      -4.445  -2.203 -33.726  1.00  0.00    -0.252 NA
HETATM   11  C   UNL     1      -2.786  -0.155 -31.219  1.00  0.00     0.002 A 
HETATM   12  C   UNL     1      -3.647   0.924 -31.100  1.00  0.00     0.001 A 
HETATM   13  C   UNL     1      -5.556  -2.245 -34.501  1.00  0.00     0.040 A 
HETATM   14  C   UNL     1      -6.443  -1.183 -34.522  1.00  0.00     0.045 A 
BRANCH  13  15
HETATM   15  C   UNL     1      -5.820  -3.499 -35.299  1.00  0.00     0.038 A 
HETATM   16  C   UNL     1      -5.410  -4.856 -34.777  1.00  0.00     0.011 A 
HETATM   17  C   UNL     1      -6.862  -4.486 -34.820  1.00  0.00     0.011 A 
ENDBRANCH  13  15
ENDBRANCH   2   5
BRANCH   1  18
HETATM   18  C   UNL     1      -9.503   1.578 -32.889  1.00  0.00     0.043 A 
HETATM   19  C   UNL     1      -9.813   2.830 -32.335  1.00  0.00    -0.032 A 
HETATM   20  C   UNL     1      -8.863   3.706 -31.570  1.00  0.00     0.050 C 
HETATM   21  C   UNL     1     -11.128   3.339 -32.484  1.00  0.00     0.048 A 
HETATM   22  C   UNL     1     -12.124   2.641 -33.172  1.00  0.00     0.102 A 
HETATM   23  C   UNL     1     -11.824   1.384 -33.701  1.00  0.00     0.103 A 
HETATM   24  C   UNL     1     -10.535   0.863 -33.542  1.00  0.00     0.069 A 
BRANCH  22  25
HETATM   25  O   UNL     1     -13.402   3.101 -33.362  1.00  0.00    -0.353 OA
HETATM   26  C   UNL     1     -14.265   3.094 -32.233  1.00  0.00     0.210 C 
ENDBRANCH  22  25
BRANCH  23  27
HETATM   27  O   UNL     1     -12.845   0.730 -34.345  1.00  0.00    -0.353 OA
HETATM   28  C   UNL     1     -13.455  -0.351 -33.653  1.00  0.00     0.210 C 
ENDBRANCH  23  27
ENDBRANCH   1  18
TORSDOF 5
ENDMDL
MODEL 2
REMARK VINA RESULT:      -8.6      1.673      1.733
REMARK  5 active torsions:
REMARK  status: ('A' for Active; 'I' for Inactive)
REMARK    1  A    between atoms: C_3  and  N_4 
REMARK       I    between atoms: N_4  and  C_5 
REMARK    2  A    between atoms: C_5  and  C_6 
REMARK    3  A    between atoms: C_14  and  C_15 
REMARK    4  A    between atoms: C_21  and  O_22 
REMARK    5  A    between atoms: C_24  and  O_25 
ROOT
HETATM    1  N   UNL     1      -8.790   0.999 -34.074  1.00  0.00    -0.322 N 
HETATM    2  C   UNL     1      -8.368   0.282 -32.973  1.00  0.00     0.257 C 
HETATM    3  O   UNL     1      -8.925   0.120 -31.899  1.00  0.00    -0.267 OA
HETATM    4  H   UNL     1      -8.235   0.832 -34.906  1.00  0.00     0.169 HD
ENDROOT
BRANCH   2   5
HETATM    5  C   UNL     1      -7.069  -0.420 -33.167  1.00  0.00     0.046 A 
HETATM    6  C   UNL     1      -5.891  -0.063 -32.469  1.00  0.00     0.008 A 
HETATM    7  C   UNL     1      -4.736  -0.791 -32.808  1.00  0.00     0.068 A 
HETATM    8  C   UNL     1      -5.793   0.930 -31.456  1.00  0.00     0.015 A 
HETATM    9  C   UNL     1      -3.535  -0.472 -32.189  1.00  0.00     0.032 A 
HETATM   10  N   UNL     1      -4.739  -1.800 -33.694  1.00  0.00    -0.252 NA
HETATM   11  C   UNL     1      -3.439   0.531 -31.223  1.00  0.00     0.002 A 
HETATM   12  C   UNL     1      -4.576   1.229 -30.846  1.00  0.00     0.001 A 
HETATM   13  C   UNL     1      -5.891  -2.179 -34.298  1.00  0.00     0.040 A 
HETATM   14  C   UNL     1      -7.071  -1.496 -34.058  1.00  0.00     0.045 A 
BRANCH  13  15
HETATM   15  C   UNL     1      -5.859  -3.391 -35.198  1.00  0.00     0.038 A 
HETATM   16  C   UNL     1      -5.296  -4.706 -34.713  1.00  0.00     0.011 A 
HETATM   17  C   UNL     1      -6.775  -4.561 -34.911  1.00  0.00     0.011 A 
ENDBRANCH  13  15
ENDBRANCH   2   5
BRANCH   1  18
HETATM   18  C   UNL     1      -9.783   1.999 -34.235  1.00  0.00     0.043 A 
HETATM   19  C   UNL     1      -9.641   3.393 -34.149  1.00  0.00    -0.032 A 
HETATM   20  C   UNL     1      -8.390   4.120 -33.748  1.00  0.00     0.050 C 
HETATM   21  C   UNL     1     -10.756   4.214 -34.451  1.00  0.00     0.048 A 
HETATM   22  C   UNL     1     -11.989   3.685 -34.840  1.00  0.00     0.102 A 
HETATM   23  C   UNL     1     -12.139   2.298 -34.901  1.00  0.00     0.103 A 
HETATM   24  C   UNL     1     -11.050   1.477 -34.585  1.00  0.00     0.069 A 
BRANCH  22  25
HETATM   25  O   UNL     1     -13.088   4.438 -35.164  1.00  0.00    -0.353 OA
HETATM   26  C   UNL     1     -12.849   5.730 -35.706  1.00  0.00     0.210 C 
ENDBRANCH  22  25
BRANCH  23  27
HETATM   27  O   UNL     1     -13.377   1.830 -35.264  1.00  0.00    -0.353 OA
HETATM   28  C   UNL     1     -14.058   1.011 -34.324  1.00  0.00     0.210 C 
ENDBRANCH  23  27
ENDBRANCH   1  18
TORSDOF 5
ENDMDL
MODEL 3
REMARK VINA RESULT:      -8.4      2.435      7.551
REMARK  5 active torsions:
REMARK  status: ('A' for Active; 'I' for Inactive)
REMARK    1  A    between atoms: C_3  and  N_4 
REMARK       I    between atoms: N_4  and  C_5 
REMARK    2  A    between atoms: C_5  and  C_6 
REMARK    3  A    between atoms: C_14  and  C_15 
REMARK    4  A    between atoms: C_21  and  O_22 
REMARK    5  A    between atoms: C_24  and  O_25 
ROOT
HETATM    1  N   UNL     1      -7.321   0.466 -33.836  1.00  0.00    -0.322 N 
HETATM    2  C   UNL     1      -8.275   0.742 -32.879  1.00  0.00     0.257 C 
HETATM    3  O   UNL     1      -8.278   0.463 -31.690  1.00  0.00    -0.267 OA
HETATM    4  H   UNL     1      -7.466   0.960 -34.709  1.00  0.00     0.169 HD
ENDROOT
BRANCH   2   5
HETATM    5  C   UNL     1      -9.431   1.535 -33.383  1.00  0.00     0.046 A 
HETATM    6  C   UNL     1      -9.353   2.921 -33.652  1.00  0.00     0.008 A 
HETATM    7  C   UNL     1     -10.549   3.530 -34.072  1.00  0.00     0.068 A 
HETATM    8  C   UNL     1      -8.181   3.722 -33.562  1.00  0.00     0.015 A 
HETATM    9  C   UNL     1     -10.558   4.896 -34.321  1.00  0.00     0.032 A 
HETATM   10  N   UNL     1     -11.690   2.849 -34.264  1.00  0.00    -0.252 NA
HETATM   11  C   UNL     1      -9.411   5.682 -34.192  1.00  0.00     0.002 A 
HETATM   12  C   UNL     1      -8.214   5.091 -33.820  1.00  0.00     0.001 A 
HETATM   13  C   UNL     1     -11.729   1.508 -34.075  1.00  0.00     0.040 A 
HETATM   14  C   UNL     1     -10.611   0.827 -33.624  1.00  0.00     0.045 A 
BRANCH  13  15
HETATM   15  C   UNL     1     -13.005   0.776 -34.415  1.00  0.00     0.038 A 
HETATM   16  C   UNL     1     -13.442  -0.435 -33.625  1.00  0.00     0.011 A 
HETATM   17  C   UNL     1     -14.187   0.857 -33.474  1.00  0.00     0.011 A 
ENDBRANCH  13  15
ENDBRANCH   2   5
BRANCH   1  18
HETATM   18  C   UNL     1      -6.241  -0.453 -33.866  1.00  0.00     0.043 A 
HETATM   19  C   UNL     1      -5.048  -0.426 -33.127  1.00  0.00    -0.032 A 
HETATM   20  C   UNL     1      -4.618   0.680 -32.206  1.00  0.00     0.050 C 
HETATM   21  C   UNL     1      -4.146  -1.513 -33.240  1.00  0.00     0.048 A 
HETATM   22  C   UNL     1      -4.407  -2.616 -34.057  1.00  0.00     0.102 A 
HETATM   23  C   UNL     1      -5.582  -2.633 -34.813  1.00  0.00     0.103 A 
HETATM   24  C   UNL     1      -6.470  -1.555 -34.723  1.00  0.00     0.069 A 
BRANCH  22  25
HETATM   25  O   UNL     1      -3.578  -3.701 -34.183  1.00  0.00    -0.353 OA
HETATM   26  C   UNL     1      -3.448  -4.549 -33.050  1.00  0.00     0.210 C 
ENDBRANCH  22  25
BRANCH  23  27
HETATM   27  O   UNL     1      -5.777  -3.729 -35.617  1.00  0.00    -0.353 OA
HETATM   28  C   UNL     1      -6.821  -4.620 -35.249  1.00  0.00     0.210 C 
ENDBRANCH  23  27
ENDBRANCH   1  18
TORSDOF 5
ENDMDL
MODEL 4
REMARK VINA RESULT:      -8.1      4.250      7.876
REMARK  5 active torsions:
REMARK  status: ('A' for Active; 'I' for Inactive)
REMARK    1  A    between atoms: C_3  and  N_4 
REMARK       I    between atoms: N_4  and  C_5 
REMARK    2  A    between atoms: C_5  and  C_6 
REMARK    3  A    between atoms: C_14  and  C_15 
REMARK    4  A    between atoms: C_21  and  O_22 
REMARK    5  A    between atoms: C_24  and  O_25 
ROOT
HETATM    1  N   UNL     1      -4.607   1.094 -32.856  1.00  0.00    -0.322 N 
HETATM    2  C   UNL     1      -3.792   1.452 -31.803  1.00  0.00     0.257 C 
HETATM    3  O   UNL     1      -2.956   0.785 -31.214  1.00  0.00    -0.267 OA
HETATM    4  H   UNL     1      -5.087   1.878 -33.286  1.00  0.00     0.169 HD
ENDROOT
BRANCH   2   5
HETATM    5  C   UNL     1      -3.941   2.871 -31.375  1.00  0.00     0.046 A 
HETATM    6  C   UNL     1      -5.101   3.360 -30.729  1.00  0.00     0.008 A 
HETATM    7  C   UNL     1      -5.104   4.736 -30.439  1.00  0.00     0.068 A 
HETATM    8  C   UNL     1      -6.225   2.583 -30.335  1.00  0.00     0.015 A 
HETATM    9  C   UNL     1      -6.224   5.295 -29.838  1.00  0.00     0.032 A 
HETATM   10  N   UNL     1      -4.061   5.543 -30.700  1.00  0.00    -0.252 NA
HETATM   11  C   UNL     1      -7.339   4.531 -29.489  1.00  0.00     0.002 A 
HETATM   12  C   UNL     1      -7.335   3.166 -29.729  1.00  0.00     0.001 A 
HETATM   13  C   UNL     1      -2.928   5.042 -31.249  1.00  0.00     0.040 A 
HETATM   14  C   UNL     1      -2.847   3.707 -31.606  1.00  0.00     0.045 A 
BRANCH  13  15
HETATM   15  C   UNL     1      -1.748   5.969 -31.415  1.00  0.00     0.038 A 
HETATM   16  C   UNL     1      -0.584   5.596 -32.302  1.00  0.00     0.011 A 
HETATM   17  C   UNL     1      -1.530   6.674 -32.736  1.00  0.00     0.011 A 
ENDBRANCH  13  15
ENDBRANCH   2   5
BRANCH   1  18
HETATM   18  C   UNL     1      -4.982  -0.169 -33.383  1.00  0.00     0.043 A 
HETATM   19  C   UNL     1      -6.023  -0.470 -34.276  1.00  0.00    -0.032 A 
HETATM   20  C   UNL     1      -7.047   0.505 -34.783  1.00  0.00     0.050 C 
HETATM   21  C   UNL     1      -6.152  -1.797 -34.755  1.00  0.00     0.048 A 
HETATM   22  C   UNL     1      -5.275  -2.816 -34.375  1.00  0.00     0.102 A 
HETATM   23  C   UNL     1      -4.255  -2.525 -33.467  1.00  0.00     0.103 A 
HETATM   24  C   UNL     1      -4.130  -1.221 -32.972  1.00  0.00     0.069 A 
BRANCH  22  25
HETATM   25  O   UNL     1      -5.345  -4.109 -34.828  1.00  0.00    -0.353 OA
HETATM   26  C   UNL     1      -6.591  -4.539 -35.361  1.00  0.00     0.210 C 
ENDBRANCH  22  25
BRANCH  23  27
HETATM   27  O   UNL     1      -3.436  -3.567 -33.108  1.00  0.00    -0.353 OA
HETATM   28  C   UNL     1      -2.963  -3.582 -31.769  1.00  0.00     0.210 C 
ENDBRANCH  23  27
ENDBRANCH   1  18
TORSDOF 5
ENDMDL
MODEL 5
REMARK VINA RESULT:      -8.1      0.865      3.386
REMARK  5 active torsions:
REMARK  status: ('A' for Active; 'I' for Inactive)
REMARK    1  A    between atoms: C_3  and  N_4 
REMARK       I    between atoms: N_4  and  C_5 
REMARK    2  A    between atoms: C_5  and  C_6 
REMARK    3  A    between atoms: C_14  and  C_15 
REMARK    4  A    between atoms: C_21  and  O_22 
REMARK    5  A    between atoms: C_24  and  O_25 
ROOT
HETATM    1  N   UNL     1      -8.164   0.917 -33.398  1.00  0.00    -0.322 N 
HETATM    2  C   UNL     1      -7.676   0.089 -34.387  1.00  0.00     0.257 C 
HETATM    3  O   UNL     1      -8.116  -0.116 -35.507  1.00  0.00    -0.267 OA
HETATM    4  H   UNL     1      -7.522   1.051 -32.624  1.00  0.00     0.169 HD
ENDROOT
BRANCH   2   5
HETATM    5  C   UNL     1      -6.408  -0.605 -34.027  1.00  0.00     0.046 A 
HETATM    6  C   UNL     1      -6.170  -1.969 -34.318  1.00  0.00     0.008 A 
HETATM    7  C   UNL     1      -4.944  -2.485 -33.864  1.00  0.00     0.068 A 
HETATM    8  C   UNL     1      -7.041  -2.830 -35.043  1.00  0.00     0.015 A 
HETATM    9  C   UNL     1      -4.656  -3.826 -34.082  1.00  0.00     0.032 A 
HETATM   10  N   UNL     1      -4.020  -1.737 -33.239  1.00  0.00    -0.252 NA
HETATM   11  C   UNL     1      -5.533  -4.674 -34.760  1.00  0.00     0.002 A 
HETATM   12  C   UNL     1      -6.727  -4.171 -35.253  1.00  0.00     0.001 A 
HETATM   13  C   UNL     1      -4.232  -0.414 -33.035  1.00  0.00     0.040 A 
HETATM   14  C   UNL     1      -5.426   0.175 -33.413  1.00  0.00     0.045 A 
BRANCH  13  15
HETATM   15  C   UNL     1      -3.114   0.401 -32.431  1.00  0.00     0.038 A 
HETATM   16  C   UNL     1      -3.401   1.682 -31.683  1.00  0.00     0.011 A 
HETATM   17  C   UNL     1      -2.962   0.464 -30.927  1.00  0.00     0.011 A 
ENDBRANCH  13  15
ENDBRANCH   2   5
BRANCH   1  18
HETATM   18  C   UNL     1      -9.430   1.529 -33.207  1.00  0.00     0.043 A 
HETATM   19  C   UNL     1      -9.721   2.768 -32.615  1.00  0.00    -0.032 A 
HETATM   20  C   UNL     1      -8.725   3.671 -31.947  1.00  0.00     0.050 C 
HETATM   21  C   UNL     1     -11.060   3.234 -32.625  1.00  0.00     0.048 A 
HETATM   22  C   UNL     1     -12.098   2.507 -33.211  1.00  0.00     0.102 A 
HETATM   23  C   UNL     1     -11.815   1.262 -33.778  1.00  0.00     0.103 A 
HETATM   24  C   UNL     1     -10.500   0.783 -33.756  1.00  0.00     0.069 A 
BRANCH  22  25
HETATM   25  O   UNL     1     -13.404   2.925 -33.266  1.00  0.00    -0.353 OA
HETATM   26  C   UNL     1     -14.117   2.975 -32.037  1.00  0.00     0.210 C 
ENDBRANCH  22  25
BRANCH  23  27
HETATM   27  O   UNL     1     -12.876   0.578 -34.317  1.00  0.00    -0.353 OA
HETATM   28  C   UNL     1     -13.360  -0.540 -33.586  1.00  0.00     0.210 C 
ENDBRANCH  23  27
ENDBRANCH   1  18
TORSDOF 5
ENDMDL
MODEL 6
REMARK VINA RESULT:      -8.1      1.975      3.890
REMARK  5 active torsions:
REMARK  status: ('A' for Active; 'I' for Inactive)
REMARK    1  A    between atoms: C_3  and  N_4 
REMARK       I    between atoms: N_4  and  C_5 
REMARK    2  A    between atoms: C_5  and  C_6 
REMARK    3  A    between atoms: C_14  and  C_15 
REMARK    4  A    between atoms: C_21  and  O_22 
REMARK    5  A    between atoms: C_24  and  O_25 
ROOT
HETATM    1  N   UNL     1      -8.460   1.752 -34.048  1.00  0.00    -0.322 N 
HETATM    2  C   UNL     1      -8.111   0.943 -32.987  1.00  0.00     0.257 C 
HETATM    3  O   UNL     1      -8.805   0.528 -32.072  1.00  0.00    -0.267 OA
HETATM    4  H   UNL     1      -7.750   1.807 -34.770  1.00  0.00     0.169 HD
ENDROOT
BRANCH   2   5
HETATM    5  C   UNL     1      -6.693   0.488 -33.012  1.00  0.00     0.046 A 
HETATM    6  C   UNL     1      -6.294  -0.754 -33.561  1.00  0.00     0.008 A 
HETATM    7  C   UNL     1      -4.924  -1.055 -33.457  1.00  0.00     0.068 A 
HETATM    8  C   UNL     1      -7.144  -1.683 -34.221  1.00  0.00     0.015 A 
HETATM    9  C   UNL     1      -4.465  -2.273 -33.942  1.00  0.00     0.032 A 
HETATM   10  N   UNL     1      -4.026  -0.212 -32.922  1.00  0.00    -0.252 NA
HETATM   11  C   UNL     1      -5.313  -3.197 -34.554  1.00  0.00     0.002 A 
HETATM   12  C   UNL     1      -6.658  -2.897 -34.704  1.00  0.00     0.001 A 
HETATM   13  C   UNL     1      -4.413   1.005 -32.469  1.00  0.00     0.040 A 
HETATM   14  C   UNL     1      -5.746   1.375 -32.494  1.00  0.00     0.045 A 
BRANCH  13  15
HETATM   15  C   UNL     1      -3.346   1.956 -31.984  1.00  0.00     0.038 A 
HETATM   16  C   UNL     1      -3.159   3.310 -32.627  1.00  0.00     0.011 A 
HETATM   17  C   UNL     1      -3.746   3.218 -31.251  1.00  0.00     0.011 A 
ENDBRANCH  13  15
ENDBRANCH   2   5
BRANCH   1  18
HETATM   18  C   UNL     1      -9.575   2.601 -34.270  1.00  0.00     0.043 A 
HETATM   19  C   UNL     1      -9.624   4.004 -34.248  1.00  0.00    -0.032 A 
HETATM   20  C   UNL     1      -8.489   4.910 -33.865  1.00  0.00     0.050 C 
HETATM   21  C   UNL     1     -10.832   4.653 -34.604  1.00  0.00     0.048 A 
HETATM   22  C   UNL     1     -11.974   3.946 -34.985  1.00  0.00     0.102 A 
HETATM   23  C   UNL     1     -11.936   2.550 -34.983  1.00  0.00     0.103 A 
HETATM   24  C   UNL     1     -10.754   1.898 -34.613  1.00  0.00     0.069 A 
BRANCH  22  25
HETATM   25  O   UNL     1     -13.158   4.529 -35.360  1.00  0.00    -0.353 OA
HETATM   26  C   UNL     1     -13.113   5.899 -35.736  1.00  0.00     0.210 C 
ENDBRANCH  22  25
BRANCH  23  27
HETATM   27  O   UNL     1     -13.093   1.903 -35.342  1.00  0.00    -0.353 OA
HETATM   28  C   UNL     1     -13.686   1.057 -34.367  1.00  0.00     0.210 C 
ENDBRANCH  23  27
ENDBRANCH   1  18
TORSDOF 5
ENDMDL
MODEL 7
REMARK VINA RESULT:      -8.0      2.343      3.378
REMARK  5 active torsions:
REMARK  status: ('A' for Active; 'I' for Inactive)
REMARK    1  A    between atoms: C_3  and  N_4 
REMARK       I    between atoms: N_4  and  C_5 
REMARK    2  A    between atoms: C_5  and  C_6 
REMARK    3  A    between atoms: C_14  and  C_15 
REMARK    4  A    between atoms: C_21  and  O_22 
REMARK    5  A    between atoms: C_24  and  O_25 
ROOT
HETATM    1  N   UNL     1      -9.335   1.656 -34.330  1.00  0.00    -0.322 N 
HETATM    2  C   UNL     1      -9.349   0.584 -33.463  1.00  0.00     0.257 C 
HETATM    3  O   UNL     1     -10.287   0.106 -32.844  1.00  0.00    -0.267 OA
HETATM    4  H   UNL     1      -8.472   1.745 -34.855  1.00  0.00     0.169 HD
ENDROOT
BRANCH   2   5
HETATM    5  C   UNL     1      -8.032  -0.095 -33.315  1.00  0.00     0.046 A 
HETATM    6  C   UNL     1      -7.126   0.205 -32.270  1.00  0.00     0.008 A 
HETATM    7  C   UNL     1      -5.903  -0.488 -32.305  1.00  0.00     0.068 A 
HETATM    8  C   UNL     1      -7.363   1.109 -31.197  1.00  0.00     0.015 A 
HETATM    9  C   UNL     1      -4.950  -0.219 -31.331  1.00  0.00     0.032 A 
HETATM   10  N   UNL     1      -5.613  -1.418 -33.230  1.00  0.00    -0.252 NA
HETATM   11  C   UNL     1      -5.175   0.698 -30.304  1.00  0.00     0.002 A 
HETATM   12  C   UNL     1      -6.392   1.358 -30.230  1.00  0.00     0.001 A 
HETATM   13  C   UNL     1      -6.522  -1.747 -34.179  1.00  0.00     0.040 A 
HETATM   14  C   UNL     1      -7.739  -1.091 -34.249  1.00  0.00     0.045 A 
BRANCH  13  15
HETATM   15  C   UNL     1      -6.188  -2.878 -35.122  1.00  0.00     0.038 A 
HETATM   16  C   UNL     1      -5.260  -3.994 -34.703  1.00  0.00     0.011 A 
HETATM   17  C   UNL     1      -6.727  -4.265 -34.848  1.00  0.00     0.011 A 
ENDBRANCH  13  15
ENDBRANCH   2   5
BRANCH   1  18
HETATM   18  C   UNL     1     -10.254   2.715 -34.550  1.00  0.00     0.043 A 
HETATM   19  C   UNL     1     -11.603   2.638 -34.930  1.00  0.00    -0.032 A 
HETATM   20  C   UNL     1     -12.335   1.379 -35.297  1.00  0.00     0.050 C 
HETATM   21  C   UNL     1     -12.367   3.830 -34.991  1.00  0.00     0.048 A 
HETATM   22  C   UNL     1     -11.826   5.079 -34.678  1.00  0.00     0.102 A 
HETATM   23  C   UNL     1     -10.477   5.161 -34.324  1.00  0.00     0.103 A 
HETATM   24  C   UNL     1      -9.708   3.993 -34.280  1.00  0.00     0.069 A 
BRANCH  22  25
HETATM   25  O   UNL     1     -12.529   6.256 -34.700  1.00  0.00    -0.353 OA
HETATM   26  C   UNL     1     -13.355   6.494 -35.832  1.00  0.00     0.210 C 
ENDBRANCH  22  25
BRANCH  23  27
HETATM   27  O   UNL     1      -9.990   6.415 -34.050  1.00  0.00    -0.353 OA
HETATM   28  C   UNL     1      -9.074   6.529 -32.970  1.00  0.00     0.210 C 
ENDBRANCH  23  27
ENDBRANCH   1  18
TORSDOF 5
ENDMDL
MODEL 8
REMARK VINA RESULT:      -7.9      3.692      7.241
REMARK  5 active torsions:
REMARK  status: ('A' for Active; 'I' for Inactive)
REMARK    1  A    between atoms: C_3  and  N_4 
REMARK       I    between atoms: N_4  and  C_5 
REMARK    2  A    between atoms: C_5  and  C_6 
REMARK    3  A    between atoms: C_14  and  C_15 
REMARK    4  A    between atoms: C_21  and  O_22 
REMARK    5  A    between atoms: C_24  and  O_25 
ROOT
HETATM    1  N   UNL     1      -5.413   2.841 -32.128  1.00  0.00    -0.322 N 
HETATM    2  C   UNL     1      -5.438   1.538 -31.676  1.00  0.00     0.257 C 
HETATM    3  O   UNL     1      -4.848   1.039 -30.731  1.00  0.00    -0.267 OA
HETATM    4  H   UNL     1      -6.128   3.046 -32.818  1.00  0.00     0.169 HD
ENDROOT
BRANCH   2   5
HETATM    5  C   UNL     1      -6.358   0.648 -32.437  1.00  0.00     0.046 A 
HETATM    6  C   UNL     1      -5.918  -0.519 -33.106  1.00  0.00     0.008 A 
HETATM    7  C   UNL     1      -6.904  -1.219 -33.824  1.00  0.00     0.068 A 
HETATM    8  C   UNL     1      -4.596  -1.042 -33.085  1.00  0.00     0.015 A 
HETATM    9  C   UNL     1      -6.540  -2.355 -34.535  1.00  0.00     0.032 A 
HETATM   10  N   UNL     1      -8.196  -0.852 -33.843  1.00  0.00    -0.252 NA
HETATM   11  C   UNL     1      -5.231  -2.839 -34.541  1.00  0.00     0.002 A 
HETATM   12  C   UNL     1      -4.255  -2.186 -33.804  1.00  0.00     0.001 A 
HETATM   13  C   UNL     1      -8.614   0.225 -33.135  1.00  0.00     0.040 A 
HETATM   14  C   UNL     1      -7.709   0.999 -32.430  1.00  0.00     0.045 A 
BRANCH  13  15
HETATM   15  C   UNL     1     -10.093   0.524 -33.101  1.00  0.00     0.038 A 
HETATM   16  C   UNL     1     -10.598   1.932 -32.889  1.00  0.00     0.011 A 
HETATM   17  C   UNL     1     -10.728   1.293 -34.239  1.00  0.00     0.011 A 
ENDBRANCH  13  15
ENDBRANCH   2   5
BRANCH   1  18
HETATM   18  C   UNL     1      -4.517   3.915 -31.890  1.00  0.00     0.043 A 
HETATM   19  C   UNL     1      -4.543   4.863 -30.856  1.00  0.00    -0.032 A 
HETATM   20  C   UNL     1      -5.626   4.999 -29.824  1.00  0.00     0.050 C 
HETATM   21  C   UNL     1      -3.479   5.793 -30.751  1.00  0.00     0.048 A 
HETATM   22  C   UNL     1      -2.398   5.792 -31.637  1.00  0.00     0.102 A 
HETATM   23  C   UNL     1      -2.383   4.865 -32.682  1.00  0.00     0.103 A 
HETATM   24  C   UNL     1      -3.439   3.956 -32.806  1.00  0.00     0.069 A 
BRANCH  22  25
HETATM   25  O   UNL     1      -1.334   6.655 -31.563  1.00  0.00    -0.353 OA
HETATM   26  C   UNL     1      -1.541   7.976 -32.044  1.00  0.00     0.210 C 
ENDBRANCH  22  25
BRANCH  23  27
HETATM   27  O   UNL     1      -1.311   4.924 -33.538  1.00  0.00    -0.353 OA
HETATM   28  C   UNL     1      -1.591   5.206 -34.902  1.00  0.00     0.210 C 
ENDBRANCH  23  27
ENDBRANCH   1  18
TORSDOF 5
ENDMDL
MODEL 9
REMARK VINA RESULT:      -7.9      2.441      8.110
REMARK  5 active torsions:
REMARK  status: ('A' for Active; 'I' for Inactive)
REMARK    1  A    between atoms: C_3  and  N_4 
REMARK       I    between atoms: N_4  and  C_5 
REMARK    2  A    between atoms: C_5  and  C_6 
REMARK    3  A    between atoms: C_14  and  C_15 
REMARK    4  A    between atoms: C_21  and  O_22 
REMARK    5  A    between atoms: C_24  and  O_25 
ROOT
HETATM    1  N   UNL     1      -7.837   0.798 -33.513  1.00  0.00    -0.322 N 
HETATM    2  C   UNL     1      -8.907   0.939 -32.654  1.00  0.00     0.257 C 
HETATM    3  O   UNL     1      -9.027   0.553 -31.502  1.00  0.00    -0.267 OA
HETATM    4  H   UNL     1      -7.910   1.362 -34.352  1.00  0.00     0.169 HD
ENDROOT
BRANCH   2   5
HETATM    5  C   UNL     1     -10.042   1.718 -33.222  1.00  0.00     0.046 A 
HETATM    6  C   UNL     1     -11.301   1.140 -33.511  1.00  0.00     0.008 A 
HETATM    7  C   UNL     1     -12.249   2.000 -34.094  1.00  0.00     0.068 A 
HETATM    8  C   UNL     1     -11.683  -0.203 -33.237  1.00  0.00     0.015 A 
HETATM    9  C   UNL     1     -13.495   1.494 -34.438  1.00  0.00     0.032 A 
HETATM   10  N   UNL     1     -12.014   3.303 -34.322  1.00  0.00    -0.252 NA
HETATM   11  C   UNL     1     -13.849   0.165 -34.201  1.00  0.00     0.002 A 
HETATM   12  C   UNL     1     -12.942  -0.686 -33.588  1.00  0.00     0.001 A 
HETATM   13  C   UNL     1     -10.829   3.858 -33.970  1.00  0.00     0.040 A 
HETATM   14  C   UNL     1      -9.821   3.082 -33.425  1.00  0.00     0.045 A 
BRANCH  13  15
HETATM   15  C   UNL     1     -10.661   5.348 -34.143  1.00  0.00     0.038 A 
HETATM   16  C   UNL     1      -9.289   5.977 -34.194  1.00  0.00     0.011 A 
HETATM   17  C   UNL     1     -10.112   5.893 -35.444  1.00  0.00     0.011 A 
ENDBRANCH  13  15
ENDBRANCH   2   5
BRANCH   1  18
HETATM   18  C   UNL     1      -6.708  -0.063 -33.494  1.00  0.00     0.043 A 
HETATM   19  C   UNL     1      -5.561   0.017 -32.689  1.00  0.00    -0.032 A 
HETATM   20  C   UNL     1      -5.243   1.130 -31.732  1.00  0.00     0.050 C 
HETATM   21  C   UNL     1      -4.597  -1.018 -32.766  1.00  0.00     0.048 A 
HETATM   22  C   UNL     1      -4.753  -2.121 -33.609  1.00  0.00     0.102 A 
HETATM   23  C   UNL     1      -5.881  -2.189 -34.430  1.00  0.00     0.103 A 
HETATM   24  C   UNL     1      -6.830  -1.162 -34.377  1.00  0.00     0.069 A 
BRANCH  22  25
HETATM   25  O   UNL     1      -3.860  -3.158 -33.702  1.00  0.00    -0.353 OA
HETATM   26  C   UNL     1      -3.325  -3.660 -32.485  1.00  0.00     0.210 C 
ENDBRANCH  22  25
BRANCH  23  27
HETATM   27  O   UNL     1      -5.972  -3.281 -35.258  1.00  0.00    -0.353 OA
HETATM   28  C   UNL     1      -6.845  -4.326 -34.852  1.00  0.00     0.210 C 
ENDBRANCH  23  27
ENDBRANCH   1  18
TORSDOF 5
ENDMDL
MODEL 10
REMARK VINA RESULT:      -7.8      3.788      7.632
REMARK  5 active torsions:
REMARK  status: ('A' for Active; 'I' for Inactive)
REMARK    1  A    between atoms: C_3  and  N_4 
REMARK       I    between atoms: N_4  and  C_5 
REMARK    2  A    between atoms: C_5  and  C_6 
REMARK    3  A    between atoms: C_14  and  C_15 
REMARK    4  A    between atoms: C_21  and  O_22 
REMARK    5  A    between atoms: C_24  and  O_25 
ROOT
HETATM    1  N   UNL     1      -5.219   1.144 -33.148  1.00  0.00    -0.322 N 
HETATM    2  C   UNL     1      -4.974   1.663 -31.894  1.00  0.00     0.257 C 
HETATM    3  O   UNL     1      -4.617   1.089 -30.878  1.00  0.00    -0.267 OA
HETATM    4  H   UNL     1      -5.328   1.850 -33.868  1.00  0.00     0.169 HD
ENDROOT
BRANCH   2   5
HETATM    5  C   UNL     1      -5.131   3.142 -31.808  1.00  0.00     0.046 A 
HETATM    6  C   UNL     1      -4.108   4.046 -32.182  1.00  0.00     0.008 A 
HETATM    7  C   UNL     1      -4.397   5.408 -31.989  1.00  0.00     0.068 A 
HETATM    8  C   UNL     1      -2.854   3.693 -32.752  1.00  0.00     0.015 A 
HETATM    9  C   UNL     1      -3.428   6.352 -32.301  1.00  0.00     0.032 A 
HETATM   10  N   UNL     1      -5.580   5.849 -31.531  1.00  0.00    -0.252 NA
HETATM   11  C   UNL     1      -2.184   5.995 -32.824  1.00  0.00     0.002 A 
HETATM   12  C   UNL     1      -1.899   4.659 -33.061  1.00  0.00     0.001 A 
HETATM   13  C   UNL     1      -6.576   4.974 -31.248  1.00  0.00     0.040 A 
HETATM   14  C   UNL     1      -6.371   3.611 -31.370  1.00  0.00     0.045 A 
BRANCH  13  15
HETATM   15  C   UNL     1      -7.920   5.531 -30.846  1.00  0.00     0.038 A 
HETATM   16  C   UNL     1      -8.954   4.658 -30.175  1.00  0.00     0.011 A 
HETATM   17  C   UNL     1      -8.246   5.713 -29.379  1.00  0.00     0.011 A 
ENDBRANCH  13  15
ENDBRANCH   2   5
BRANCH   1  18
HETATM   18  C   UNL     1      -5.449  -0.181 -33.602  1.00  0.00     0.043 A 
HETATM   19  C   UNL     1      -6.490  -0.658 -34.413  1.00  0.00    -0.032 A 
HETATM   20  C   UNL     1      -7.665   0.147 -34.889  1.00  0.00     0.050 C 
HETATM   21  C   UNL     1      -6.467  -2.012 -34.832  1.00  0.00     0.048 A 
HETATM   22  C   UNL     1      -5.438  -2.886 -34.472  1.00  0.00     0.102 A 
HETATM   23  C   UNL     1      -4.415  -2.420 -33.643  1.00  0.00     0.103 A 
HETATM   24  C   UNL     1      -4.439  -1.090 -33.207  1.00  0.00     0.069 A 
BRANCH  22  25
HETATM   25  O   UNL     1      -5.359  -4.196 -34.871  1.00  0.00    -0.353 OA
HETATM   26  C   UNL     1      -6.490  -4.736 -35.542  1.00  0.00     0.210 C 
ENDBRANCH  22  25
BRANCH  23  27
HETATM   27  O   UNL     1      -3.443  -3.326 -33.299  1.00  0.00    -0.353 OA
HETATM   28  C   UNL     1      -3.116  -3.427 -31.920  1.00  0.00     0.210 C 
ENDBRANCH  23  27
ENDBRANCH   1  18
TORSDOF 5
ENDMDL
