MODEL 1
REMARK VINA RESULT:      -8.9      0.000      0.000
REMARK  5 active torsions:
REMARK  status: ('A' for Active; 'I' for Inactive)
REMARK    1  A    between atoms: C_2  and  C_3 
REMARK    2  A    between atoms: C_2  and  C_9 
REMARK    3  A    between atoms: C_9  and  C_10 
REMARK       I    between atoms: C_10  and  N_11 
REMARK    4  A    between atoms: N_11  and  C_12 
REMARK    5  A    between atoms: C_19  and  C_20 
REMARK       I    between atoms: C_20  and  N_21 
ROOT
HETATM    1  C   UNL     1      -3.660   3.523 -32.662  1.00  0.00     0.035 A 
HETATM    2  C   UNL     1      -2.539   3.796 -31.865  1.00  0.00     0.046 A 
HETATM    3  C   UNL     1      -1.913   5.059 -31.950  1.00  0.00     0.030 A 
HETATM    4  C   UNL     1      -2.433   6.007 -32.821  1.00  0.00     0.063 A 
HETATM    5  N   UNL     1      -1.631   7.106 -32.684  1.00  0.00    -0.277 N 
HETATM    6  H   UNL     1      -1.714   7.991 -33.169  1.00  0.00     0.189 HD
HETATM    7  N   UNL     1      -0.629   6.957 -31.803  1.00  0.00    -0.168 NA
HETATM    8  C   UNL     1      -0.788   5.695 -31.341  1.00  0.00     0.156 A 
HETATM    9  C   UNL     1      -3.549   5.774 -33.626  1.00  0.00     0.034 A 
HETATM   10  C   UNL     1      -4.148   4.511 -33.529  1.00  0.00     0.032 A 
ENDROOT
BRANCH   1  11
HETATM   11  N   UNL     1      -4.331   2.282 -32.674  1.00  0.00    -0.327 N 
HETATM   12  C   UNL     1      -5.588   1.998 -32.170  1.00  0.00     0.223 C 
HETATM   13  O   UNL     1      -6.392   2.804 -31.715  1.00  0.00    -0.273 OA
HETATM   14  H   UNL     1      -3.832   1.516 -33.107  1.00  0.00     0.169 HD
BRANCH  12  15
HETATM   15  C   UNL     1      -5.918   0.513 -32.200  1.00  0.00     0.116 C 
BRANCH  15  16
HETATM   16  C   UNL     1      -6.779   0.070 -33.416  1.00  0.00    -0.012 C 
HETATM   17  C   UNL     1      -6.707   1.152 -34.522  1.00  0.00     0.020 C 
HETATM   18  C   UNL     1      -8.271  -0.073 -33.034  1.00  0.00     0.020 C 
BRANCH  16  19
HETATM   19  C   UNL     1      -6.254  -1.307 -33.890  1.00  0.00    -0.050 A 
HETATM   20  C   UNL     1      -4.889  -1.645 -33.866  1.00  0.00     0.008 A 
HETATM   21  C   UNL     1      -4.443  -2.897 -34.302  1.00  0.00     0.001 A 
HETATM   22  C   UNL     1      -5.350  -3.844 -34.764  1.00  0.00     0.000 A 
HETATM   23  C   UNL     1      -6.707  -3.541 -34.788  1.00  0.00     0.001 A 
HETATM   24  C   UNL     1      -7.153  -2.289 -34.355  1.00  0.00     0.008 A 
ENDBRANCH  16  19
ENDBRANCH  15  16
ENDBRANCH  12  15
ENDBRANCH   1  11
BRANCH   8  25
HETATM   25  C   UNL     1       0.131   5.129 -30.344  1.00  0.00     0.270 C 
HETATM   26  N   UNL     1      -0.164   5.475 -29.053  1.00  0.00    -0.365 N 
HETATM   27  H   UNL     1      -0.962   6.078 -28.883  1.00  0.00     0.159 HD
HETATM   28  H   UNL     1       0.415   5.139 -28.301  1.00  0.00     0.159 HD
HETATM   29  O   UNL     1       1.090   4.411 -30.602  1.00  0.00    -0.266 OA
ENDBRANCH   8  25
TORSDOF 5
ENDMDL
MODEL 2
REMARK VINA RESULT:      -8.6      5.552      7.612
REMARK  5 active torsions:
REMARK  status: ('A' for Active; 'I' for Inactive)
REMARK    1  A    between atoms: C_2  and  C_3 
REMARK    2  A    between atoms: C_2  and  C_9 
REMARK    3  A    between atoms: C_9  and  C_10 
REMARK       I    between atoms: C_10  and  N_11 
REMARK    4  A    between atoms: N_11  and  C_12 
REMARK    5  A    between atoms: C_19  and  C_20 
REMARK       I    between atoms: C_20  and  N_21 
ROOT
HETATM    1  C   UNL     1     -10.506   1.319 -33.811  1.00  0.00     0.035 A 
HETATM    2  C   UNL     1     -10.211   2.630 -34.209  1.00  0.00     0.046 A 
HETATM    3  C   UNL     1     -11.263   3.513 -34.539  1.00  0.00     0.030 A 
HETATM    4  C   UNL     1     -12.572   3.057 -34.454  1.00  0.00     0.063 A 
HETATM    5  N   UNL     1     -13.351   4.116 -34.828  1.00  0.00    -0.277 N 
HETATM    6  H   UNL     1     -14.362   4.145 -34.884  1.00  0.00     0.189 HD
HETATM    7  N   UNL     1     -12.665   5.223 -35.156  1.00  0.00    -0.168 NA
HETATM    8  C   UNL     1     -11.371   4.866 -34.984  1.00  0.00     0.156 A 
HETATM    9  C   UNL     1     -12.904   1.761 -34.058  1.00  0.00     0.034 A 
HETATM   10  C   UNL     1     -11.843   0.902 -33.743  1.00  0.00     0.032 A 
ENDROOT
BRANCH   1  11
HETATM   11  N   UNL     1      -9.525   0.354 -33.496  1.00  0.00    -0.327 N 
HETATM   12  C   UNL     1      -8.342   0.549 -32.805  1.00  0.00     0.223 C 
HETATM   13  O   UNL     1      -7.983   1.581 -32.248  1.00  0.00    -0.273 OA
HETATM   14  H   UNL     1      -9.716  -0.588 -33.810  1.00  0.00     0.169 HD
BRANCH  12  15
HETATM   15  C   UNL     1      -7.445  -0.680 -32.804  1.00  0.00     0.116 C 
BRANCH  15  16
HETATM   16  C   UNL     1      -6.354  -0.680 -33.911  1.00  0.00    -0.012 C 
HETATM   17  C   UNL     1      -5.148   0.175 -33.449  1.00  0.00     0.020 C 
HETATM   18  C   UNL     1      -6.873  -0.041 -35.221  1.00  0.00     0.020 C 
BRANCH  16  19
HETATM   19  C   UNL     1      -5.970  -2.153 -34.195  1.00  0.00    -0.050 A 
HETATM   20  C   UNL     1      -6.892  -3.093 -34.687  1.00  0.00     0.008 A 
HETATM   21  C   UNL     1      -6.518  -4.418 -34.933  1.00  0.00     0.001 A 
HETATM   22  C   UNL     1      -5.211  -4.834 -34.701  1.00  0.00     0.000 A 
HETATM   23  C   UNL     1      -4.276  -3.923 -34.225  1.00  0.00     0.001 A 
HETATM   24  C   UNL     1      -4.650  -2.599 -33.977  1.00  0.00     0.008 A 
ENDBRANCH  16  19
ENDBRANCH  15  16
ENDBRANCH  12  15
ENDBRANCH   1  11
BRANCH   8  25
HETATM   25  C   UNL     1     -10.280   5.813 -35.251  1.00  0.00     0.270 C 
HETATM   26  N   UNL     1     -10.687   6.988 -35.821  1.00  0.00    -0.365 N 
HETATM   27  H   UNL     1     -11.674   7.116 -36.016  1.00  0.00     0.159 HD
HETATM   28  H   UNL     1     -10.007   7.696 -36.046  1.00  0.00     0.159 HD
HETATM   29  O   UNL     1      -9.097   5.606 -35.005  1.00  0.00    -0.266 OA
ENDBRANCH   8  25
TORSDOF 5
ENDMDL
MODEL 3
REMARK VINA RESULT:      -8.6      3.907      4.536
REMARK  5 active torsions:
REMARK  status: ('A' for Active; 'I' for Inactive)
REMARK    1  A    between atoms: C_2  and  C_3 
REMARK    2  A    between atoms: C_2  and  C_9 
REMARK    3  A    between atoms: C_9  and  C_10 
REMARK       I    between atoms: C_10  and  N_11 
REMARK    4  A    between atoms: N_11  and  C_12 
REMARK    5  A    between atoms: C_19  and  C_20 
REMARK       I    between atoms: C_20  and  N_21 
ROOT
HETATM    1  C   UNL     1      -7.302   3.230 -31.102  1.00  0.00     0.035 A 
HETATM    2  C   UNL     1      -6.510   3.948 -30.196  1.00  0.00     0.046 A 
HETATM    3  C   UNL     1      -7.105   4.932 -29.375  1.00  0.00     0.030 A 
HETATM    4  C   UNL     1      -8.471   5.158 -29.484  1.00  0.00     0.063 A 
HETATM    5  N   UNL     1      -8.749   6.146 -28.581  1.00  0.00    -0.277 N 
HETATM    6  H   UNL     1      -9.651   6.565 -28.388  1.00  0.00     0.189 HD
HETATM    7  N   UNL     1      -7.683   6.590 -27.896  1.00  0.00    -0.168 NA
HETATM    8  C   UNL     1      -6.657   5.850 -28.377  1.00  0.00     0.156 A 
HETATM    9  C   UNL     1      -9.291   4.460 -30.371  1.00  0.00     0.034 A 
HETATM   10  C   UNL     1      -8.677   3.495 -31.179  1.00  0.00     0.032 A 
ENDROOT
BRANCH   1  11
HETATM   11  N   UNL     1      -6.794   2.255 -31.988  1.00  0.00    -0.327 N 
HETATM   12  C   UNL     1      -6.406   0.962 -31.685  1.00  0.00     0.223 C 
HETATM   13  O   UNL     1      -6.532   0.395 -30.605  1.00  0.00    -0.273 OA
HETATM   14  H   UNL     1      -6.712   2.538 -32.955  1.00  0.00     0.169 HD
BRANCH  12  15
HETATM   15  C   UNL     1      -5.742   0.252 -32.856  1.00  0.00     0.116 C 
BRANCH  15  16
HETATM   16  C   UNL     1      -6.735  -0.400 -33.858  1.00  0.00    -0.012 C 
HETATM   17  C   UNL     1      -6.842   0.480 -35.128  1.00  0.00     0.020 C 
HETATM   18  C   UNL     1      -8.161  -0.495 -33.265  1.00  0.00     0.020 C 
BRANCH  16  19
HETATM   19  C   UNL     1      -6.228  -1.830 -34.161  1.00  0.00    -0.050 A 
HETATM   20  C   UNL     1      -7.076  -2.852 -34.624  1.00  0.00     0.008 A 
HETATM   21  C   UNL     1      -6.590  -4.136 -34.889  1.00  0.00     0.001 A 
HETATM   22  C   UNL     1      -5.243  -4.429 -34.705  1.00  0.00     0.000 A 
HETATM   23  C   UNL     1      -4.379  -3.436 -34.259  1.00  0.00     0.001 A 
HETATM   24  C   UNL     1      -4.865  -2.153 -33.992  1.00  0.00     0.008 A 
ENDBRANCH  16  19
ENDBRANCH  15  16
ENDBRANCH  12  15
ENDBRANCH   1  11
BRANCH   8  25
HETATM   25  C   UNL     1      -5.287   6.038 -27.881  1.00  0.00     0.270 C 
HETATM   26  N   UNL     1      -4.984   5.286 -26.779  1.00  0.00    -0.365 N 
HETATM   27  H   UNL     1      -5.700   4.679 -26.394  1.00  0.00     0.159 HD
HETATM   28  H   UNL     1      -4.069   5.353 -26.364  1.00  0.00     0.159 HD
HETATM   29  O   UNL     1      -4.459   6.794 -28.378  1.00  0.00    -0.266 OA
ENDBRANCH   8  25
TORSDOF 5
ENDMDL
MODEL 4
REMARK VINA RESULT:      -8.5      5.544      7.892
REMARK  5 active torsions:
REMARK  status: ('A' for Active; 'I' for Inactive)
REMARK    1  A    between atoms: C_2  and  C_3 
REMARK    2  A    between atoms: C_2  and  C_9 
REMARK    3  A    between atoms: C_9  and  C_10 
REMARK       I    between atoms: C_10  and  N_11 
REMARK    4  A    between atoms: N_11  and  C_12 
REMARK    5  A    between atoms: C_19  and  C_20 
REMARK       I    between atoms: C_20  and  N_21 
ROOT
HETATM    1  C   UNL     1     -10.655   1.677 -34.243  1.00  0.00     0.035 A 
HETATM    2  C   UNL     1     -10.898   2.459 -33.106  1.00  0.00     0.046 A 
HETATM    3  C   UNL     1     -12.088   3.215 -33.019  1.00  0.00     0.030 A 
HETATM    4  C   UNL     1     -12.996   3.157 -34.068  1.00  0.00     0.063 A 
HETATM    5  N   UNL     1     -14.027   3.976 -33.702  1.00  0.00    -0.277 N 
HETATM    6  H   UNL     1     -14.869   4.177 -34.229  1.00  0.00     0.189 HD
HETATM    7  N   UNL     1     -13.869   4.569 -32.508  1.00  0.00    -0.168 NA
HETATM    8  C   UNL     1     -12.673   4.110 -32.073  1.00  0.00     0.156 A 
HETATM    9  C   UNL     1     -12.790   2.387 -35.214  1.00  0.00     0.034 A 
HETATM   10  C   UNL     1     -11.600   1.652 -35.279  1.00  0.00     0.032 A 
ENDROOT
BRANCH   1  11
HETATM   11  N   UNL     1      -9.481   0.917 -34.438  1.00  0.00    -0.327 N 
HETATM   12  C   UNL     1      -8.172   1.366 -34.412  1.00  0.00     0.223 C 
HETATM   13  O   UNL     1      -7.792   2.491 -34.108  1.00  0.00    -0.273 OA
HETATM   14  H   UNL     1      -9.619  -0.069 -34.612  1.00  0.00     0.169 HD
BRANCH  12  15
HETATM   15  C   UNL     1      -7.172   0.302 -34.838  1.00  0.00     0.116 C 
BRANCH  15  16
HETATM   16  C   UNL     1      -6.378  -0.340 -33.666  1.00  0.00    -0.012 C 
HETATM   17  C   UNL     1      -7.216  -0.258 -32.366  1.00  0.00     0.020 C 
HETATM   18  C   UNL     1      -5.058   0.420 -33.390  1.00  0.00     0.020 C 
BRANCH  16  19
HETATM   19  C   UNL     1      -6.037  -1.795 -34.068  1.00  0.00    -0.050 A 
HETATM   20  C   UNL     1      -4.738  -2.323 -33.970  1.00  0.00     0.008 A 
HETATM   21  C   UNL     1      -4.459  -3.642 -34.342  1.00  0.00     0.001 A 
HETATM   22  C   UNL     1      -5.473  -4.469 -34.814  1.00  0.00     0.000 A 
HETATM   23  C   UNL     1      -6.770  -3.977 -34.910  1.00  0.00     0.001 A 
HETATM   24  C   UNL     1      -7.048  -2.658 -34.541  1.00  0.00     0.008 A 
ENDBRANCH  16  19
ENDBRANCH  15  16
ENDBRANCH  12  15
ENDBRANCH   1  11
BRANCH   8  25
HETATM   25  C   UNL     1     -12.121   4.536 -30.780  1.00  0.00     0.270 C 
HETATM   26  N   UNL     1     -12.482   3.738 -29.728  1.00  0.00    -0.365 N 
HETATM   27  H   UNL     1     -13.085   2.943 -29.908  1.00  0.00     0.159 HD
HETATM   28  H   UNL     1     -12.155   3.955 -28.801  1.00  0.00     0.159 HD
HETATM   29  O   UNL     1     -11.401   5.514 -30.612  1.00  0.00    -0.266 OA
ENDBRANCH   8  25
TORSDOF 5
ENDMDL
MODEL 5
REMARK VINA RESULT:      -8.5      5.144      7.741
REMARK  5 active torsions:
REMARK  status: ('A' for Active; 'I' for Inactive)
REMARK    1  A    between atoms: C_2  and  C_3 
REMARK    2  A    between atoms: C_2  and  C_9 
REMARK    3  A    between atoms: C_9  and  C_10 
REMARK       I    between atoms: C_10  and  N_11 
REMARK    4  A    between atoms: N_11  and  C_12 
REMARK    5  A    between atoms: C_19  and  C_20 
REMARK       I    between atoms: C_20  and  N_21 
ROOT
HETATM    1  C   UNL     1      -9.167   1.481 -32.185  1.00  0.00     0.035 A 
HETATM    2  C   UNL     1     -10.139   1.601 -33.187  1.00  0.00     0.046 A 
HETATM    3  C   UNL     1     -11.099   2.635 -33.109  1.00  0.00     0.030 A 
HETATM    4  C   UNL     1     -11.048   3.516 -32.036  1.00  0.00     0.063 A 
HETATM    5  N   UNL     1     -12.082   4.388 -32.233  1.00  0.00    -0.277 N 
HETATM    6  H   UNL     1     -12.348   5.167 -31.643  1.00  0.00     0.189 HD
HETATM    7  N   UNL     1     -12.809   4.150 -33.336  1.00  0.00    -0.168 NA
HETATM    8  C   UNL     1     -12.215   3.067 -33.889  1.00  0.00     0.156 A 
HETATM    9  C   UNL     1     -10.092   3.430 -31.023  1.00  0.00     0.034 A 
HETATM   10  C   UNL     1      -9.156   2.393 -31.120  1.00  0.00     0.032 A 
ENDROOT
BRANCH   1  11
HETATM   11  N   UNL     1      -8.190   0.462 -32.157  1.00  0.00    -0.327 N 
HETATM   12  C   UNL     1      -6.855   0.583 -31.814  1.00  0.00     0.223 C 
HETATM   13  O   UNL     1      -6.303   1.583 -31.368  1.00  0.00    -0.273 OA
HETATM   14  H   UNL     1      -8.511  -0.462 -32.414  1.00  0.00     0.169 HD
BRANCH  12  15
HETATM   15  C   UNL     1      -6.060  -0.689 -32.067  1.00  0.00     0.116 C 
BRANCH  15  16
HETATM   16  C   UNL     1      -5.398  -0.765 -33.471  1.00  0.00    -0.012 C 
HETATM   17  C   UNL     1      -3.935  -0.266 -33.382  1.00  0.00     0.020 C 
HETATM   18  C   UNL     1      -6.117   0.153 -34.489  1.00  0.00     0.020 C 
BRANCH  16  19
HETATM   19  C   UNL     1      -5.503  -2.229 -33.963  1.00  0.00    -0.050 A 
HETATM   20  C   UNL     1      -6.686  -2.762 -34.504  1.00  0.00     0.008 A 
HETATM   21  C   UNL     1      -6.753  -4.089 -34.940  1.00  0.00     0.001 A 
HETATM   22  C   UNL     1      -5.636  -4.914 -34.853  1.00  0.00     0.000 A 
HETATM   23  C   UNL     1      -4.450  -4.410 -34.333  1.00  0.00     0.001 A 
HETATM   24  C   UNL     1      -4.384  -3.084 -33.895  1.00  0.00     0.008 A 
ENDBRANCH  16  19
ENDBRANCH  15  16
ENDBRANCH  12  15
ENDBRANCH   1  11
BRANCH   8  25
HETATM   25  C   UNL     1     -12.723   2.473 -35.133  1.00  0.00     0.270 C 
HETATM   26  N   UNL     1     -12.181   3.010 -36.270  1.00  0.00    -0.365 N 
HETATM   27  H   UNL     1     -11.497   3.753 -36.177  1.00  0.00     0.159 HD
HETATM   28  H   UNL     1     -12.474   2.670 -37.171  1.00  0.00     0.159 HD
HETATM   29  O   UNL     1     -13.560   1.580 -35.193  1.00  0.00    -0.266 OA
ENDBRANCH   8  25
TORSDOF 5
ENDMDL
MODEL 6
REMARK VINA RESULT:      -8.4      3.193      7.783
REMARK  5 active torsions:
REMARK  status: ('A' for Active; 'I' for Inactive)
REMARK    1  A    between atoms: C_2  and  C_3 
REMARK    2  A    between atoms: C_2  and  C_9 
REMARK    3  A    between atoms: C_9  and  C_10 
REMARK       I    between atoms: C_10  and  N_11 
REMARK    4  A    between atoms: N_11  and  C_12 
REMARK    5  A    between atoms: C_19  and  C_20 
REMARK       I    between atoms: C_20  and  N_21 
ROOT
HETATM    1  C   UNL     1      -5.103   0.244 -33.181  1.00  0.00     0.035 A 
HETATM    2  C   UNL     1      -4.486  -1.012 -33.096  1.00  0.00     0.046 A 
HETATM    3  C   UNL     1      -5.005  -2.096 -33.839  1.00  0.00     0.030 A 
HETATM    4  C   UNL     1      -6.116  -1.885 -34.645  1.00  0.00     0.063 A 
HETATM    5  N   UNL     1      -6.378  -3.094 -35.226  1.00  0.00    -0.277 N 
HETATM    6  H   UNL     1      -7.122  -3.314 -35.877  1.00  0.00     0.189 HD
HETATM    7  N   UNL     1      -5.540  -4.079 -34.865  1.00  0.00    -0.168 NA
HETATM    8  C   UNL     1      -4.685  -3.478 -34.005  1.00  0.00     0.156 A 
HETATM    9  C   UNL     1      -6.753  -0.648 -34.758  1.00  0.00     0.034 A 
HETATM   10  C   UNL     1      -6.224   0.409 -34.007  1.00  0.00     0.032 A 
ENDROOT
BRANCH   1  11
HETATM   11  N   UNL     1      -4.681   1.377 -32.452  1.00  0.00    -0.327 N 
HETATM   12  C   UNL     1      -5.263   1.914 -31.318  1.00  0.00     0.223 C 
HETATM   13  O   UNL     1      -6.194   1.436 -30.678  1.00  0.00    -0.273 OA
HETATM   14  H   UNL     1      -3.854   1.842 -32.801  1.00  0.00     0.169 HD
BRANCH  12  15
HETATM   15  C   UNL     1      -4.643   3.240 -30.903  1.00  0.00     0.116 C 
BRANCH  15  16
HETATM   16  C   UNL     1      -5.143   4.466 -31.717  1.00  0.00    -0.012 C 
HETATM   17  C   UNL     1      -5.287   5.688 -30.777  1.00  0.00     0.020 C 
HETATM   18  C   UNL     1      -6.542   4.211 -32.327  1.00  0.00     0.020 C 
BRANCH  16  19
HETATM   19  C   UNL     1      -4.137   4.710 -32.868  1.00  0.00    -0.050 A 
HETATM   20  C   UNL     1      -4.540   5.126 -34.149  1.00  0.00     0.008 A 
HETATM   21  C   UNL     1      -3.608   5.338 -35.171  1.00  0.00     0.001 A 
HETATM   22  C   UNL     1      -2.251   5.147 -34.934  1.00  0.00     0.000 A 
HETATM   23  C   UNL     1      -1.823   4.747 -33.674  1.00  0.00     0.001 A 
HETATM   24  C   UNL     1      -2.754   4.533 -32.653  1.00  0.00     0.008 A 
ENDBRANCH  16  19
ENDBRANCH  15  16
ENDBRANCH  12  15
ENDBRANCH   1  11
BRANCH   8  25
HETATM   25  C   UNL     1      -3.597  -4.230 -33.366  1.00  0.00     0.270 C 
HETATM   26  N   UNL     1      -3.195  -5.335 -34.066  1.00  0.00    -0.365 N 
HETATM   27  H   UNL     1      -3.661  -5.551 -34.940  1.00  0.00     0.159 HD
HETATM   28  H   UNL     1      -2.458  -5.916 -33.702  1.00  0.00     0.159 HD
HETATM   29  O   UNL     1      -3.071  -3.932 -32.299  1.00  0.00    -0.266 OA
ENDBRANCH   8  25
TORSDOF 5
ENDMDL
MODEL 7
REMARK VINA RESULT:      -8.4      1.570      1.888
REMARK  5 active torsions:
REMARK  status: ('A' for Active; 'I' for Inactive)
REMARK    1  A    between atoms: C_2  and  C_3 
REMARK    2  A    between atoms: C_2  and  C_9 
REMARK    3  A    between atoms: C_9  and  C_10 
REMARK       I    between atoms: C_10  and  N_11 
REMARK    4  A    between atoms: N_11  and  C_12 
REMARK    5  A    between atoms: C_19  and  C_20 
REMARK       I    between atoms: C_20  and  N_21 
ROOT
HETATM    1  C   UNL     1      -4.000   3.577 -32.076  1.00  0.00     0.035 A 
HETATM    2  C   UNL     1      -2.742   4.032 -31.661  1.00  0.00     0.046 A 
HETATM    3  C   UNL     1      -2.621   5.311 -31.074  1.00  0.00     0.030 A 
HETATM    4  C   UNL     1      -3.762   6.087 -30.916  1.00  0.00     0.063 A 
HETATM    5  N   UNL     1      -3.336   7.247 -30.331  1.00  0.00    -0.277 N 
HETATM    6  H   UNL     1      -3.901   8.046 -30.069  1.00  0.00     0.189 HD
HETATM    7  N   UNL     1      -2.015   7.299 -30.098  1.00  0.00    -0.168 NA
HETATM    8  C   UNL     1      -1.557   6.110 -30.553  1.00  0.00     0.156 A 
HETATM    9  C   UNL     1      -5.031   5.665 -31.314  1.00  0.00     0.034 A 
HETATM   10  C   UNL     1      -5.125   4.397 -31.900  1.00  0.00     0.032 A 
ENDROOT
BRANCH   1  11
HETATM   11  N   UNL     1      -4.217   2.332 -32.704  1.00  0.00    -0.327 N 
HETATM   12  C   UNL     1      -4.099   1.073 -32.143  1.00  0.00     0.223 C 
HETATM   13  O   UNL     1      -3.887   0.816 -30.963  1.00  0.00    -0.273 OA
HETATM   14  H   UNL     1      -4.494   2.371 -33.676  1.00  0.00     0.169 HD
BRANCH  12  15
HETATM   15  C   UNL     1      -4.236  -0.048 -33.163  1.00  0.00     0.116 C 
BRANCH  15  16
HETATM   16  C   UNL     1      -5.698  -0.510 -33.419  1.00  0.00    -0.012 C 
HETATM   17  C   UNL     1      -6.372   0.445 -34.436  1.00  0.00     0.020 C 
HETATM   18  C   UNL     1      -6.547  -0.450 -32.127  1.00  0.00     0.020 C 
BRANCH  16  19
HETATM   19  C   UNL     1      -5.650  -1.975 -33.914  1.00  0.00    -0.050 A 
HETATM   20  C   UNL     1      -6.764  -2.620 -34.479  1.00  0.00     0.008 A 
HETATM   21  C   UNL     1      -6.692  -3.946 -34.916  1.00  0.00     0.001 A 
HETATM   22  C   UNL     1      -5.503  -4.659 -34.807  1.00  0.00     0.000 A 
HETATM   23  C   UNL     1      -4.382  -4.043 -34.262  1.00  0.00     0.001 A 
HETATM   24  C   UNL     1      -4.455  -2.718 -33.822  1.00  0.00     0.008 A 
ENDBRANCH  16  19
ENDBRANCH  15  16
ENDBRANCH  12  15
ENDBRANCH   1  11
BRANCH   8  25
HETATM   25  C   UNL     1      -0.129   5.769 -30.487  1.00  0.00     0.270 C 
HETATM   26  N   UNL     1       0.175   4.822 -29.547  1.00  0.00    -0.365 N 
HETATM   27  H   UNL     1      -0.575   4.441 -28.982  1.00  0.00     0.159 HD
HETATM   28  H   UNL     1       1.131   4.529 -29.424  1.00  0.00     0.159 HD
HETATM   29  O   UNL     1       0.744   6.269 -31.187  1.00  0.00    -0.266 OA
ENDBRANCH   8  25
TORSDOF 5
ENDMDL
MODEL 8
REMARK VINA RESULT:      -8.1      2.667      3.435
REMARK  5 active torsions:
REMARK  status: ('A' for Active; 'I' for Inactive)
REMARK    1  A    between atoms: C_2  and  C_3 
REMARK    2  A    between atoms: C_2  and  C_9 
REMARK    3  A    between atoms: C_9  and  C_10 
REMARK       I    between atoms: C_10  and  N_11 
REMARK    4  A    between atoms: N_11  and  C_12 
REMARK    5  A    between atoms: C_19  and  C_20 
REMARK       I    between atoms: C_20  and  N_21 
ROOT
HETATM    1  C   UNL     1      -6.751   2.819 -31.102  1.00  0.00     0.035 A 
HETATM    2  C   UNL     1      -5.570   3.542 -31.319  1.00  0.00     0.046 A 
HETATM    3  C   UNL     1      -5.285   4.670 -30.518  1.00  0.00     0.030 A 
HETATM    4  C   UNL     1      -6.186   5.031 -29.524  1.00  0.00     0.063 A 
HETATM    5  N   UNL     1      -5.647   6.138 -28.929  1.00  0.00    -0.277 N 
HETATM    6  H   UNL     1      -6.035   6.672 -28.162  1.00  0.00     0.189 HD
HETATM    7  N   UNL     1      -4.476   6.535 -29.452  1.00  0.00    -0.168 NA
HETATM    8  C   UNL     1      -4.239   5.639 -30.437  1.00  0.00     0.156 A 
HETATM    9  C   UNL     1      -7.368   4.333 -29.276  1.00  0.00     0.034 A 
HETATM   10  C   UNL     1      -7.632   3.222 -30.088  1.00  0.00     0.032 A 
ENDROOT
BRANCH   1  11
HETATM   11  N   UNL     1      -7.140   1.701 -31.872  1.00  0.00    -0.327 N 
HETATM   12  C   UNL     1      -6.908   0.366 -31.596  1.00  0.00     0.223 C 
HETATM   13  O   UNL     1      -6.412  -0.094 -30.573  1.00  0.00    -0.273 OA
HETATM   14  H   UNL     1      -7.652   1.908 -32.719  1.00  0.00     0.169 HD
BRANCH  12  15
HETATM   15  C   UNL     1      -7.317  -0.555 -32.736  1.00  0.00     0.116 C 
BRANCH  15  16
HETATM   16  C   UNL     1      -6.304  -0.608 -33.914  1.00  0.00    -0.012 C 
HETATM   17  C   UNL     1      -5.045   0.217 -33.552  1.00  0.00     0.020 C 
HETATM   18  C   UNL     1      -6.893   0.024 -35.198  1.00  0.00     0.020 C 
BRANCH  16  19
HETATM   19  C   UNL     1      -5.985  -2.096 -34.195  1.00  0.00    -0.050 A 
HETATM   20  C   UNL     1      -6.958  -3.008 -34.642  1.00  0.00     0.008 A 
HETATM   21  C   UNL     1      -6.640  -4.348 -34.886  1.00  0.00     0.001 A 
HETATM   22  C   UNL     1      -5.341  -4.808 -34.698  1.00  0.00     0.000 A 
HETATM   23  C   UNL     1      -4.357  -3.926 -34.269  1.00  0.00     0.001 A 
HETATM   24  C   UNL     1      -4.674  -2.587 -34.022  1.00  0.00     0.008 A 
ENDBRANCH  16  19
ENDBRANCH  15  16
ENDBRANCH  12  15
ENDBRANCH   1  11
BRANCH   8  25
HETATM   25  C   UNL     1      -3.034   5.729 -31.273  1.00  0.00     0.270 C 
HETATM   26  N   UNL     1      -1.999   4.940 -30.849  1.00  0.00    -0.365 N 
HETATM   27  H   UNL     1      -2.131   4.374 -30.018  1.00  0.00     0.159 HD
HETATM   28  H   UNL     1      -1.129   4.941 -31.356  1.00  0.00     0.159 HD
HETATM   29  O   UNL     1      -2.921   6.439 -32.266  1.00  0.00    -0.266 OA
ENDBRANCH   8  25
TORSDOF 5
ENDMDL
MODEL 9
REMARK VINA RESULT:      -8.1      4.836      7.956
REMARK  5 active torsions:
REMARK  status: ('A' for Active; 'I' for Inactive)
REMARK    1  A    between atoms: C_2  and  C_3 
REMARK    2  A    between atoms: C_2  and  C_9 
REMARK    3  A    between atoms: C_9  and  C_10 
REMARK       I    between atoms: C_10  and  N_11 
REMARK    4  A    between atoms: N_11  and  C_12 
REMARK    5  A    between atoms: C_19  and  C_20 
REMARK       I    between atoms: C_20  and  N_21 
ROOT
HETATM    1  C   UNL     1      -8.967   1.614 -32.803  1.00  0.00     0.035 A 
HETATM    2  C   UNL     1     -10.156   1.597 -33.543  1.00  0.00     0.046 A 
HETATM    3  C   UNL     1     -11.208   2.473 -33.195  1.00  0.00     0.030 A 
HETATM    4  C   UNL     1     -11.031   3.340 -32.124  1.00  0.00     0.063 A 
HETATM    5  N   UNL     1     -12.198   4.048 -32.032  1.00  0.00    -0.277 N 
HETATM    6  H   UNL     1     -12.425   4.771 -31.361  1.00  0.00     0.189 HD
HETATM    7  N   UNL     1     -13.123   3.715 -32.946  1.00  0.00    -0.168 NA
HETATM    8  C   UNL     1     -12.528   2.741 -33.672  1.00  0.00     0.156 A 
HETATM    9  C   UNL     1      -9.860   3.388 -31.367  1.00  0.00     0.034 A 
HETATM   10  C   UNL     1      -8.835   2.505 -31.727  1.00  0.00     0.032 A 
ENDROOT
BRANCH   1  11
HETATM   11  N   UNL     1      -7.875   0.754 -33.051  1.00  0.00    -0.327 N 
HETATM   12  C   UNL     1      -6.607   1.104 -33.481  1.00  0.00     0.223 C 
HETATM   13  O   UNL     1      -6.171   2.241 -33.622  1.00  0.00    -0.273 OA
HETATM   14  H   UNL     1      -8.044  -0.229 -32.889  1.00  0.00     0.169 HD
BRANCH  12  15
HETATM   15  C   UNL     1      -5.739  -0.101 -33.811  1.00  0.00     0.116 C 
BRANCH  15  16
HETATM   16  C   UNL     1      -4.691  -0.457 -32.720  1.00  0.00    -0.012 C 
HETATM   17  C   UNL     1      -5.301  -0.213 -31.317  1.00  0.00     0.020 C 
HETATM   18  C   UNL     1      -3.438   0.445 -32.820  1.00  0.00     0.020 C 
BRANCH  16  19
HETATM   19  C   UNL     1      -4.263  -1.928 -32.939  1.00  0.00    -0.050 A 
HETATM   20  C   UNL     1      -3.400  -2.604 -32.059  1.00  0.00     0.008 A 
HETATM   21  C   UNL     1      -3.028  -3.934 -32.283  1.00  0.00     0.001 A 
HETATM   22  C   UNL     1      -3.516  -4.623 -33.388  1.00  0.00     0.000 A 
HETATM   23  C   UNL     1      -4.380  -3.983 -34.269  1.00  0.00     0.001 A 
HETATM   24  C   UNL     1      -4.749  -2.653 -34.047  1.00  0.00     0.008 A 
ENDBRANCH  16  19
ENDBRANCH  15  16
ENDBRANCH  12  15
ENDBRANCH   1  11
BRANCH   8  25
HETATM   25  C   UNL     1     -13.226   2.092 -34.790  1.00  0.00     0.270 C 
HETATM   26  N   UNL     1     -14.388   1.464 -34.434  1.00  0.00    -0.365 N 
HETATM   27  H   UNL     1     -14.673   1.486 -33.461  1.00  0.00     0.159 HD
HETATM   28  H   UNL     1     -14.933   0.985 -35.133  1.00  0.00     0.159 HD
HETATM   29  O   UNL     1     -12.834   2.084 -35.952  1.00  0.00    -0.266 OA
ENDBRANCH   8  25
TORSDOF 5
ENDMDL
MODEL 10
REMARK VINA RESULT:      -8.0      2.340      3.278
REMARK  5 active torsions:
REMARK  status: ('A' for Active; 'I' for Inactive)
REMARK    1  A    between atoms: C_2  and  C_3 
REMARK    2  A    between atoms: C_2  and  C_9 
REMARK    3  A    between atoms: C_9  and  C_10 
REMARK       I    between atoms: C_10  and  N_11 
REMARK    4  A    between atoms: N_11  and  C_12 
REMARK    5  A    between atoms: C_19  and  C_20 
REMARK       I    between atoms: C_20  and  N_21 
ROOT
HETATM    1  C   UNL     1      -4.435   2.984 -31.327  1.00  0.00     0.035 A 
HETATM    2  C   UNL     1      -3.779   3.799 -32.261  1.00  0.00     0.046 A 
HETATM    3  C   UNL     1      -3.817   5.203 -32.111  1.00  0.00     0.030 A 
HETATM    4  C   UNL     1      -4.501   5.743 -31.030  1.00  0.00     0.063 A 
HETATM    5  N   UNL     1      -4.362   7.098 -31.152  1.00  0.00    -0.277 N 
HETATM    6  H   UNL     1      -4.734   7.811 -30.537  1.00  0.00     0.189 HD
HETATM    7  N   UNL     1      -3.651   7.490 -32.221  1.00  0.00    -0.168 NA
HETATM    8  C   UNL     1      -3.308   6.329 -32.827  1.00  0.00     0.156 A 
HETATM    9  C   UNL     1      -5.161   4.965 -30.079  1.00  0.00     0.034 A 
HETATM   10  C   UNL     1      -5.116   3.576 -30.253  1.00  0.00     0.032 A 
ENDROOT
BRANCH   1  11
HETATM   11  N   UNL     1      -4.485   1.576 -31.411  1.00  0.00    -0.327 N 
HETATM   12  C   UNL     1      -5.302   0.809 -32.222  1.00  0.00     0.223 C 
HETATM   13  O   UNL     1      -6.058   1.219 -33.095  1.00  0.00    -0.273 OA
HETATM   14  H   UNL     1      -3.844   1.077 -30.810  1.00  0.00     0.169 HD
BRANCH  12  15
HETATM   15  C   UNL     1      -5.208  -0.680 -31.920  1.00  0.00     0.116 C 
BRANCH  15  16
HETATM   16  C   UNL     1      -4.129  -1.436 -32.744  1.00  0.00    -0.012 C 
HETATM   17  C   UNL     1      -3.081  -2.050 -31.782  1.00  0.00     0.020 C 
HETATM   18  C   UNL     1      -3.359  -0.480 -33.685  1.00  0.00     0.020 C 
BRANCH  16  19
HETATM   19  C   UNL     1      -4.851  -2.502 -33.602  1.00  0.00    -0.050 A 
HETATM   20  C   UNL     1      -6.101  -2.270 -34.203  1.00  0.00     0.008 A 
HETATM   21  C   UNL     1      -6.731  -3.253 -34.972  1.00  0.00     0.001 A 
HETATM   22  C   UNL     1      -6.125  -4.489 -35.166  1.00  0.00     0.000 A 
HETATM   23  C   UNL     1      -4.885  -4.743 -34.593  1.00  0.00     0.001 A 
HETATM   24  C   UNL     1      -4.256  -3.762 -33.822  1.00  0.00     0.008 A 
ENDBRANCH  16  19
ENDBRANCH  15  16
ENDBRANCH  12  15
ENDBRANCH   1  11
BRANCH   8  25
HETATM   25  C   UNL     1      -2.514   6.323 -34.063  1.00  0.00     0.270 C 
HETATM   26  N   UNL     1      -3.088   5.625 -35.091  1.00  0.00    -0.365 N 
HETATM   27  H   UNL     1      -3.983   5.176 -34.932  1.00  0.00     0.159 HD
HETATM   28  H   UNL     1      -2.614   5.560 -35.977  1.00  0.00     0.159 HD
HETATM   29  O   UNL     1      -1.428   6.874 -34.202  1.00  0.00    -0.266 OA
ENDBRANCH   8  25
TORSDOF 5
ENDMDL
