MODEL 1
REMARK VINA RESULT:      -7.6      0.000      0.000
REMARK  10 active torsions:
REMARK  status: ('A' for Active; 'I' for Inactive)
REMARK    1  A    between atoms: C_2  and  C_3 
REMARK    2  A    between atoms: C_3  and  N_4 
REMARK    3  A    between atoms: C_7  and  C_8 
REMARK       I    between atoms: C_8  and  N_9 
REMARK    4  A    between atoms: N_9  and  C_10 
REMARK    5  A    between atoms: C_10  and  C_11 
REMARK    6  A    between atoms: C_11  and  O_12 
REMARK    7  A    between atoms: C_11  and  C_13 
REMARK    8  A    between atoms: C_13  and  O_14 
REMARK    9  A    between atoms: O_14  and  C_15 
REMARK   10  A    between atoms: C_23  and  C_24 
ROOT
HETATM    1  C   UNL     1      -5.812   3.126 -33.038  1.00  0.00     0.255 C 
HETATM    2  N   UNL     1      -6.541   2.551 -32.015  1.00  0.00    -0.354 N 
HETATM    3  O   UNL     1      -6.279   3.210 -34.168  1.00  0.00    -0.268 OA
HETATM    4  H   UNL     1      -6.119   2.470 -31.099  1.00  0.00     0.162 HD
ENDROOT
BRANCH   2   5
HETATM    5  C   UNL     1      -7.956   2.223 -32.143  1.00  0.00     0.156 C 
BRANCH   5   6
HETATM    6  C   UNL     1      -8.335   0.754 -31.875  1.00  0.00     0.160 C 
BRANCH   6   7
HETATM    7  O   UNL     1      -9.478   0.667 -31.015  1.00  0.00    -0.392 OA
HETATM    8  H   UNL     1      -9.354  -0.105 -30.420  1.00  0.00     0.210 HD
ENDBRANCH   6   7
BRANCH   6   9
HETATM    9  C   UNL     1      -8.563  -0.043 -33.166  1.00  0.00     0.209 C 
BRANCH   9  10
HETATM   10  O   UNL     1      -7.466   0.202 -34.053  1.00  0.00    -0.349 OA
BRANCH  10  11
HETATM   11  C   UNL     1      -6.482  -0.746 -34.094  1.00  0.00     0.069 A 
HETATM   12  C   UNL     1      -6.886  -1.985 -34.600  1.00  0.00     0.043 A 
HETATM   13  C   UNL     1      -5.983  -3.050 -34.708  1.00  0.00    -0.059 A 
HETATM   14  C   UNL     1      -6.429  -4.378 -35.239  1.00  0.00     0.048 C 
HETATM   15  C   UNL     1      -4.668  -2.870 -34.265  1.00  0.00     0.007 A 
HETATM   16  C   UNL     1      -4.263  -1.639 -33.747  1.00  0.00     0.003 A 
HETATM   17  C   UNL     1      -5.167  -0.577 -33.664  1.00  0.00     0.037 A 
ENDBRANCH  10  11
ENDBRANCH   9  10
ENDBRANCH   6   9
ENDBRANCH   5   6
ENDBRANCH   2   5
BRANCH   1  18
HETATM   18  C   UNL     1      -4.499   3.618 -32.648  1.00  0.00     0.075 A 
HETATM   19  C   UNL     1      -3.396   2.799 -32.294  1.00  0.00     0.158 A 
HETATM   20  N   UNL     1      -2.311   3.484 -31.955  1.00  0.00    -0.183 NA
HETATM   21  N   UNL     1      -2.703   4.768 -32.037  1.00  0.00    -0.268 N 
HETATM   22  C   UNL     1      -4.005   4.913 -32.491  1.00  0.00     0.052 A 
BRANCH  21  23
HETATM   23  C   UNL     1      -1.795   5.820 -31.576  1.00  0.00     0.106 C 
HETATM   24  C   UNL     1      -1.085   6.559 -32.719  1.00  0.00     0.034 C 
BRANCH  23  25
HETATM   25  C   UNL     1      -0.808   5.294 -30.516  1.00  0.00     0.022 C 
HETATM   26  C   UNL     1       0.660   5.323 -30.928  1.00  0.00     0.007 C 
ENDBRANCH  23  25
ENDBRANCH  21  23
BRANCH  22  27
HETATM   27  C   UNL     1      -4.650   6.281 -32.745  1.00  0.00     0.038 A 
HETATM   28  C   UNL     1      -6.098   6.523 -32.391  1.00  0.00     0.011 A 
HETATM   29  C   UNL     1      -5.020   7.198 -31.607  1.00  0.00     0.011 A 
ENDBRANCH  22  27
ENDBRANCH   1  18
TORSDOF 10
ENDMDL
MODEL 2
REMARK VINA RESULT:      -7.5      1.695      2.628
REMARK  10 active torsions:
REMARK  status: ('A' for Active; 'I' for Inactive)
REMARK    1  A    between atoms: C_2  and  C_3 
REMARK    2  A    between atoms: C_3  and  N_4 
REMARK    3  A    between atoms: C_7  and  C_8 
REMARK       I    between atoms: C_8  and  N_9 
REMARK    4  A    between atoms: N_9  and  C_10 
REMARK    5  A    between atoms: C_10  and  C_11 
REMARK    6  A    between atoms: C_11  and  O_12 
REMARK    7  A    between atoms: C_11  and  C_13 
REMARK    8  A    between atoms: C_13  and  O_14 
REMARK    9  A    between atoms: O_14  and  C_15 
REMARK   10  A    between atoms: C_23  and  C_24 
ROOT
HETATM    1  C   UNL     1      -7.594   3.689 -32.207  1.00  0.00     0.255 C 
HETATM    2  N   UNL     1      -8.096   2.555 -32.816  1.00  0.00    -0.354 N 
HETATM    3  O   UNL     1      -8.228   4.259 -31.326  1.00  0.00    -0.268 OA
HETATM    4  H   UNL     1      -7.563   2.122 -33.559  1.00  0.00     0.162 HD
ENDROOT
BRANCH   2   5
HETATM    5  C   UNL     1      -9.266   1.843 -32.314  1.00  0.00     0.156 C 
BRANCH   5   6
HETATM    6  C   UNL     1      -9.260   0.314 -32.509  1.00  0.00     0.160 C 
BRANCH   6   7
HETATM    7  O   UNL     1     -10.592  -0.188 -32.671  1.00  0.00    -0.392 OA
HETATM    8  H   UNL     1     -11.115   0.073 -31.882  1.00  0.00     0.210 HD
ENDBRANCH   6   7
BRANCH   6   9
HETATM    9  C   UNL     1      -8.365  -0.129 -33.674  1.00  0.00     0.209 C 
BRANCH   9  10
HETATM   10  O   UNL     1      -6.998  -0.040 -33.259  1.00  0.00    -0.349 OA
BRANCH  10  11
HETATM   11  C   UNL     1      -6.168  -1.055 -33.648  1.00  0.00     0.069 A 
HETATM   12  C   UNL     1      -6.813  -2.138 -34.250  1.00  0.00     0.043 A 
HETATM   13  C   UNL     1      -6.089  -3.247 -34.705  1.00  0.00    -0.059 A 
HETATM   14  C   UNL     1      -6.793  -4.410 -35.338  1.00  0.00     0.048 C 
HETATM   15  C   UNL     1      -4.704  -3.276 -34.516  1.00  0.00     0.007 A 
HETATM   16  C   UNL     1      -4.056  -2.202 -33.904  1.00  0.00     0.003 A 
HETATM   17  C   UNL     1      -4.785  -1.092 -33.472  1.00  0.00     0.037 A 
ENDBRANCH  10  11
ENDBRANCH   9  10
ENDBRANCH   6   9
ENDBRANCH   5   6
ENDBRANCH   2   5
BRANCH   1  18
HETATM   18  C   UNL     1      -6.284   4.107 -32.685  1.00  0.00     0.075 A 
HETATM   19  C   UNL     1      -6.058   4.968 -33.790  1.00  0.00     0.158 A 
HETATM   20  N   UNL     1      -4.774   5.185 -34.043  1.00  0.00    -0.183 NA
HETATM   21  N   UNL     1      -4.135   4.428 -33.132  1.00  0.00    -0.268 N 
HETATM   22  C   UNL     1      -4.997   3.785 -32.257  1.00  0.00     0.052 A 
BRANCH  21  23
HETATM   23  C   UNL     1      -2.680   4.296 -33.212  1.00  0.00     0.106 C 
HETATM   24  C   UNL     1      -1.942   4.919 -32.019  1.00  0.00     0.034 C 
BRANCH  23  25
HETATM   25  C   UNL     1      -2.137   4.800 -34.564  1.00  0.00     0.022 C 
HETATM   26  C   UNL     1      -1.168   5.974 -34.476  1.00  0.00     0.007 C 
ENDBRANCH  23  25
ENDBRANCH  21  23
BRANCH  22  27
HETATM   27  C   UNL     1      -4.504   2.931 -31.081  1.00  0.00     0.038 A 
HETATM   28  C   UNL     1      -5.099   1.568 -30.822  1.00  0.00     0.011 A 
HETATM   29  C   UNL     1      -3.691   1.682 -31.306  1.00  0.00     0.011 A 
ENDBRANCH  22  27
ENDBRANCH   1  18
TORSDOF 10
ENDMDL
MODEL 3
REMARK VINA RESULT:      -7.3      1.563      2.175
REMARK  10 active torsions:
REMARK  status: ('A' for Active; 'I' for Inactive)
REMARK    1  A    between atoms: C_2  and  C_3 
REMARK    2  A    between atoms: C_3  and  N_4 
REMARK    3  A    between atoms: C_7  and  C_8 
REMARK       I    between atoms: C_8  and  N_9 
REMARK    4  A    between atoms: N_9  and  C_10 
REMARK    5  A    between atoms: C_10  and  C_11 
REMARK    6  A    between atoms: C_11  and  O_12 
REMARK    7  A    between atoms: C_11  and  C_13 
REMARK    8  A    between atoms: C_13  and  O_14 
REMARK    9  A    between atoms: O_14  and  C_15 
REMARK   10  A    between atoms: C_23  and  C_24 
ROOT
HETATM    1  C   UNL     1      -5.950   4.224 -33.938  1.00  0.00     0.255 C 
HETATM    2  N   UNL     1      -5.788   2.858 -33.804  1.00  0.00    -0.354 N 
HETATM    3  O   UNL     1      -7.038   4.697 -34.248  1.00  0.00    -0.268 OA
HETATM    4  H   UNL     1      -4.873   2.494 -33.574  1.00  0.00     0.162 HD
ENDROOT
BRANCH   2   5
HETATM    5  C   UNL     1      -6.912   1.928 -33.794  1.00  0.00     0.156 C 
BRANCH   5   6
HETATM    6  C   UNL     1      -6.981   0.969 -32.590  1.00  0.00     0.160 C 
BRANCH   6   7
HETATM    7  O   UNL     1      -8.203   0.220 -32.601  1.00  0.00    -0.392 OA
HETATM    8  H   UNL     1      -8.674   0.390 -31.756  1.00  0.00     0.210 HD
ENDBRANCH   6   7
BRANCH   6   9
HETATM    9  C   UNL     1      -5.769   0.032 -32.509  1.00  0.00     0.209 C 
BRANCH   9  10
HETATM   10  O   UNL     1      -5.419  -0.377 -33.836  1.00  0.00    -0.349 OA
BRANCH  10  11
HETATM   11  C   UNL     1      -5.597  -1.697 -34.142  1.00  0.00     0.069 A 
HETATM   12  C   UNL     1      -4.491  -2.511 -33.880  1.00  0.00     0.043 A 
HETATM   13  C   UNL     1      -4.531  -3.887 -34.137  1.00  0.00    -0.059 A 
HETATM   14  C   UNL     1      -3.336  -4.749 -33.864  1.00  0.00     0.048 C 
HETATM   15  C   UNL     1      -5.688  -4.438 -34.698  1.00  0.00     0.007 A 
HETATM   16  C   UNL     1      -6.790  -3.628 -34.973  1.00  0.00     0.003 A 
HETATM   17  C   UNL     1      -6.747  -2.260 -34.694  1.00  0.00     0.037 A 
ENDBRANCH  10  11
ENDBRANCH   9  10
ENDBRANCH   6   9
ENDBRANCH   5   6
ENDBRANCH   2   5
BRANCH   1  18
HETATM   18  C   UNL     1      -4.755   5.008 -33.665  1.00  0.00     0.075 A 
HETATM   19  C   UNL     1      -3.770   5.350 -34.627  1.00  0.00     0.158 A 
HETATM   20  N   UNL     1      -2.761   6.055 -34.129  1.00  0.00    -0.183 NA
HETATM   21  N   UNL     1      -3.049   6.145 -32.818  1.00  0.00    -0.268 N 
HETATM   22  C   UNL     1      -4.263   5.566 -32.485  1.00  0.00     0.052 A 
BRANCH  21  23
HETATM   23  C   UNL     1      -2.060   6.733 -31.913  1.00  0.00     0.106 C 
HETATM   24  C   UNL     1      -1.827   8.231 -32.150  1.00  0.00     0.034 C 
BRANCH  23  25
HETATM   25  C   UNL     1      -0.745   5.929 -31.907  1.00  0.00     0.022 C 
HETATM   26  C   UNL     1       0.461   6.664 -31.334  1.00  0.00     0.007 C 
ENDBRANCH  23  25
ENDBRANCH  21  23
BRANCH  22  27
HETATM   27  C   UNL     1      -4.846   5.613 -31.067  1.00  0.00     0.038 A 
HETATM   28  C   UNL     1      -5.498   6.872 -30.548  1.00  0.00     0.011 A 
HETATM   29  C   UNL     1      -6.334   5.668 -30.832  1.00  0.00     0.011 A 
ENDBRANCH  22  27
ENDBRANCH   1  18
TORSDOF 10
ENDMDL
MODEL 4
REMARK VINA RESULT:      -7.3      2.416      7.615
REMARK  10 active torsions:
REMARK  status: ('A' for Active; 'I' for Inactive)
REMARK    1  A    between atoms: C_2  and  C_3 
REMARK    2  A    between atoms: C_3  and  N_4 
REMARK    3  A    between atoms: C_7  and  C_8 
REMARK       I    between atoms: C_8  and  N_9 
REMARK    4  A    between atoms: N_9  and  C_10 
REMARK    5  A    between atoms: C_10  and  C_11 
REMARK    6  A    between atoms: C_11  and  O_12 
REMARK    7  A    between atoms: C_11  and  C_13 
REMARK    8  A    between atoms: C_13  and  O_14 
REMARK    9  A    between atoms: O_14  and  C_15 
REMARK   10  A    between atoms: C_23  and  C_24 
ROOT
HETATM    1  C   UNL     1      -6.396   2.537 -33.404  1.00  0.00     0.255 C 
HETATM    2  N   UNL     1      -6.985   2.675 -32.161  1.00  0.00    -0.354 N 
HETATM    3  O   UNL     1      -5.952   3.514 -33.996  1.00  0.00    -0.268 OA
HETATM    4  H   UNL     1      -7.368   1.856 -31.708  1.00  0.00     0.162 HD
ENDROOT
BRANCH   2   5
HETATM    5  C   UNL     1      -6.917   3.910 -31.389  1.00  0.00     0.156 C 
BRANCH   5   6
HETATM    6  C   UNL     1      -5.808   3.975 -30.320  1.00  0.00     0.160 C 
BRANCH   6   7
HETATM    7  O   UNL     1      -5.705   2.734 -29.611  1.00  0.00    -0.392 OA
HETATM    8  H   UNL     1      -6.379   2.733 -28.897  1.00  0.00     0.210 HD
ENDBRANCH   6   7
BRANCH   6   9
HETATM    9  C   UNL     1      -4.449   4.385 -30.902  1.00  0.00     0.209 C 
BRANCH   9  10
HETATM   10  O   UNL     1      -4.400   5.814 -30.985  1.00  0.00    -0.349 OA
BRANCH  10  11
HETATM   11  C   UNL     1      -3.427   6.352 -31.781  1.00  0.00     0.069 A 
HETATM   12  C   UNL     1      -3.050   5.552 -32.863  1.00  0.00     0.043 A 
HETATM   13  C   UNL     1      -2.069   5.978 -33.768  1.00  0.00    -0.059 A 
HETATM   14  C   UNL     1      -1.662   5.107 -34.918  1.00  0.00     0.048 C 
HETATM   15  C   UNL     1      -1.439   7.208 -33.554  1.00  0.00     0.007 A 
HETATM   16  C   UNL     1      -1.803   8.005 -32.468  1.00  0.00     0.003 A 
HETATM   17  C   UNL     1      -2.797   7.580 -31.583  1.00  0.00     0.037 A 
ENDBRANCH  10  11
ENDBRANCH   9  10
ENDBRANCH   6   9
ENDBRANCH   5   6
ENDBRANCH   2   5
BRANCH   1  18
HETATM   18  C   UNL     1      -6.341   1.172 -33.904  1.00  0.00     0.075 A 
HETATM   19  C   UNL     1      -7.056   0.690 -35.031  1.00  0.00     0.158 A 
HETATM   20  N   UNL     1      -6.858  -0.599 -35.276  1.00  0.00    -0.183 NA
HETATM   21  N   UNL     1      -6.043  -0.993 -34.280  1.00  0.00    -0.268 N 
HETATM   22  C   UNL     1      -5.664   0.044 -33.443  1.00  0.00     0.052 A 
BRANCH  21  23
HETATM   23  C   UNL     1      -5.732  -2.417 -34.138  1.00  0.00     0.106 C 
HETATM   24  C   UNL     1      -4.410  -2.824 -34.805  1.00  0.00     0.034 C 
BRANCH  23  25
HETATM   25  C   UNL     1      -6.910  -3.304 -34.585  1.00  0.00     0.022 C 
HETATM   26  C   UNL     1      -6.522  -4.547 -35.376  1.00  0.00     0.007 C 
ENDBRANCH  23  25
ENDBRANCH  21  23
BRANCH  22  27
HETATM   27  C   UNL     1      -4.676  -0.141 -32.284  1.00  0.00     0.038 A 
HETATM   28  C   UNL     1      -3.200  -0.306 -32.555  1.00  0.00     0.011 A 
HETATM   29  C   UNL     1      -3.699   0.942 -31.905  1.00  0.00     0.011 A 
ENDBRANCH  22  27
ENDBRANCH   1  18
TORSDOF 10
ENDMDL
MODEL 5
REMARK VINA RESULT:      -7.3      2.066      7.839
REMARK  10 active torsions:
REMARK  status: ('A' for Active; 'I' for Inactive)
REMARK    1  A    between atoms: C_2  and  C_3 
REMARK    2  A    between atoms: C_3  and  N_4 
REMARK    3  A    between atoms: C_7  and  C_8 
REMARK       I    between atoms: C_8  and  N_9 
REMARK    4  A    between atoms: N_9  and  C_10 
REMARK    5  A    between atoms: C_10  and  C_11 
REMARK    6  A    between atoms: C_11  and  O_12 
REMARK    7  A    between atoms: C_11  and  C_13 
REMARK    8  A    between atoms: C_13  and  O_14 
REMARK    9  A    between atoms: O_14  and  C_15 
REMARK   10  A    between atoms: C_23  and  C_24 
ROOT
HETATM    1  C   UNL     1      -7.214   2.096 -32.719  1.00  0.00     0.255 C 
HETATM    2  N   UNL     1      -6.255   3.089 -32.785  1.00  0.00    -0.354 N 
HETATM    3  O   UNL     1      -8.265   2.281 -32.116  1.00  0.00    -0.268 OA
HETATM    4  H   UNL     1      -5.386   2.898 -33.265  1.00  0.00     0.162 HD
ENDROOT
BRANCH   2   5
HETATM    5  C   UNL     1      -6.509   4.460 -32.358  1.00  0.00     0.156 C 
BRANCH   5   6
HETATM    6  C   UNL     1      -6.066   5.564 -33.337  1.00  0.00     0.160 C 
BRANCH   6   7
HETATM    7  O   UNL     1      -5.831   6.798 -32.648  1.00  0.00    -0.392 OA
HETATM    8  H   UNL     1      -6.690   7.122 -32.300  1.00  0.00     0.210 HD
ENDBRANCH   6   7
BRANCH   6   9
HETATM    9  C   UNL     1      -4.839   5.161 -34.166  1.00  0.00     0.209 C 
BRANCH   9  10
HETATM   10  O   UNL     1      -3.848   4.623 -33.283  1.00  0.00    -0.349 OA
BRANCH  10  11
HETATM   11  C   UNL     1      -2.762   5.411 -33.023  1.00  0.00     0.069 A 
HETATM   12  C   UNL     1      -1.923   4.934 -32.012  1.00  0.00     0.043 A 
HETATM   13  C   UNL     1      -0.768   5.633 -31.642  1.00  0.00    -0.059 A 
HETATM   14  C   UNL     1       0.118   5.119 -30.547  1.00  0.00     0.048 C 
HETATM   15  C   UNL     1      -0.478   6.846 -32.277  1.00  0.00     0.007 A 
HETATM   16  C   UNL     1      -1.318   7.333 -33.278  1.00  0.00     0.003 A 
HETATM   17  C   UNL     1      -2.458   6.617 -33.653  1.00  0.00     0.037 A 
ENDBRANCH  10  11
ENDBRANCH   9  10
ENDBRANCH   6   9
ENDBRANCH   5   6
ENDBRANCH   2   5
BRANCH   1  18
HETATM   18  C   UNL     1      -6.871   0.870 -33.424  1.00  0.00     0.075 A 
HETATM   19  C   UNL     1      -7.196   0.591 -34.776  1.00  0.00     0.158 A 
HETATM   20  N   UNL     1      -6.792  -0.605 -35.186  1.00  0.00    -0.183 NA
HETATM   21  N   UNL     1      -6.236  -1.149 -34.088  1.00  0.00    -0.268 N 
HETATM   22  C   UNL     1      -6.218  -0.288 -33.002  1.00  0.00     0.052 A 
BRANCH  21  23
HETATM   23  C   UNL     1      -5.813  -2.550 -34.126  1.00  0.00     0.106 C 
HETATM   24  C   UNL     1      -4.371  -2.741 -34.618  1.00  0.00     0.034 C 
BRANCH  23  25
HETATM   25  C   UNL     1      -6.816  -3.426 -34.901  1.00  0.00     0.022 C 
HETATM   26  C   UNL     1      -6.274  -4.771 -35.371  1.00  0.00     0.007 C 
ENDBRANCH  23  25
ENDBRANCH  21  23
BRANCH  22  27
HETATM   27  C   UNL     1      -5.562  -0.651 -31.664  1.00  0.00     0.038 A 
HETATM   28  C   UNL     1      -4.073  -0.497 -31.473  1.00  0.00     0.011 A 
HETATM   29  C   UNL     1      -5.011   0.410 -30.747  1.00  0.00     0.011 A 
ENDBRANCH  22  27
ENDBRANCH   1  18
TORSDOF 10
ENDMDL
MODEL 6
REMARK VINA RESULT:      -7.2      2.068      7.837
REMARK  10 active torsions:
REMARK  status: ('A' for Active; 'I' for Inactive)
REMARK    1  A    between atoms: C_2  and  C_3 
REMARK    2  A    between atoms: C_3  and  N_4 
REMARK    3  A    between atoms: C_7  and  C_8 
REMARK       I    between atoms: C_8  and  N_9 
REMARK    4  A    between atoms: N_9  and  C_10 
REMARK    5  A    between atoms: C_10  and  C_11 
REMARK    6  A    between atoms: C_11  and  O_12 
REMARK    7  A    between atoms: C_11  and  C_13 
REMARK    8  A    between atoms: C_13  and  O_14 
REMARK    9  A    between atoms: O_14  and  C_15 
REMARK   10  A    between atoms: C_23  and  C_24 
ROOT
HETATM    1  C   UNL     1      -6.260   1.477 -32.167  1.00  0.00     0.255 C 
HETATM    2  N   UNL     1      -5.575   2.566 -32.671  1.00  0.00    -0.354 N 
HETATM    3  O   UNL     1      -7.286   1.631 -31.514  1.00  0.00    -0.268 OA
HETATM    4  H   UNL     1      -4.716   2.411 -33.182  1.00  0.00     0.162 HD
ENDROOT
BRANCH   2   5
HETATM    5  C   UNL     1      -6.126   3.916 -32.664  1.00  0.00     0.156 C 
BRANCH   5   6
HETATM    6  C   UNL     1      -5.673   4.835 -33.815  1.00  0.00     0.160 C 
BRANCH   6   7
HETATM    7  O   UNL     1      -6.114   6.182 -33.601  1.00  0.00    -0.392 OA
HETATM    8  H   UNL     1      -6.935   6.321 -34.121  1.00  0.00     0.210 HD
ENDBRANCH   6   7
BRANCH   6   9
HETATM    9  C   UNL     1      -4.158   4.789 -34.047  1.00  0.00     0.209 C 
BRANCH   9  10
HETATM   10  O   UNL     1      -3.506   4.643 -32.781  1.00  0.00    -0.349 OA
BRANCH  10  11
HETATM   11  C   UNL     1      -2.471   5.497 -32.518  1.00  0.00     0.069 A 
HETATM   12  C   UNL     1      -1.403   4.923 -31.823  1.00  0.00     0.043 A 
HETATM   13  C   UNL     1      -0.270   5.676 -31.491  1.00  0.00    -0.059 A 
HETATM   14  C   UNL     1       0.865   5.054 -30.735  1.00  0.00     0.048 C 
HETATM   15  C   UNL     1      -0.235   7.032 -31.832  1.00  0.00     0.007 A 
HETATM   16  C   UNL     1      -1.304   7.614 -32.514  1.00  0.00     0.003 A 
HETATM   17  C   UNL     1      -2.420   6.848 -32.859  1.00  0.00     0.037 A 
ENDBRANCH  10  11
ENDBRANCH   9  10
ENDBRANCH   6   9
ENDBRANCH   5   6
ENDBRANCH   2   5
BRANCH   1  18
HETATM   18  C   UNL     1      -5.674   0.186 -32.493  1.00  0.00     0.075 A 
HETATM   19  C   UNL     1      -4.714  -0.495 -31.701  1.00  0.00     0.158 A 
HETATM   20  N   UNL     1      -4.315  -1.649 -32.220  1.00  0.00    -0.183 NA
HETATM   21  N   UNL     1      -4.977  -1.719 -33.390  1.00  0.00    -0.268 N 
HETATM   22  C   UNL     1      -5.844  -0.658 -33.590  1.00  0.00     0.052 A 
BRANCH  21  23
HETATM   23  C   UNL     1      -4.660  -2.804 -34.321  1.00  0.00     0.106 C 
HETATM   24  C   UNL     1      -5.902  -3.507 -34.886  1.00  0.00     0.034 C 
BRANCH  23  25
HETATM   25  C   UNL     1      -3.650  -3.797 -33.715  1.00  0.00     0.022 C 
HETATM   26  C   UNL     1      -4.075  -5.260 -33.756  1.00  0.00     0.007 C 
ENDBRANCH  23  25
ENDBRANCH  21  23
BRANCH  22  27
HETATM   27  C   UNL     1      -6.768  -0.557 -34.811  1.00  0.00     0.038 A 
HETATM   28  C   UNL     1      -8.177  -0.034 -34.665  1.00  0.00     0.011 A 
HETATM   29  C   UNL     1      -7.156   0.778 -35.393  1.00  0.00     0.011 A 
ENDBRANCH  22  27
ENDBRANCH   1  18
TORSDOF 10
ENDMDL
MODEL 7
REMARK VINA RESULT:      -7.1      3.388      8.030
REMARK  10 active torsions:
REMARK  status: ('A' for Active; 'I' for Inactive)
REMARK    1  A    between atoms: C_2  and  C_3 
REMARK    2  A    between atoms: C_3  and  N_4 
REMARK    3  A    between atoms: C_7  and  C_8 
REMARK       I    between atoms: C_8  and  N_9 
REMARK    4  A    between atoms: N_9  and  C_10 
REMARK    5  A    between atoms: C_10  and  C_11 
REMARK    6  A    between atoms: C_11  and  O_12 
REMARK    7  A    between atoms: C_11  and  C_13 
REMARK    8  A    between atoms: C_13  and  O_14 
REMARK    9  A    between atoms: O_14  and  C_15 
REMARK   10  A    between atoms: C_23  and  C_24 
ROOT
HETATM    1  C   UNL     1      -6.269   3.764 -29.822  1.00  0.00     0.255 C 
HETATM    2  N   UNL     1      -5.390   4.418 -28.979  1.00  0.00    -0.354 N 
HETATM    3  O   UNL     1      -7.375   4.238 -30.061  1.00  0.00    -0.268 OA
HETATM    4  H   UNL     1      -4.496   3.990 -28.778  1.00  0.00     0.162 HD
ENDROOT
BRANCH   2   5
HETATM    5  C   UNL     1      -5.612   5.781 -28.513  1.00  0.00     0.156 C 
BRANCH   5   6
HETATM    6  C   UNL     1      -4.862   6.184 -27.228  1.00  0.00     0.160 C 
BRANCH   6   7
HETATM    7  O   UNL     1      -4.562   5.035 -26.426  1.00  0.00    -0.392 OA
HETATM    8  H   UNL     1      -3.618   4.803 -26.565  1.00  0.00     0.210 HD
ENDBRANCH   6   7
BRANCH   6   9
HETATM    9  C   UNL     1      -3.591   6.994 -27.515  1.00  0.00     0.209 C 
BRANCH   9  10
HETATM   10  O   UNL     1      -3.421   7.090 -28.933  1.00  0.00    -0.349 OA
BRANCH  10  11
HETATM   11  C   UNL     1      -2.141   7.020 -29.407  1.00  0.00     0.069 A 
HETATM   12  C   UNL     1      -1.180   7.616 -28.586  1.00  0.00     0.043 A 
HETATM   13  C   UNL     1       0.175   7.613 -28.940  1.00  0.00    -0.059 A 
HETATM   14  C   UNL     1       1.195   8.267 -28.058  1.00  0.00     0.048 C 
HETATM   15  C   UNL     1       0.555   7.035 -30.156  1.00  0.00     0.007 A 
HETATM   16  C   UNL     1      -0.401   6.450 -30.986  1.00  0.00     0.003 A 
HETATM   17  C   UNL     1      -1.747   6.440 -30.613  1.00  0.00     0.037 A 
ENDBRANCH  10  11
ENDBRANCH   9  10
ENDBRANCH   6   9
ENDBRANCH   5   6
ENDBRANCH   2   5
BRANCH   1  18
HETATM   18  C   UNL     1      -5.762   2.523 -30.387  1.00  0.00     0.075 A 
HETATM   19  C   UNL     1      -5.898   1.243 -29.790  1.00  0.00     0.158 A 
HETATM   20  N   UNL     1      -5.333   0.267 -30.488  1.00  0.00    -0.183 NA
HETATM   21  N   UNL     1      -4.774   0.902 -31.534  1.00  0.00    -0.268 N 
HETATM   22  C   UNL     1      -5.036   2.263 -31.548  1.00  0.00     0.052 A 
BRANCH  21  23
HETATM   23  C   UNL     1      -3.918   0.147 -32.450  1.00  0.00     0.106 C 
HETATM   24  C   UNL     1      -4.699  -0.631 -33.518  1.00  0.00     0.034 C 
BRANCH  23  25
HETATM   25  C   UNL     1      -2.919  -0.747 -31.688  1.00  0.00     0.022 C 
HETATM   26  C   UNL     1      -3.078  -2.244 -31.926  1.00  0.00     0.007 C 
ENDBRANCH  23  25
ENDBRANCH  21  23
BRANCH  22  27
HETATM   27  C   UNL     1      -4.575   3.187 -32.682  1.00  0.00     0.038 A 
HETATM   28  C   UNL     1      -4.201   4.622 -32.398  1.00  0.00     0.011 A 
HETATM   29  C   UNL     1      -3.143   3.644 -32.789  1.00  0.00     0.011 A 
ENDBRANCH  22  27
ENDBRANCH   1  18
TORSDOF 10
ENDMDL
MODEL 8
REMARK VINA RESULT:      -7.0      1.684      2.282
REMARK  10 active torsions:
REMARK  status: ('A' for Active; 'I' for Inactive)
REMARK    1  A    between atoms: C_2  and  C_3 
REMARK    2  A    between atoms: C_3  and  N_4 
REMARK    3  A    between atoms: C_7  and  C_8 
REMARK       I    between atoms: C_8  and  N_9 
REMARK    4  A    between atoms: N_9  and  C_10 
REMARK    5  A    between atoms: C_10  and  C_11 
REMARK    6  A    between atoms: C_11  and  O_12 
REMARK    7  A    between atoms: C_11  and  C_13 
REMARK    8  A    between atoms: C_13  and  O_14 
REMARK    9  A    between atoms: O_14  and  C_15 
REMARK   10  A    between atoms: C_23  and  C_24 
ROOT
HETATM    1  C   UNL     1      -5.544   5.206 -32.913  1.00  0.00     0.255 C 
HETATM    2  N   UNL     1      -5.588   3.878 -33.295  1.00  0.00    -0.354 N 
HETATM    3  O   UNL     1      -6.462   5.968 -33.193  1.00  0.00    -0.268 OA
HETATM    4  H   UNL     1      -4.804   3.280 -33.075  1.00  0.00     0.162 HD
ENDROOT
BRANCH   2   5
HETATM    5  C   UNL     1      -6.790   3.253 -33.835  1.00  0.00     0.156 C 
BRANCH   5   6
HETATM    6  C   UNL     1      -7.346   2.059 -33.035  1.00  0.00     0.160 C 
BRANCH   6   7
HETATM    7  O   UNL     1      -8.404   2.473 -32.163  1.00  0.00    -0.392 OA
HETATM    8  H   UNL     1      -9.254   2.164 -32.545  1.00  0.00     0.210 HD
ENDBRANCH   6   7
BRANCH   6   9
HETATM    9  C   UNL     1      -7.803   0.905 -33.937  1.00  0.00     0.209 C 
BRANCH   9  10
HETATM   10  O   UNL     1      -7.652  -0.324 -33.218  1.00  0.00    -0.349 OA
BRANCH  10  11
HETATM   11  C   UNL     1      -6.631  -1.145 -33.609  1.00  0.00     0.069 A 
HETATM   12  C   UNL     1      -7.036  -2.304 -34.276  1.00  0.00     0.043 A 
HETATM   13  C   UNL     1      -6.098  -3.235 -34.741  1.00  0.00    -0.059 A 
HETATM   14  C   UNL     1      -6.545  -4.481 -35.444  1.00  0.00     0.048 C 
HETATM   15  C   UNL     1      -4.740  -3.007 -34.496  1.00  0.00     0.007 A 
HETATM   16  C   UNL     1      -4.330  -1.858 -33.820  1.00  0.00     0.003 A 
HETATM   17  C   UNL     1      -5.273  -0.926 -33.378  1.00  0.00     0.037 A 
ENDBRANCH  10  11
ENDBRANCH   9  10
ENDBRANCH   6   9
ENDBRANCH   5   6
ENDBRANCH   2   5
BRANCH   1  18
HETATM   18  C   UNL     1      -4.356   5.584 -32.162  1.00  0.00     0.075 A 
HETATM   19  C   UNL     1      -4.260   5.596 -30.747  1.00  0.00     0.158 A 
HETATM   20  N   UNL     1      -3.078   5.999 -30.296  1.00  0.00    -0.183 NA
HETATM   21  N   UNL     1      -2.395   6.303 -31.415  1.00  0.00    -0.268 N 
HETATM   22  C   UNL     1      -3.103   6.033 -32.576  1.00  0.00     0.052 A 
BRANCH  21  23
HETATM   23  C   UNL     1      -1.082   6.938 -31.296  1.00  0.00     0.106 C 
HETATM   24  C   UNL     1       0.086   5.944 -31.350  1.00  0.00     0.034 C 
BRANCH  23  25
HETATM   25  C   UNL     1      -1.007   7.862 -30.064  1.00  0.00     0.022 C 
HETATM   26  C   UNL     1       0.151   7.582 -29.114  1.00  0.00     0.007 C 
ENDBRANCH  23  25
ENDBRANCH  21  23
BRANCH  22  27
HETATM   27  C   UNL     1      -2.506   6.220 -33.976  1.00  0.00     0.038 A 
HETATM   28  C   UNL     1      -1.548   5.199 -34.544  1.00  0.00     0.011 A 
HETATM   29  C   UNL     1      -2.916   5.338 -35.128  1.00  0.00     0.011 A 
ENDBRANCH  22  27
ENDBRANCH   1  18
TORSDOF 10
ENDMDL
MODEL 9
REMARK VINA RESULT:      -6.9      2.046      2.857
REMARK  10 active torsions:
REMARK  status: ('A' for Active; 'I' for Inactive)
REMARK    1  A    between atoms: C_2  and  C_3 
REMARK    2  A    between atoms: C_3  and  N_4 
REMARK    3  A    between atoms: C_7  and  C_8 
REMARK       I    between atoms: C_8  and  N_9 
REMARK    4  A    between atoms: N_9  and  C_10 
REMARK    5  A    between atoms: C_10  and  C_11 
REMARK    6  A    between atoms: C_11  and  O_12 
REMARK    7  A    between atoms: C_11  and  C_13 
REMARK    8  A    between atoms: C_13  and  O_14 
REMARK    9  A    between atoms: O_14  and  C_15 
REMARK   10  A    between atoms: C_23  and  C_24 
ROOT
HETATM    1  C   UNL     1      -5.488   4.183 -31.090  1.00  0.00     0.255 C 
HETATM    2  N   UNL     1      -5.484   3.172 -30.148  1.00  0.00    -0.354 N 
HETATM    3  O   UNL     1      -6.207   4.112 -32.080  1.00  0.00    -0.268 OA
HETATM    4  H   UNL     1      -4.860   3.244 -29.356  1.00  0.00     0.162 HD
ENDROOT
BRANCH   2   5
HETATM    5  C   UNL     1      -6.467   2.095 -30.143  1.00  0.00     0.156 C 
BRANCH   5   6
HETATM    6  C   UNL     1      -5.921   0.685 -29.842  1.00  0.00     0.160 C 
BRANCH   6   7
HETATM    7  O   UNL     1      -6.961  -0.297 -29.928  1.00  0.00    -0.392 OA
HETATM    8  H   UNL     1      -6.589  -1.099 -30.355  1.00  0.00     0.210 HD
ENDBRANCH   6   7
BRANCH   6   9
HETATM    9  C   UNL     1      -4.737   0.305 -30.741  1.00  0.00     0.209 C 
BRANCH   9  10
HETATM   10  O   UNL     1      -4.969   0.836 -32.050  1.00  0.00    -0.349 OA
BRANCH  10  11
HETATM   11  C   UNL     1      -5.437  -0.035 -32.994  1.00  0.00     0.069 A 
HETATM   12  C   UNL     1      -4.703  -1.218 -33.112  1.00  0.00     0.043 A 
HETATM   13  C   UNL     1      -5.070  -2.207 -34.034  1.00  0.00    -0.059 A 
HETATM   14  C   UNL     1      -4.268  -3.467 -34.162  1.00  0.00     0.048 C 
HETATM   15  C   UNL     1      -6.168  -1.979 -34.870  1.00  0.00     0.007 A 
HETATM   16  C   UNL     1      -6.897  -0.794 -34.765  1.00  0.00     0.003 A 
HETATM   17  C   UNL     1      -6.535   0.176 -33.828  1.00  0.00     0.037 A 
ENDBRANCH  10  11
ENDBRANCH   9  10
ENDBRANCH   6   9
ENDBRANCH   5   6
ENDBRANCH   2   5
BRANCH   1  18
HETATM   18  C   UNL     1      -4.606   5.300 -30.787  1.00  0.00     0.075 A 
HETATM   19  C   UNL     1      -4.966   6.436 -30.017  1.00  0.00     0.158 A 
HETATM   20  N   UNL     1      -3.994   7.330 -29.899  1.00  0.00    -0.183 NA
HETATM   21  N   UNL     1      -2.992   6.814 -30.633  1.00  0.00    -0.268 N 
HETATM   22  C   UNL     1      -3.290   5.568 -31.162  1.00  0.00     0.052 A 
BRANCH  21  23
HETATM   23  C   UNL     1      -1.790   7.618 -30.862  1.00  0.00     0.106 C 
HETATM   24  C   UNL     1      -1.595   8.022 -32.330  1.00  0.00     0.034 C 
BRANCH  23  25
HETATM   25  C   UNL     1      -0.536   6.949 -30.267  1.00  0.00     0.022 C 
HETATM   26  C   UNL     1       0.644   6.817 -31.224  1.00  0.00     0.007 C 
ENDBRANCH  23  25
ENDBRANCH  21  23
BRANCH  22  27
HETATM   27  C   UNL     1      -2.278   4.742 -31.967  1.00  0.00     0.038 A 
HETATM   28  C   UNL     1      -2.720   3.508 -32.717  1.00  0.00     0.011 A 
HETATM   29  C   UNL     1      -2.301   4.726 -33.474  1.00  0.00     0.011 A 
ENDBRANCH  22  27
ENDBRANCH   1  18
TORSDOF 10
ENDMDL
MODEL 10
REMARK VINA RESULT:      -6.8      3.914      6.932
REMARK  10 active torsions:
REMARK  status: ('A' for Active; 'I' for Inactive)
REMARK    1  A    between atoms: C_2  and  C_3 
REMARK    2  A    between atoms: C_3  and  N_4 
REMARK    3  A    between atoms: C_7  and  C_8 
REMARK       I    between atoms: C_8  and  N_9 
REMARK    4  A    between atoms: N_9  and  C_10 
REMARK    5  A    between atoms: C_10  and  C_11 
REMARK    6  A    between atoms: C_11  and  O_12 
REMARK    7  A    between atoms: C_11  and  C_13 
REMARK    8  A    between atoms: C_13  and  O_14 
REMARK    9  A    between atoms: O_14  and  C_15 
REMARK   10  A    between atoms: C_23  and  C_24 
ROOT
HETATM    1  C   UNL     1      -8.031   2.793 -31.314  1.00  0.00     0.255 C 
HETATM    2  N   UNL     1      -7.768   1.510 -30.872  1.00  0.00    -0.354 N 
HETATM    3  O   UNL     1      -7.138   3.630 -31.373  1.00  0.00    -0.268 OA
HETATM    4  H   UNL     1      -8.531   0.849 -30.807  1.00  0.00     0.162 HD
ENDROOT
BRANCH   2   5
HETATM    5  C   UNL     1      -6.414   1.008 -30.671  1.00  0.00     0.156 C 
BRANCH   5   6
HETATM    6  C   UNL     1      -5.488   1.056 -31.902  1.00  0.00     0.160 C 
BRANCH   6   7
HETATM    7  O   UNL     1      -4.376   1.932 -31.674  1.00  0.00    -0.392 OA
HETATM    8  H   UNL     1      -3.815   1.929 -32.480  1.00  0.00     0.210 HD
ENDBRANCH   6   7
BRANCH   6   9
HETATM    9  C   UNL     1      -5.006  -0.334 -32.334  1.00  0.00     0.209 C 
BRANCH   9  10
HETATM   10  O   UNL     1      -5.451  -0.576 -33.673  1.00  0.00    -0.349 OA
BRANCH  10  11
HETATM   11  C   UNL     1      -5.600  -1.882 -34.047  1.00  0.00     0.069 A 
HETATM   12  C   UNL     1      -4.480  -2.686 -33.822  1.00  0.00     0.043 A 
HETATM   13  C   UNL     1      -4.491  -4.048 -34.149  1.00  0.00    -0.059 A 
HETATM   14  C   UNL     1      -3.279  -4.899 -33.916  1.00  0.00     0.048 C 
HETATM   15  C   UNL     1      -5.634  -4.592 -34.744  1.00  0.00     0.007 A 
HETATM   16  C   UNL     1      -6.751  -3.792 -34.983  1.00  0.00     0.003 A 
HETATM   17  C   UNL     1      -6.737  -2.439 -34.634  1.00  0.00     0.037 A 
ENDBRANCH  10  11
ENDBRANCH   9  10
ENDBRANCH   6   9
ENDBRANCH   5   6
ENDBRANCH   2   5
BRANCH   1  18
HETATM   18  C   UNL     1      -9.413   3.030 -31.704  1.00  0.00     0.075 A 
HETATM   19  C   UNL     1     -10.303   3.917 -31.045  1.00  0.00     0.158 A 
HETATM   20  N   UNL     1     -11.519   3.945 -31.577  1.00  0.00    -0.183 NA
HETATM   21  N   UNL     1     -11.456   3.037 -32.569  1.00  0.00    -0.268 N 
HETATM   22  C   UNL     1     -10.196   2.481 -32.720  1.00  0.00     0.052 A 
BRANCH  21  23
HETATM   23  C   UNL     1     -12.682   2.683 -33.286  1.00  0.00     0.106 C 
HETATM   24  C   UNL     1     -12.852   3.434 -34.615  1.00  0.00     0.034 C 
BRANCH  23  25
HETATM   25  C   UNL     1     -13.925   2.803 -32.383  1.00  0.00     0.022 C 
HETATM   26  C   UNL     1     -15.100   1.916 -32.777  1.00  0.00     0.007 C 
ENDBRANCH  23  25
ENDBRANCH  21  23
BRANCH  22  27
HETATM   27  C   UNL     1      -9.855   1.483 -33.834  1.00  0.00     0.038 A 
HETATM   28  C   UNL     1      -8.447   1.386 -34.371  1.00  0.00     0.011 A 
HETATM   29  C   UNL     1      -9.012   0.264 -33.564  1.00  0.00     0.011 A 
ENDBRANCH  22  27
ENDBRANCH   1  18
TORSDOF 10
ENDMDL
