MODEL 1
REMARK VINA RESULT:      -9.1      0.000      0.000
REMARK  7 active torsions:
REMARK  status: ('A' for Active; 'I' for Inactive)
REMARK    1  A    between atoms: C_3  and  C_4 
REMARK       I    between atoms: C_4  and  N_5 
REMARK    2  A    between atoms: N_5  and  C_6 
REMARK    3  A    between atoms: C_17  and  S_18 
REMARK    4  A    between atoms: S_18  and  C_19 
REMARK    5  A    between atoms: C_19  and  C_20 
REMARK       I    between atoms: C_20  and  N_21 
REMARK    6  A    between atoms: N_21  and  C_22 
REMARK    7  A    between atoms: C_22  and  C_23 
ROOT
HETATM    1  C   UNL     1      -6.184  -4.599 -34.878  1.00  0.00     0.001 A 
HETATM    2  C   UNL     1      -6.834  -3.368 -34.836  1.00  0.00     0.018 A 
HETATM    3  C   UNL     1      -6.146  -2.220 -34.406  1.00  0.00     0.049 A 
HETATM    4  C   UNL     1      -4.796  -2.302 -34.011  1.00  0.00     0.016 A 
HETATM    5  C   UNL     1      -4.166  -3.555 -34.047  1.00  0.00     0.019 A 
HETATM    6  C   UNL     1      -4.851  -4.693 -34.483  1.00  0.00     0.001 A 
ENDROOT
BRANCH   3   7
HETATM    7  C   UNL     1      -6.891  -0.937 -34.366  1.00  0.00     0.257 C 
HETATM    8  N   UNL     1      -7.595  -0.730 -33.192  1.00  0.00    -0.323 N 
HETATM    9  H   UNL     1      -7.544  -1.457 -32.489  1.00  0.00     0.169 HD
HETATM   10  O   UNL     1      -6.871  -0.211 -35.350  1.00  0.00    -0.267 OA
BRANCH   8  11
HETATM   11  C   UNL     1      -8.465   0.346 -32.906  1.00  0.00     0.037 A 
HETATM   12  C   UNL     1      -9.786   0.411 -33.365  1.00  0.00     0.061 A 
HETATM   13  C   UNL     1     -10.531   1.502 -32.981  1.00  0.00     0.065 A 
HETATM   14  C   UNL     1     -10.017   2.516 -32.179  1.00  0.00     0.063 A 
HETATM   15  N   UNL     1     -11.854   1.813 -33.271  1.00  0.00    -0.306 N 
HETATM   16  N   UNL     1     -11.024   3.453 -31.975  1.00  0.00    -0.307 N 
HETATM   17  C   UNL     1      -8.724   2.494 -31.721  1.00  0.00     0.034 A 
HETATM   18  C   UNL     1     -12.179   3.026 -32.649  1.00  0.00     0.325 A 
HETATM   19  H   UNL     1     -10.973   4.301 -31.436  1.00  0.00     0.170 HD
HETATM   20  O   UNL     1     -13.253   3.599 -32.681  1.00  0.00    -0.247 OA
HETATM   21  C   UNL     1      -7.945   1.390 -32.095  1.00  0.00     0.032 A 
HETATM   22  H   UNL     1     -12.493   1.269 -33.829  1.00  0.00     0.170 HD
ENDBRANCH   8  11
ENDBRANCH   3   7
BRANCH   4  23
HETATM   23  S   UNL     1      -3.804  -0.926 -33.434  1.00  0.00    -0.120 SA
BRANCH  23  24
HETATM   24  C   UNL     1      -4.168  -0.977 -31.649  1.00  0.00     0.182 C 
BRANCH  24  25
HETATM   25  C   UNL     1      -4.391   0.413 -31.079  1.00  0.00     0.227 C 
HETATM   26  N   UNL     1      -3.679   1.428 -31.672  1.00  0.00    -0.354 N 
HETATM   27  H   UNL     1      -3.197   1.260 -32.557  1.00  0.00     0.162 HD
HETATM   28  O   UNL     1      -5.095   0.592 -30.085  1.00  0.00    -0.273 OA
BRANCH  26  29
HETATM   29  C   UNL     1      -3.838   2.792 -31.231  1.00  0.00     0.187 C 
BRANCH  29  30
HETATM   30  C   UNL     1      -2.926   3.701 -31.971  1.00  0.00     0.070 A 
HETATM   31  O   UNL     1      -1.807   4.136 -31.321  1.00  0.00    -0.325 OA
HETATM   32  C   UNL     1      -1.119   4.921 -32.189  1.00  0.00     0.142 A 
HETATM   33  C   UNL     1      -1.774   4.992 -33.395  1.00  0.00     0.027 A 
HETATM   34  C   UNL     1      -2.942   4.204 -33.258  1.00  0.00     0.036 A 
ENDBRANCH  29  30
ENDBRANCH  26  29
ENDBRANCH  24  25
ENDBRANCH  23  24
ENDBRANCH   4  23
TORSDOF 7
ENDMDL
MODEL 2
REMARK VINA RESULT:      -8.9      2.123      5.745
REMARK  7 active torsions:
REMARK  status: ('A' for Active; 'I' for Inactive)
REMARK    1  A    between atoms: C_3  and  C_4 
REMARK       I    between atoms: C_4  and  N_5 
REMARK    2  A    between atoms: N_5  and  C_6 
REMARK    3  A    between atoms: C_17  and  S_18 
REMARK    4  A    between atoms: S_18  and  C_19 
REMARK    5  A    between atoms: C_19  and  C_20 
REMARK       I    between atoms: C_20  and  N_21 
REMARK    6  A    between atoms: N_21  and  C_22 
REMARK    7  A    between atoms: C_22  and  C_23 
ROOT
HETATM    1  C   UNL     1      -3.704   5.226 -34.771  1.00  0.00     0.001 A 
HETATM    2  C   UNL     1      -4.979   4.839 -34.365  1.00  0.00     0.018 A 
HETATM    3  C   UNL     1      -5.138   3.950 -33.288  1.00  0.00     0.049 A 
HETATM    4  C   UNL     1      -4.013   3.439 -32.612  1.00  0.00     0.016 A 
HETATM    5  C   UNL     1      -2.738   3.830 -33.048  1.00  0.00     0.019 A 
HETATM    6  C   UNL     1      -2.585   4.722 -34.113  1.00  0.00     0.001 A 
ENDROOT
BRANCH   3   7
HETATM    7  C   UNL     1      -6.518   3.558 -32.908  1.00  0.00     0.257 C 
HETATM    8  N   UNL     1      -7.058   2.555 -33.695  1.00  0.00    -0.323 N 
HETATM    9  H   UNL     1      -6.479   2.194 -34.444  1.00  0.00     0.169 HD
HETATM   10  O   UNL     1      -7.073   4.158 -31.998  1.00  0.00    -0.267 OA
BRANCH   8  11
HETATM   11  C   UNL     1      -8.374   2.046 -33.632  1.00  0.00     0.037 A 
HETATM   12  C   UNL     1      -9.426   2.533 -34.417  1.00  0.00     0.061 A 
HETATM   13  C   UNL     1     -10.649   1.921 -34.278  1.00  0.00     0.065 A 
HETATM   14  C   UNL     1     -10.863   0.866 -33.396  1.00  0.00     0.063 A 
HETATM   15  N   UNL     1     -11.847   2.183 -34.933  1.00  0.00    -0.306 N 
HETATM   16  N   UNL     1     -12.193   0.478 -33.507  1.00  0.00    -0.307 N 
HETATM   17  C   UNL     1      -9.861   0.371 -32.601  1.00  0.00     0.034 A 
HETATM   18  C   UNL     1     -12.821   1.289 -34.465  1.00  0.00     0.325 A 
HETATM   19  H   UNL     1     -12.662  -0.260 -33.007  1.00  0.00     0.170 HD
HETATM   20  O   UNL     1     -13.983   1.224 -34.822  1.00  0.00    -0.247 OA
HETATM   21  C   UNL     1      -8.603   0.975 -32.728  1.00  0.00     0.032 A 
HETATM   22  H   UNL     1     -12.009   2.888 -35.634  1.00  0.00     0.170 HD
ENDBRANCH   8  11
ENDBRANCH   3   7
BRANCH   4  23
HETATM   23  S   UNL     1      -4.068   2.294 -31.234  1.00  0.00    -0.120 SA
BRANCH  23  24
HETATM   24  C   UNL     1      -3.644   0.735 -32.079  1.00  0.00     0.182 C 
BRANCH  24  25
HETATM   25  C   UNL     1      -4.884  -0.065 -32.440  1.00  0.00     0.227 C 
HETATM   26  N   UNL     1      -5.062  -0.328 -33.776  1.00  0.00    -0.354 N 
HETATM   27  H   UNL     1      -4.298  -0.158 -34.433  1.00  0.00     0.162 HD
HETATM   28  O   UNL     1      -5.720  -0.369 -31.589  1.00  0.00    -0.273 OA
BRANCH  26  29
HETATM   29  C   UNL     1      -6.188  -1.107 -34.228  1.00  0.00     0.187 C 
BRANCH  29  30
HETATM   30  C   UNL     1      -5.810  -2.531 -34.416  1.00  0.00     0.070 A 
HETATM   31  O   UNL     1      -4.537  -2.894 -34.083  1.00  0.00    -0.325 OA
HETATM   32  C   UNL     1      -4.428  -4.228 -34.309  1.00  0.00     0.142 A 
HETATM   33  C   UNL     1      -5.617  -4.736 -34.775  1.00  0.00     0.027 A 
HETATM   34  C   UNL     1      -6.513  -3.641 -34.845  1.00  0.00     0.036 A 
ENDBRANCH  29  30
ENDBRANCH  26  29
ENDBRANCH  24  25
ENDBRANCH  23  24
ENDBRANCH   4  23
TORSDOF 7
ENDMDL
MODEL 3
REMARK VINA RESULT:      -8.9      3.280      6.656
REMARK  7 active torsions:
REMARK  status: ('A' for Active; 'I' for Inactive)
REMARK    1  A    between atoms: C_3  and  C_4 
REMARK       I    between atoms: C_4  and  N_5 
REMARK    2  A    between atoms: N_5  and  C_6 
REMARK    3  A    between atoms: C_17  and  S_18 
REMARK    4  A    between atoms: S_18  and  C_19 
REMARK    5  A    between atoms: C_19  and  C_20 
REMARK       I    between atoms: C_20  and  N_21 
REMARK    6  A    between atoms: N_21  and  C_22 
REMARK    7  A    between atoms: C_22  and  C_23 
ROOT
HETATM    1  C   UNL     1      -2.296   4.607 -31.194  1.00  0.00     0.001 A 
HETATM    2  C   UNL     1      -2.738   3.302 -31.402  1.00  0.00     0.018 A 
HETATM    3  C   UNL     1      -4.113   3.011 -31.385  1.00  0.00     0.049 A 
HETATM    4  C   UNL     1      -5.056   4.031 -31.155  1.00  0.00     0.016 A 
HETATM    5  C   UNL     1      -4.588   5.335 -30.932  1.00  0.00     0.019 A 
HETATM    6  C   UNL     1      -3.221   5.622 -30.959  1.00  0.00     0.001 A 
ENDROOT
BRANCH   3   7
HETATM    7  C   UNL     1      -4.527   1.601 -31.597  1.00  0.00     0.257 C 
HETATM    8  N   UNL     1      -4.756   1.273 -32.923  1.00  0.00    -0.323 N 
HETATM    9  H   UNL     1      -4.628   2.007 -33.608  1.00  0.00     0.169 HD
HETATM   10  O   UNL     1      -4.680   0.877 -30.623  1.00  0.00    -0.267 OA
BRANCH   8  11
HETATM   11  C   UNL     1      -5.248   0.045 -33.417  1.00  0.00     0.037 A 
HETATM   12  C   UNL     1      -4.448  -1.090 -33.597  1.00  0.00     0.061 A 
HETATM   13  C   UNL     1      -5.067  -2.229 -34.053  1.00  0.00     0.065 A 
HETATM   14  C   UNL     1      -6.428  -2.279 -34.342  1.00  0.00     0.063 A 
HETATM   15  N   UNL     1      -4.530  -3.487 -34.303  1.00  0.00    -0.306 N 
HETATM   16  N   UNL     1      -6.729  -3.567 -34.769  1.00  0.00    -0.307 N 
HETATM   17  C   UNL     1      -7.241  -1.185 -34.191  1.00  0.00     0.034 A 
HETATM   18  C   UNL     1      -5.553  -4.335 -34.748  1.00  0.00     0.325 A 
HETATM   19  H   UNL     1      -7.626  -3.927 -35.049  1.00  0.00     0.170 HD
HETATM   20  O   UNL     1      -5.448  -5.509 -35.053  1.00  0.00    -0.247 OA
HETATM   21  C   UNL     1      -6.634  -0.011 -33.722  1.00  0.00     0.032 A 
HETATM   22  H   UNL     1      -3.568  -3.765 -34.186  1.00  0.00     0.170 HD
ENDBRANCH   8  11
ENDBRANCH   3   7
BRANCH   4  23
HETATM   23  S   UNL     1      -6.833   3.800 -31.097  1.00  0.00    -0.120 SA
BRANCH  23  24
HETATM   24  C   UNL     1      -7.320   4.564 -32.679  1.00  0.00     0.182 C 
BRANCH  24  25
HETATM   25  C   UNL     1      -6.366   4.192 -33.801  1.00  0.00     0.227 C 
HETATM   26  N   UNL     1      -5.406   5.126 -34.109  1.00  0.00    -0.354 N 
HETATM   27  H   UNL     1      -5.246   5.915 -33.480  1.00  0.00     0.162 HD
HETATM   28  O   UNL     1      -6.514   3.158 -34.451  1.00  0.00    -0.273 OA
BRANCH  26  29
HETATM   29  C   UNL     1      -4.429   4.864 -35.137  1.00  0.00     0.187 C 
BRANCH  29  30
HETATM   30  C   UNL     1      -3.118   5.473 -34.793  1.00  0.00     0.070 A 
HETATM   31  O   UNL     1      -3.130   6.708 -34.211  1.00  0.00    -0.325 OA
HETATM   32  C   UNL     1      -1.840   7.048 -33.964  1.00  0.00     0.142 A 
HETATM   33  C   UNL     1      -0.992   6.044 -34.370  1.00  0.00     0.027 A 
HETATM   34  C   UNL     1      -1.816   5.024 -34.906  1.00  0.00     0.036 A 
ENDBRANCH  29  30
ENDBRANCH  26  29
ENDBRANCH  24  25
ENDBRANCH  23  24
ENDBRANCH   4  23
TORSDOF 7
ENDMDL
MODEL 4
REMARK VINA RESULT:      -8.8      1.440      1.557
REMARK  7 active torsions:
REMARK  status: ('A' for Active; 'I' for Inactive)
REMARK    1  A    between atoms: C_3  and  C_4 
REMARK       I    between atoms: C_4  and  N_5 
REMARK    2  A    between atoms: N_5  and  C_6 
REMARK    3  A    between atoms: C_17  and  S_18 
REMARK    4  A    between atoms: S_18  and  C_19 
REMARK    5  A    between atoms: C_19  and  C_20 
REMARK       I    between atoms: C_20  and  N_21 
REMARK    6  A    between atoms: N_21  and  C_22 
REMARK    7  A    between atoms: C_22  and  C_23 
ROOT
HETATM    1  C   UNL     1      -6.164  -4.521 -34.794  1.00  0.00     0.001 A 
HETATM    2  C   UNL     1      -6.819  -3.294 -34.859  1.00  0.00     0.018 A 
HETATM    3  C   UNL     1      -6.161  -2.120 -34.452  1.00  0.00     0.049 A 
HETATM    4  C   UNL     1      -4.838  -2.172 -33.972  1.00  0.00     0.016 A 
HETATM    5  C   UNL     1      -4.203  -3.422 -33.900  1.00  0.00     0.019 A 
HETATM    6  C   UNL     1      -4.858  -4.585 -34.315  1.00  0.00     0.001 A 
ENDROOT
BRANCH   3   7
HETATM    7  C   UNL     1      -6.911  -0.841 -34.528  1.00  0.00     0.257 C 
HETATM    8  N   UNL     1      -7.713  -0.591 -33.428  1.00  0.00    -0.323 N 
HETATM    9  H   UNL     1      -7.720  -1.288 -32.694  1.00  0.00     0.169 HD
HETATM   10  O   UNL     1      -6.809  -0.155 -35.536  1.00  0.00    -0.267 OA
BRANCH   8  11
HETATM   11  C   UNL     1      -8.607   0.490 -33.261  1.00  0.00     0.037 A 
HETATM   12  C   UNL     1      -9.998   0.360 -33.351  1.00  0.00     0.061 A 
HETATM   13  C   UNL     1     -10.750   1.491 -33.132  1.00  0.00     0.065 A 
HETATM   14  C   UNL     1     -10.179   2.726 -32.841  1.00  0.00     0.063 A 
HETATM   15  N   UNL     1     -12.131   1.648 -33.141  1.00  0.00    -0.306 N 
HETATM   16  N   UNL     1     -11.208   3.644 -32.671  1.00  0.00    -0.307 N 
HETATM   17  C   UNL     1      -8.820   2.895 -32.758  1.00  0.00     0.034 A 
HETATM   18  C   UNL     1     -12.435   2.985 -32.852  1.00  0.00     0.325 A 
HETATM   19  H   UNL     1     -11.128   4.622 -32.448  1.00  0.00     0.170 HD
HETATM   20  O   UNL     1     -13.544   3.481 -32.770  1.00  0.00    -0.247 OA
HETATM   21  C   UNL     1      -8.032   1.756 -32.973  1.00  0.00     0.032 A 
HETATM   22  H   UNL     1     -12.818   0.932 -33.317  1.00  0.00     0.170 HD
ENDBRANCH   8  11
ENDBRANCH   3   7
BRANCH   4  23
HETATM   23  S   UNL     1      -3.886  -0.760 -33.413  1.00  0.00    -0.120 SA
BRANCH  23  24
HETATM   24  C   UNL     1      -4.187  -0.846 -31.617  1.00  0.00     0.182 C 
BRANCH  24  25
HETATM   25  C   UNL     1      -5.003   0.337 -31.125  1.00  0.00     0.227 C 
HETATM   26  N   UNL     1      -4.360   1.552 -31.122  1.00  0.00    -0.354 N 
HETATM   27  H   UNL     1      -3.467   1.654 -31.607  1.00  0.00     0.162 HD
HETATM   28  O   UNL     1      -6.137   0.188 -30.670  1.00  0.00    -0.273 OA
BRANCH  26  29
HETATM   29  C   UNL     1      -5.051   2.747 -30.705  1.00  0.00     0.187 C 
BRANCH  29  30
HETATM   30  C   UNL     1      -5.245   3.676 -31.847  1.00  0.00     0.070 A 
HETATM   31  O   UNL     1      -5.974   4.809 -31.621  1.00  0.00    -0.325 OA
HETATM   32  C   UNL     1      -5.997   5.510 -32.782  1.00  0.00     0.142 A 
HETATM   33  C   UNL     1      -5.283   4.852 -33.755  1.00  0.00     0.027 A 
HETATM   34  C   UNL     1      -4.796   3.666 -33.153  1.00  0.00     0.036 A 
ENDBRANCH  29  30
ENDBRANCH  26  29
ENDBRANCH  24  25
ENDBRANCH  23  24
ENDBRANCH   4  23
TORSDOF 7
ENDMDL
MODEL 5
REMARK VINA RESULT:      -8.6      2.293      3.212
REMARK  7 active torsions:
REMARK  status: ('A' for Active; 'I' for Inactive)
REMARK    1  A    between atoms: C_3  and  C_4 
REMARK       I    between atoms: C_4  and  N_5 
REMARK    2  A    between atoms: N_5  and  C_6 
REMARK    3  A    between atoms: C_17  and  S_18 
REMARK    4  A    between atoms: S_18  and  C_19 
REMARK    5  A    between atoms: C_19  and  C_20 
REMARK       I    between atoms: C_20  and  N_21 
REMARK    6  A    between atoms: N_21  and  C_22 
REMARK    7  A    between atoms: C_22  and  C_23 
ROOT
HETATM    1  C   UNL     1      -5.957  -1.996 -34.307  1.00  0.00     0.001 A 
HETATM    2  C   UNL     1      -7.213  -1.514 -33.944  1.00  0.00     0.018 A 
HETATM    3  C   UNL     1      -7.325  -0.328 -33.198  1.00  0.00     0.049 A 
HETATM    4  C   UNL     1      -6.174   0.383 -32.808  1.00  0.00     0.016 A 
HETATM    5  C   UNL     1      -4.919  -0.129 -33.171  1.00  0.00     0.019 A 
HETATM    6  C   UNL     1      -4.811  -1.304 -33.920  1.00  0.00     0.001 A 
ENDROOT
BRANCH   3   7
HETATM    7  C   UNL     1      -8.687   0.131 -32.825  1.00  0.00     0.257 C 
HETATM    8  N   UNL     1      -9.439   0.593 -33.892  1.00  0.00    -0.323 N 
HETATM    9  H   UNL     1      -9.001   0.581 -34.805  1.00  0.00     0.169 HD
HETATM   10  O   UNL     1      -9.013   0.117 -31.646  1.00  0.00    -0.267 OA
BRANCH   8  11
HETATM   11  C   UNL     1     -10.724   1.177 -33.831  1.00  0.00     0.037 A 
HETATM   12  C   UNL     1     -11.883   0.458 -33.512  1.00  0.00     0.061 A 
HETATM   13  C   UNL     1     -13.062   1.162 -33.455  1.00  0.00     0.065 A 
HETATM   14  C   UNL     1     -13.133   2.529 -33.707  1.00  0.00     0.063 A 
HETATM   15  N   UNL     1     -14.343   0.715 -33.151  1.00  0.00    -0.306 N 
HETATM   16  N   UNL     1     -14.457   2.925 -33.558  1.00  0.00    -0.307 N 
HETATM   17  C   UNL     1     -12.022   3.264 -34.034  1.00  0.00     0.034 A 
HETATM   18  C   UNL     1     -15.225   1.803 -33.208  1.00  0.00     0.325 A 
HETATM   19  H   UNL     1     -14.837   3.850 -33.668  1.00  0.00     0.170 HD
HETATM   20  O   UNL     1     -16.424   1.783 -32.993  1.00  0.00    -0.247 OA
HETATM   21  C   UNL     1     -10.805   2.570 -34.095  1.00  0.00     0.032 A 
HETATM   22  H   UNL     1     -14.613  -0.228 -32.920  1.00  0.00     0.170 HD
ENDBRANCH   8  11
ENDBRANCH   3   7
BRANCH   4  23
HETATM   23  S   UNL     1      -6.171   1.898 -31.851  1.00  0.00    -0.120 SA
BRANCH  23  24
HETATM   24  C   UNL     1      -4.380   2.141 -31.617  1.00  0.00     0.182 C 
BRANCH  24  25
HETATM   25  C   UNL     1      -3.865   3.335 -32.403  1.00  0.00     0.227 C 
HETATM   26  N   UNL     1      -2.550   3.673 -32.192  1.00  0.00    -0.354 N 
HETATM   27  H   UNL     1      -1.935   3.029 -31.691  1.00  0.00     0.162 HD
HETATM   28  O   UNL     1      -4.616   4.009 -33.108  1.00  0.00    -0.273 OA
BRANCH  26  29
HETATM   29  C   UNL     1      -1.949   4.770 -32.909  1.00  0.00     0.187 C 
BRANCH  29  30
HETATM   30  C   UNL     1      -0.921   5.449 -32.081  1.00  0.00     0.070 A 
HETATM   31  O   UNL     1      -0.306   4.711 -31.110  1.00  0.00    -0.325 OA
HETATM   32  C   UNL     1       0.602   5.520 -30.507  1.00  0.00     0.142 A 
HETATM   33  C   UNL     1       0.591   6.769 -31.081  1.00  0.00     0.027 A 
HETATM   34  C   UNL     1      -0.393   6.726 -32.099  1.00  0.00     0.036 A 
ENDBRANCH  29  30
ENDBRANCH  26  29
ENDBRANCH  24  25
ENDBRANCH  23  24
ENDBRANCH   4  23
TORSDOF 7
ENDMDL
MODEL 6
REMARK VINA RESULT:      -8.5      2.897      6.577
REMARK  7 active torsions:
REMARK  status: ('A' for Active; 'I' for Inactive)
REMARK    1  A    between atoms: C_3  and  C_4 
REMARK       I    between atoms: C_4  and  N_5 
REMARK    2  A    between atoms: N_5  and  C_6 
REMARK    3  A    between atoms: C_17  and  S_18 
REMARK    4  A    between atoms: S_18  and  C_19 
REMARK    5  A    between atoms: C_19  and  C_20 
REMARK       I    between atoms: C_20  and  N_21 
REMARK    6  A    between atoms: N_21  and  C_22 
REMARK    7  A    between atoms: C_22  and  C_23 
ROOT
HETATM    1  C   UNL     1      -9.934   4.072 -30.985  1.00  0.00     0.001 A 
HETATM    2  C   UNL     1      -9.203   2.893 -31.111  1.00  0.00     0.018 A 
HETATM    3  C   UNL     1      -7.816   2.943 -31.335  1.00  0.00     0.049 A 
HETATM    4  C   UNL     1      -7.153   4.181 -31.439  1.00  0.00     0.016 A 
HETATM    5  C   UNL     1      -7.912   5.356 -31.324  1.00  0.00     0.019 A 
HETATM    6  C   UNL     1      -9.289   5.302 -31.092  1.00  0.00     0.001 A 
ENDROOT
BRANCH   3   7
HETATM    7  C   UNL     1      -7.089   1.657 -31.478  1.00  0.00     0.257 C 
HETATM    8  N   UNL     1      -6.934   1.237 -32.788  1.00  0.00    -0.323 N 
HETATM    9  H   UNL     1      -7.328   1.828 -33.511  1.00  0.00     0.169 HD
HETATM   10  O   UNL     1      -6.738   1.061 -30.468  1.00  0.00    -0.267 OA
BRANCH   8  11
HETATM   11  C   UNL     1      -6.373   0.017 -33.225  1.00  0.00     0.037 A 
HETATM   12  C   UNL     1      -7.138  -1.058 -33.695  1.00  0.00     0.061 A 
HETATM   13  C   UNL     1      -6.457  -2.174 -34.121  1.00  0.00     0.065 A 
HETATM   14  C   UNL     1      -5.068  -2.262 -34.090  1.00  0.00     0.063 A 
HETATM   15  N   UNL     1      -6.951  -3.364 -34.644  1.00  0.00    -0.306 N 
HETATM   16  N   UNL     1      -4.707  -3.506 -34.594  1.00  0.00    -0.307 N 
HETATM   17  C   UNL     1      -4.287  -1.236 -33.625  1.00  0.00     0.034 A 
HETATM   18  C   UNL     1      -5.872  -4.205 -34.947  1.00  0.00     0.325 A 
HETATM   19  H   UNL     1      -3.778  -3.876 -34.708  1.00  0.00     0.170 HD
HETATM   20  O   UNL     1      -5.930  -5.323 -35.426  1.00  0.00    -0.247 OA
HETATM   21  C   UNL     1      -4.957  -0.084 -33.189  1.00  0.00     0.032 A 
HETATM   22  H   UNL     1      -7.919  -3.600 -34.793  1.00  0.00     0.170 HD
ENDBRANCH   8  11
ENDBRANCH   3   7
BRANCH   4  23
HETATM   23  S   UNL     1      -5.397   4.391 -31.732  1.00  0.00    -0.120 SA
BRANCH  23  24
HETATM   24  C   UNL     1      -5.400   4.765 -33.516  1.00  0.00     0.182 C 
BRANCH  24  25
HETATM   25  C   UNL     1      -4.014   5.129 -34.018  1.00  0.00     0.227 C 
HETATM   26  N   UNL     1      -2.990   4.987 -33.113  1.00  0.00    -0.354 N 
HETATM   27  H   UNL     1      -3.151   4.483 -32.239  1.00  0.00     0.162 HD
HETATM   28  O   UNL     1      -3.844   5.612 -35.137  1.00  0.00    -0.273 OA
BRANCH  26  29
HETATM   29  C   UNL     1      -1.628   5.275 -33.492  1.00  0.00     0.187 C 
BRANCH  29  30
HETATM   30  C   UNL     1      -0.814   5.654 -32.310  1.00  0.00     0.070 A 
HETATM   31  O   UNL     1      -0.541   4.679 -31.393  1.00  0.00    -0.325 OA
HETATM   32  C   UNL     1       0.229   5.240 -30.427  1.00  0.00     0.142 A 
HETATM   33  C   UNL     1       0.467   6.564 -30.711  1.00  0.00     0.027 A 
HETATM   34  C   UNL     1      -0.205   6.834 -31.928  1.00  0.00     0.036 A 
ENDBRANCH  29  30
ENDBRANCH  26  29
ENDBRANCH  24  25
ENDBRANCH  23  24
ENDBRANCH   4  23
TORSDOF 7
ENDMDL
MODEL 7
REMARK VINA RESULT:      -8.4      2.493      3.392
REMARK  7 active torsions:
REMARK  status: ('A' for Active; 'I' for Inactive)
REMARK    1  A    between atoms: C_3  and  C_4 
REMARK       I    between atoms: C_4  and  N_5 
REMARK    2  A    between atoms: N_5  and  C_6 
REMARK    3  A    between atoms: C_17  and  S_18 
REMARK    4  A    between atoms: S_18  and  C_19 
REMARK    5  A    between atoms: C_19  and  C_20 
REMARK       I    between atoms: C_20  and  N_21 
REMARK    6  A    between atoms: N_21  and  C_22 
REMARK    7  A    between atoms: C_22  and  C_23 
ROOT
HETATM    1  C   UNL     1      -6.642  -3.977 -34.840  1.00  0.00     0.001 A 
HETATM    2  C   UNL     1      -7.120  -2.742 -34.406  1.00  0.00     0.018 A 
HETATM    3  C   UNL     1      -6.223  -1.758 -33.955  1.00  0.00     0.049 A 
HETATM    4  C   UNL     1      -4.838  -2.009 -33.933  1.00  0.00     0.016 A 
HETATM    5  C   UNL     1      -4.380  -3.265 -34.360  1.00  0.00     0.019 A 
HETATM    6  C   UNL     1      -5.275  -4.238 -34.817  1.00  0.00     0.001 A 
ENDROOT
BRANCH   3   7
HETATM    7  C   UNL     1      -6.786  -0.466 -33.488  1.00  0.00     0.257 C 
HETATM    8  N   UNL     1      -6.692   0.559 -34.415  1.00  0.00    -0.323 N 
HETATM    9  H   UNL     1      -6.253   0.340 -35.301  1.00  0.00     0.169 HD
HETATM   10  O   UNL     1      -7.228  -0.390 -32.349  1.00  0.00    -0.267 OA
BRANCH   8  11
HETATM   11  C   UNL     1      -7.053   1.911 -34.221  1.00  0.00     0.037 A 
HETATM   12  C   UNL     1      -8.378   2.363 -34.227  1.00  0.00     0.061 A 
HETATM   13  C   UNL     1      -8.585   3.701 -33.990  1.00  0.00     0.065 A 
HETATM   14  C   UNL     1      -7.541   4.593 -33.760  1.00  0.00     0.063 A 
HETATM   15  N   UNL     1      -9.778   4.412 -33.922  1.00  0.00    -0.306 N 
HETATM   16  N   UNL     1      -8.091   5.852 -33.551  1.00  0.00    -0.307 N 
HETATM   17  C   UNL     1      -6.230   4.190 -33.760  1.00  0.00     0.034 A 
HETATM   18  C   UNL     1      -9.489   5.755 -33.646  1.00  0.00     0.325 A 
HETATM   19  H   UNL     1      -7.603   6.710 -33.355  1.00  0.00     0.170 HD
HETATM   20  O   UNL     1     -10.290   6.662 -33.511  1.00  0.00    -0.247 OA
HETATM   21  C   UNL     1      -5.992   2.828 -33.994  1.00  0.00     0.032 A 
HETATM   22  H   UNL     1     -10.708   4.041 -34.043  1.00  0.00     0.170 HD
ENDBRANCH   8  11
ENDBRANCH   3   7
BRANCH   4  23
HETATM   23  S   UNL     1      -3.587  -0.852 -33.376  1.00  0.00    -0.120 SA
BRANCH  23  24
HETATM   24  C   UNL     1      -4.004  -0.738 -31.605  1.00  0.00     0.182 C 
BRANCH  24  25
HETATM   25  C   UNL     1      -3.964   0.697 -31.108  1.00  0.00     0.227 C 
HETATM   26  N   UNL     1      -5.171   1.240 -30.739  1.00  0.00    -0.354 N 
HETATM   27  H   UNL     1      -5.987   0.635 -30.628  1.00  0.00     0.162 HD
HETATM   28  O   UNL     1      -2.923   1.353 -31.131  1.00  0.00    -0.273 OA
BRANCH  26  29
HETATM   29  C   UNL     1      -5.245   2.585 -30.222  1.00  0.00     0.187 C 
BRANCH  29  30
HETATM   30  C   UNL     1      -6.643   3.085 -30.237  1.00  0.00     0.070 A 
HETATM   31  O   UNL     1      -6.842   4.406 -29.950  1.00  0.00    -0.325 OA
HETATM   32  C   UNL     1      -8.175   4.640 -30.049  1.00  0.00     0.142 A 
HETATM   33  C   UNL     1      -8.841   3.492 -30.405  1.00  0.00     0.027 A 
HETATM   34  C   UNL     1      -7.852   2.485 -30.528  1.00  0.00     0.036 A 
ENDBRANCH  29  30
ENDBRANCH  26  29
ENDBRANCH  24  25
ENDBRANCH  23  24
ENDBRANCH   4  23
TORSDOF 7
ENDMDL
MODEL 8
REMARK VINA RESULT:      -8.4      2.413      8.034
REMARK  7 active torsions:
REMARK  status: ('A' for Active; 'I' for Inactive)
REMARK    1  A    between atoms: C_3  and  C_4 
REMARK       I    between atoms: C_4  and  N_5 
REMARK    2  A    between atoms: N_5  and  C_6 
REMARK    3  A    between atoms: C_17  and  S_18 
REMARK    4  A    between atoms: S_18  and  C_19 
REMARK    5  A    between atoms: C_19  and  C_20 
REMARK       I    between atoms: C_20  and  N_21 
REMARK    6  A    between atoms: N_21  and  C_22 
REMARK    7  A    between atoms: C_22  and  C_23 
ROOT
HETATM    1  C   UNL     1      -4.904  -2.577 -34.347  1.00  0.00     0.001 A 
HETATM    2  C   UNL     1      -4.482  -1.537 -33.522  1.00  0.00     0.018 A 
HETATM    3  C   UNL     1      -5.418  -0.636 -32.986  1.00  0.00     0.049 A 
HETATM    4  C   UNL     1      -6.789  -0.772 -33.279  1.00  0.00     0.016 A 
HETATM    5  C   UNL     1      -7.190  -1.818 -34.125  1.00  0.00     0.019 A 
HETATM    6  C   UNL     1      -6.257  -2.717 -34.648  1.00  0.00     0.001 A 
ENDROOT
BRANCH   3   7
HETATM    7  C   UNL     1      -4.912   0.463 -32.126  1.00  0.00     0.257 C 
HETATM    8  N   UNL     1      -4.751   1.669 -32.788  1.00  0.00    -0.323 N 
HETATM    9  H   UNL     1      -4.980   1.688 -33.774  1.00  0.00     0.169 HD
HETATM   10  O   UNL     1      -4.638   0.222 -30.959  1.00  0.00    -0.267 OA
BRANCH   8  11
HETATM   11  C   UNL     1      -4.200   2.857 -32.258  1.00  0.00     0.037 A 
HETATM   12  C   UNL     1      -2.907   3.306 -32.553  1.00  0.00     0.061 A 
HETATM   13  C   UNL     1      -2.514   4.499 -31.994  1.00  0.00     0.065 A 
HETATM   14  C   UNL     1      -3.341   5.245 -31.160  1.00  0.00     0.063 A 
HETATM   15  N   UNL     1      -1.310   5.181 -32.126  1.00  0.00    -0.306 N 
HETATM   16  N   UNL     1      -2.647   6.387 -30.778  1.00  0.00    -0.307 N 
HETATM   17  C   UNL     1      -4.608   4.831 -30.837  1.00  0.00     0.034 A 
HETATM   18  C   UNL     1      -1.377   6.363 -31.376  1.00  0.00     0.325 A 
HETATM   19  H   UNL     1      -2.969   7.130 -30.181  1.00  0.00     0.170 HD
HETATM   20  O   UNL     1      -0.508   7.208 -31.265  1.00  0.00    -0.247 OA
HETATM   21  C   UNL     1      -5.035   3.619 -31.398  1.00  0.00     0.032 A 
HETATM   22  H   UNL     1      -0.512   4.895 -32.670  1.00  0.00     0.170 HD
ENDBRANCH   8  11
ENDBRANCH   3   7
BRANCH   4  23
HETATM   23  S   UNL     1      -8.086   0.307 -32.674  1.00  0.00    -0.120 SA
BRANCH  23  24
HETATM   24  C   UNL     1      -8.995   0.635 -34.220  1.00  0.00     0.182 C 
BRANCH  24  25
HETATM   25  C   UNL     1     -10.034   1.728 -34.042  1.00  0.00     0.227 C 
HETATM   26  N   UNL     1     -10.998   1.807 -35.018  1.00  0.00    -0.354 N 
HETATM   27  H   UNL     1     -11.099   1.047 -35.694  1.00  0.00     0.162 HD
HETATM   28  O   UNL     1      -9.951   2.548 -33.127  1.00  0.00    -0.273 OA
BRANCH  26  29
HETATM   29  C   UNL     1     -12.053   2.787 -34.932  1.00  0.00     0.187 C 
BRANCH  29  30
HETATM   30  C   UNL     1     -13.269   2.208 -34.308  1.00  0.00     0.070 A 
HETATM   31  O   UNL     1     -13.892   1.188 -34.969  1.00  0.00    -0.325 OA
HETATM   32  C   UNL     1     -14.949   0.803 -34.210  1.00  0.00     0.142 A 
HETATM   33  C   UNL     1     -15.013   1.553 -33.060  1.00  0.00     0.027 A 
HETATM   34  C   UNL     1     -13.928   2.462 -33.121  1.00  0.00     0.036 A 
ENDBRANCH  29  30
ENDBRANCH  26  29
ENDBRANCH  24  25
ENDBRANCH  23  24
ENDBRANCH   4  23
TORSDOF 7
ENDMDL
MODEL 9
REMARK VINA RESULT:      -8.3      2.702      6.300
REMARK  7 active torsions:
REMARK  status: ('A' for Active; 'I' for Inactive)
REMARK    1  A    between atoms: C_3  and  C_4 
REMARK       I    between atoms: C_4  and  N_5 
REMARK    2  A    between atoms: N_5  and  C_6 
REMARK    3  A    between atoms: C_17  and  S_18 
REMARK    4  A    between atoms: S_18  and  C_19 
REMARK    5  A    between atoms: C_19  and  C_20 
REMARK       I    between atoms: C_20  and  N_21 
REMARK    6  A    between atoms: N_21  and  C_22 
REMARK    7  A    between atoms: C_22  and  C_23 
ROOT
HETATM    1  C   UNL     1      -9.153   4.993 -33.879  1.00  0.00     0.001 A 
HETATM    2  C   UNL     1      -8.807   3.644 -33.822  1.00  0.00     0.018 A 
HETATM    3  C   UNL     1      -8.315   3.091 -32.627  1.00  0.00     0.049 A 
HETATM    4  C   UNL     1      -8.163   3.892 -31.478  1.00  0.00     0.016 A 
HETATM    5  C   UNL     1      -8.503   5.251 -31.563  1.00  0.00     0.019 A 
HETATM    6  C   UNL     1      -9.000   5.795 -32.751  1.00  0.00     0.001 A 
ENDROOT
BRANCH   3   7
HETATM    7  C   UNL     1      -7.948   1.653 -32.626  1.00  0.00     0.257 C 
HETATM    8  N   UNL     1      -6.781   1.368 -33.314  1.00  0.00    -0.323 N 
HETATM    9  H   UNL     1      -6.300   2.146 -33.749  1.00  0.00     0.169 HD
HETATM   10  O   UNL     1      -8.697   0.852 -32.084  1.00  0.00    -0.267 OA
BRANCH   8  11
HETATM   11  C   UNL     1      -6.236   0.089 -33.562  1.00  0.00     0.037 A 
HETATM   12  C   UNL     1      -6.973  -0.969 -34.110  1.00  0.00     0.061 A 
HETATM   13  C   UNL     1      -6.306  -2.150 -34.331  1.00  0.00     0.065 A 
HETATM   14  C   UNL     1      -4.959  -2.320 -34.025  1.00  0.00     0.063 A 
HETATM   15  N   UNL     1      -6.776  -3.342 -34.872  1.00  0.00    -0.306 N 
HETATM   16  N   UNL     1      -4.599  -3.616 -34.376  1.00  0.00    -0.307 N 
HETATM   17  C   UNL     1      -4.208  -1.312 -33.475  1.00  0.00     0.034 A 
HETATM   18  C   UNL     1      -5.724  -4.266 -34.909  1.00  0.00     0.325 A 
HETATM   19  H   UNL     1      -3.695  -4.048 -34.285  1.00  0.00     0.170 HD
HETATM   20  O   UNL     1      -5.770  -5.409 -35.326  1.00  0.00    -0.247 OA
HETATM   21  C   UNL     1      -4.865  -0.095 -33.244  1.00  0.00     0.032 A 
HETATM   22  H   UNL     1      -7.713  -3.529 -35.194  1.00  0.00     0.170 HD
ENDBRANCH   8  11
ENDBRANCH   3   7
BRANCH   4  23
HETATM   23  S   UNL     1      -7.541   3.322 -29.897  1.00  0.00    -0.120 SA
BRANCH  23  24
HETATM   24  C   UNL     1      -6.012   4.306 -29.767  1.00  0.00     0.182 C 
BRANCH  24  25
HETATM   25  C   UNL     1      -4.888   3.713 -30.599  1.00  0.00     0.227 C 
HETATM   26  N   UNL     1      -3.811   4.535 -30.829  1.00  0.00    -0.354 N 
HETATM   27  H   UNL     1      -3.713   5.403 -30.299  1.00  0.00     0.162 HD
HETATM   28  O   UNL     1      -4.990   2.599 -31.112  1.00  0.00    -0.273 OA
BRANCH  26  29
HETATM   29  C   UNL     1      -2.674   4.063 -31.580  1.00  0.00     0.187 C 
BRANCH  29  30
HETATM   30  C   UNL     1      -2.704   4.578 -32.973  1.00  0.00     0.070 A 
HETATM   31  O   UNL     1      -1.505   4.799 -33.589  1.00  0.00    -0.325 OA
HETATM   32  C   UNL     1      -1.775   5.236 -34.845  1.00  0.00     0.142 A 
HETATM   33  C   UNL     1      -3.132   5.292 -35.054  1.00  0.00     0.027 A 
HETATM   34  C   UNL     1      -3.736   4.867 -33.845  1.00  0.00     0.036 A 
ENDBRANCH  29  30
ENDBRANCH  26  29
ENDBRANCH  24  25
ENDBRANCH  23  24
ENDBRANCH   4  23
TORSDOF 7
ENDMDL
MODEL 10
REMARK VINA RESULT:      -8.2      2.616      7.809
REMARK  7 active torsions:
REMARK  status: ('A' for Active; 'I' for Inactive)
REMARK    1  A    between atoms: C_3  and  C_4 
REMARK       I    between atoms: C_4  and  N_5 
REMARK    2  A    between atoms: N_5  and  C_6 
REMARK    3  A    between atoms: C_17  and  S_18 
REMARK    4  A    between atoms: S_18  and  C_19 
REMARK    5  A    between atoms: C_19  and  C_20 
REMARK       I    between atoms: C_20  and  N_21 
REMARK    6  A    between atoms: N_21  and  C_22 
REMARK    7  A    between atoms: C_22  and  C_23 
ROOT
HETATM    1  C   UNL     1     -11.159   3.852 -35.266  1.00  0.00     0.001 A 
HETATM    2  C   UNL     1      -9.944   4.432 -34.909  1.00  0.00     0.018 A 
HETATM    3  C   UNL     1      -9.250   3.974 -33.776  1.00  0.00     0.049 A 
HETATM    4  C   UNL     1      -9.774   2.930 -32.990  1.00  0.00     0.016 A 
HETATM    5  C   UNL     1     -11.007   2.371 -33.359  1.00  0.00     0.019 A 
HETATM    6  C   UNL     1     -11.690   2.823 -34.492  1.00  0.00     0.001 A 
ENDROOT
BRANCH   3   7
HETATM    7  C   UNL     1      -7.967   4.638 -33.432  1.00  0.00     0.257 C 
HETATM    8  N   UNL     1      -6.843   3.945 -33.846  1.00  0.00    -0.323 N 
HETATM    9  H   UNL     1      -6.994   3.067 -34.328  1.00  0.00     0.169 HD
HETATM   10  O   UNL     1      -7.995   5.680 -32.790  1.00  0.00    -0.267 OA
BRANCH   8  11
HETATM   11  C   UNL     1      -5.497   4.279 -33.579  1.00  0.00     0.037 A 
HETATM   12  C   UNL     1      -4.862   4.006 -32.361  1.00  0.00     0.061 A 
HETATM   13  C   UNL     1      -3.537   4.356 -32.252  1.00  0.00     0.065 A 
HETATM   14  C   UNL     1      -2.834   4.964 -33.287  1.00  0.00     0.063 A 
HETATM   15  N   UNL     1      -2.666   4.191 -31.181  1.00  0.00    -0.306 N 
HETATM   16  N   UNL     1      -1.529   5.174 -32.855  1.00  0.00    -0.307 N 
HETATM   17  C   UNL     1      -3.424   5.258 -34.490  1.00  0.00     0.034 A 
HETATM   18  C   UNL     1      -1.408   4.693 -31.541  1.00  0.00     0.325 A 
HETATM   19  H   UNL     1      -0.771   5.590 -33.370  1.00  0.00     0.170 HD
HETATM   20  O   UNL     1      -0.403   4.708 -30.854  1.00  0.00    -0.247 OA
HETATM   21  C   UNL     1      -4.775   4.908 -34.628  1.00  0.00     0.032 A 
HETATM   22  H   UNL     1      -2.881   3.777 -30.288  1.00  0.00     0.170 HD
ENDBRANCH   8  11
ENDBRANCH   3   7
BRANCH   4  23
HETATM   23  S   UNL     1      -9.002   2.258 -31.518  1.00  0.00    -0.120 SA
BRANCH  23  24
HETATM   24  C   UNL     1      -8.800   0.515 -32.015  1.00  0.00     0.182 C 
BRANCH  24  25
HETATM   25  C   UNL     1      -7.663   0.340 -33.007  1.00  0.00     0.227 C 
HETATM   26  N   UNL     1      -7.791  -0.705 -33.890  1.00  0.00    -0.354 N 
HETATM   27  H   UNL     1      -8.687  -1.187 -33.980  1.00  0.00     0.162 HD
HETATM   28  O   UNL     1      -6.651   1.037 -32.950  1.00  0.00    -0.273 OA
BRANCH  26  29
HETATM   29  C   UNL     1      -6.785  -0.944 -34.896  1.00  0.00     0.187 C 
BRANCH  29  30
HETATM   30  C   UNL     1      -6.224  -2.314 -34.774  1.00  0.00     0.070 A 
HETATM   31  O   UNL     1      -4.896  -2.427 -34.479  1.00  0.00    -0.325 OA
HETATM   32  C   UNL     1      -4.616  -3.752 -34.391  1.00  0.00     0.142 A 
HETATM   33  C   UNL     1      -5.748  -4.499 -34.614  1.00  0.00     0.027 A 
HETATM   34  C   UNL     1      -6.790  -3.571 -34.862  1.00  0.00     0.036 A 
ENDBRANCH  29  30
ENDBRANCH  26  29
ENDBRANCH  24  25
ENDBRANCH  23  24
ENDBRANCH   4  23
TORSDOF 7
ENDMDL
