MODEL 1
REMARK VINA RESULT:     -10.5      0.000      0.000
REMARK  6 active torsions:
REMARK  status: ('A' for Active; 'I' for Inactive)
REMARK    1  A    between atoms: O_2  and  C_3 
REMARK    2  A    between atoms: C_10  and  C_11 
REMARK    3  A    between atoms: C_11  and  C_12 
REMARK    4  A    between atoms: C_12  and  N_13 
REMARK       I    between atoms: N_13  and  C_14 
REMARK    5  A    between atoms: C_14  and  C_15 
REMARK    6  A    between atoms: C_21  and  C_22 
ROOT
HETATM    1  N   UNL     1      -4.902   2.592 -32.522  1.00  0.00    -0.357 N 
HETATM    2  C   UNL     1      -3.667   2.997 -32.060  1.00  0.00     0.251 C 
HETATM    3  O   UNL     1      -3.005   2.359 -31.249  1.00  0.00    -0.268 OA
HETATM    4  H   UNL     1      -5.228   2.970 -33.403  1.00  0.00     0.162 HD
ENDROOT
BRANCH   2   5
HETATM    5  C   UNL     1      -3.131   4.278 -32.607  1.00  0.00     0.033 A 
HETATM    6  C   UNL     1      -2.470   5.130 -31.688  1.00  0.00     0.033 A 
HETATM    7  C   UNL     1      -2.067   6.327 -32.280  1.00  0.00     0.033 A 
HETATM    8  C   UNL     1      -2.252   6.698 -33.664  1.00  0.00     0.097 A 
HETATM    9  C   UNL     1      -1.416   7.379 -31.685  1.00  0.00     0.124 A 
HETATM   10  N   UNL     1      -1.721   7.913 -33.867  1.00  0.00    -0.127 NA
HETATM   11  C   UNL     1      -2.905   5.838 -34.563  1.00  0.00     0.036 A 
HETATM   12  O   UNL     1      -1.207   8.326 -32.653  1.00  0.00    -0.211 OA
HETATM   13  C   UNL     1      -3.343   4.624 -33.985  1.00  0.00     0.019 A 
BRANCH   9  14
HETATM   14  C   UNL     1      -0.928   7.736 -30.357  1.00  0.00     0.001 A 
HETATM   15  C   UNL     1      -1.638   8.614 -29.527  1.00  0.00     0.014 A 
HETATM   16  C   UNL     1      -1.160   8.944 -28.254  1.00  0.00     0.001 A 
HETATM   17  C   UNL     1       0.041   8.408 -27.797  1.00  0.00     0.000 A 
HETATM   18  C   UNL     1       0.768   7.545 -28.614  1.00  0.00     0.001 A 
HETATM   19  C   UNL     1       0.286   7.212 -29.883  1.00  0.00     0.014 A 
ENDBRANCH   9  14
ENDBRANCH   2   5
BRANCH   1  20
HETATM   20  C   UNL     1      -5.451   1.305 -32.124  1.00  0.00     0.127 C 
BRANCH  20  21
HETATM   21  C   UNL     1      -5.223   0.214 -33.174  1.00  0.00     0.060 C 
BRANCH  21  22
HETATM   22  C   UNL     1      -4.334  -0.890 -32.690  1.00  0.00    -0.029 A 
HETATM   23  C   UNL     1      -4.340  -2.258 -33.118  1.00  0.00     0.001 A 
HETATM   24  C   UNL     1      -5.112  -2.995 -34.047  1.00  0.00     0.051 A 
HETATM   25  C   UNL     1      -3.330  -2.918 -32.419  1.00  0.00     0.043 A 
HETATM   26  C   UNL     1      -4.846  -4.355 -34.242  1.00  0.00     0.069 A 
HETATM   27  C   UNL     1      -3.816  -4.973 -33.533  1.00  0.00     0.039 A 
HETATM   28  C   UNL     1      -3.042  -4.272 -32.603  1.00  0.00     0.033 A 
HETATM   29  N   UNL     1      -2.748  -1.998 -31.579  1.00  0.00    -0.365 N 
HETATM   30  H   UNL     1      -1.991  -2.201 -30.941  1.00  0.00     0.165 HD
HETATM   31  C   UNL     1      -3.341  -0.775 -31.735  1.00  0.00     0.096 A 
BRANCH  26  32
HETATM   32  O   UNL     1      -5.513  -5.180 -35.109  1.00  0.00    -0.356 OA
HETATM   33  C   UNL     1      -6.668  -4.644 -35.742  1.00  0.00     0.210 C 
ENDBRANCH  26  32
ENDBRANCH  21  22
ENDBRANCH  20  21
ENDBRANCH   1  20
TORSDOF 6
ENDMDL
MODEL 2
REMARK VINA RESULT:      -9.9      1.846      2.696
REMARK  6 active torsions:
REMARK  status: ('A' for Active; 'I' for Inactive)
REMARK    1  A    between atoms: O_2  and  C_3 
REMARK    2  A    between atoms: C_10  and  C_11 
REMARK    3  A    between atoms: C_11  and  C_12 
REMARK    4  A    between atoms: C_12  and  N_13 
REMARK       I    between atoms: N_13  and  C_14 
REMARK    5  A    between atoms: C_14  and  C_15 
REMARK    6  A    between atoms: C_21  and  C_22 
ROOT
HETATM    1  N   UNL     1      -5.048   2.913 -31.104  1.00  0.00    -0.357 N 
HETATM    2  C   UNL     1      -5.367   3.598 -32.259  1.00  0.00     0.251 C 
HETATM    3  O   UNL     1      -6.477   3.567 -32.778  1.00  0.00    -0.268 OA
HETATM    4  H   UNL     1      -4.254   3.236 -30.564  1.00  0.00     0.162 HD
ENDROOT
BRANCH   2   5
HETATM    5  C   UNL     1      -4.284   4.420 -32.875  1.00  0.00     0.033 A 
HETATM    6  C   UNL     1      -3.248   4.848 -32.009  1.00  0.00     0.033 A 
HETATM    7  C   UNL     1      -2.323   5.664 -32.663  1.00  0.00     0.033 A 
HETATM    8  C   UNL     1      -2.355   6.040 -34.057  1.00  0.00     0.097 A 
HETATM    9  C   UNL     1      -1.208   6.261 -32.130  1.00  0.00     0.124 A 
HETATM   10  N   UNL     1      -1.295   6.816 -34.326  1.00  0.00    -0.127 NA
HETATM   11  C   UNL     1      -3.388   5.601 -34.902  1.00  0.00     0.036 A 
HETATM   12  O   UNL     1      -0.593   6.948 -33.144  1.00  0.00    -0.211 OA
HETATM   13  C   UNL     1      -4.352   4.788 -34.262  1.00  0.00     0.019 A 
BRANCH   9  14
HETATM   14  C   UNL     1      -0.551   6.359 -30.831  1.00  0.00     0.001 A 
HETATM   15  C   UNL     1      -0.543   7.556 -30.103  1.00  0.00     0.014 A 
HETATM   16  C   UNL     1       0.087   7.635 -28.855  1.00  0.00     0.001 A 
HETATM   17  C   UNL     1       0.727   6.518 -28.324  1.00  0.00     0.000 A 
HETATM   18  C   UNL     1       0.742   5.324 -29.040  1.00  0.00     0.001 A 
HETATM   19  C   UNL     1       0.107   5.246 -30.282  1.00  0.00     0.014 A 
ENDBRANCH   9  14
ENDBRANCH   2   5
BRANCH   1  20
HETATM   20  C   UNL     1      -6.071   2.176 -30.379  1.00  0.00     0.127 C 
BRANCH  20  21
HETATM   21  C   UNL     1      -5.937   0.660 -30.543  1.00  0.00     0.060 C 
BRANCH  21  22
HETATM   22  C   UNL     1      -6.673   0.130 -31.735  1.00  0.00    -0.029 A 
HETATM   23  C   UNL     1      -6.194  -0.815 -32.699  1.00  0.00     0.001 A 
HETATM   24  C   UNL     1      -4.976  -1.515 -32.869  1.00  0.00     0.051 A 
HETATM   25  C   UNL     1      -7.220  -1.031 -33.617  1.00  0.00     0.043 A 
HETATM   26  C   UNL     1      -4.832  -2.402 -33.943  1.00  0.00     0.069 A 
HETATM   27  C   UNL     1      -5.890  -2.601 -34.830  1.00  0.00     0.039 A 
HETATM   28  C   UNL     1      -7.101  -1.917 -34.691  1.00  0.00     0.033 A 
HETATM   29  N   UNL     1      -8.274  -0.231 -33.245  1.00  0.00    -0.365 N 
HETATM   30  H   UNL     1      -9.154  -0.175 -33.739  1.00  0.00     0.165 HD
HETATM   31  C   UNL     1      -7.958   0.470 -32.114  1.00  0.00     0.096 A 
BRANCH  26  32
HETATM   32  O   UNL     1      -3.713  -3.141 -34.220  1.00  0.00    -0.356 OA
HETATM   33  C   UNL     1      -3.669  -4.461 -33.691  1.00  0.00     0.210 C 
ENDBRANCH  26  32
ENDBRANCH  21  22
ENDBRANCH  20  21
ENDBRANCH   1  20
TORSDOF 6
ENDMDL
MODEL 3
REMARK VINA RESULT:      -9.6      2.254     10.707
REMARK  6 active torsions:
REMARK  status: ('A' for Active; 'I' for Inactive)
REMARK    1  A    between atoms: O_2  and  C_3 
REMARK    2  A    between atoms: C_10  and  C_11 
REMARK    3  A    between atoms: C_11  and  C_12 
REMARK    4  A    between atoms: C_12  and  N_13 
REMARK       I    between atoms: N_13  and  C_14 
REMARK    5  A    between atoms: C_14  and  C_15 
REMARK    6  A    between atoms: C_21  and  C_22 
ROOT
HETATM    1  N   UNL     1      -3.045   3.762 -32.425  1.00  0.00    -0.357 N 
HETATM    2  C   UNL     1      -3.537   2.517 -32.092  1.00  0.00     0.251 C 
HETATM    3  O   UNL     1      -3.022   1.790 -31.249  1.00  0.00    -0.268 OA
HETATM    4  H   UNL     1      -3.678   4.424 -32.858  1.00  0.00     0.162 HD
ENDROOT
BRANCH   2   5
HETATM    5  C   UNL     1      -4.769   2.068 -32.804  1.00  0.00     0.033 A 
HETATM    6  C   UNL     1      -4.844   0.690 -33.127  1.00  0.00     0.033 A 
HETATM    7  C   UNL     1      -5.998   0.384 -33.848  1.00  0.00     0.033 A 
HETATM    8  C   UNL     1      -7.038   1.313 -34.228  1.00  0.00     0.097 A 
HETATM    9  C   UNL     1      -6.385  -0.841 -34.332  1.00  0.00     0.124 A 
HETATM   10  N   UNL     1      -7.994   0.651 -34.896  1.00  0.00    -0.127 NA
HETATM   11  C   UNL     1      -6.949   2.675 -33.894  1.00  0.00     0.036 A 
HETATM   12  O   UNL     1      -7.592  -0.669 -34.956  1.00  0.00    -0.211 OA
HETATM   13  C   UNL     1      -5.778   3.019 -33.179  1.00  0.00     0.019 A 
BRANCH   9  14
HETATM   14  C   UNL     1      -5.863  -2.204 -34.363  1.00  0.00     0.001 A 
HETATM   15  C   UNL     1      -4.542  -2.491 -33.993  1.00  0.00     0.014 A 
HETATM   16  C   UNL     1      -4.057  -3.804 -34.024  1.00  0.00     0.001 A 
HETATM   17  C   UNL     1      -4.884  -4.845 -34.434  1.00  0.00     0.000 A 
HETATM   18  C   UNL     1      -6.195  -4.577 -34.819  1.00  0.00     0.001 A 
HETATM   19  C   UNL     1      -6.680  -3.267 -34.782  1.00  0.00     0.014 A 
ENDBRANCH   9  14
ENDBRANCH   2   5
BRANCH   1  20
HETATM   20  C   UNL     1      -1.913   4.324 -31.704  1.00  0.00     0.127 C 
BRANCH  20  21
HETATM   21  C   UNL     1      -1.387   5.614 -32.338  1.00  0.00     0.060 C 
BRANCH  21  22
HETATM   22  C   UNL     1      -1.698   6.836 -31.530  1.00  0.00    -0.029 A 
HETATM   23  C   UNL     1      -1.080   7.243 -30.302  1.00  0.00     0.001 A 
HETATM   24  C   UNL     1      -0.066   6.695 -29.482  1.00  0.00     0.051 A 
HETATM   25  C   UNL     1      -1.666   8.449 -29.921  1.00  0.00     0.043 A 
HETATM   26  C   UNL     1       0.324   7.370 -28.320  1.00  0.00     0.069 A 
HETATM   27  C   UNL     1      -0.278   8.583 -27.983  1.00  0.00     0.039 A 
HETATM   28  C   UNL     1      -1.288   9.144 -28.769  1.00  0.00     0.033 A 
HETATM   29  N   UNL     1      -2.621   8.753 -30.862  1.00  0.00    -0.365 N 
HETATM   30  H   UNL     1      -3.214   9.572 -30.834  1.00  0.00     0.165 HD
HETATM   31  C   UNL     1      -2.647   7.792 -31.836  1.00  0.00     0.096 A 
BRANCH  26  32
HETATM   32  O   UNL     1       1.291   6.953 -27.444  1.00  0.00    -0.356 OA
HETATM   33  C   UNL     1       1.467   7.731 -26.266  1.00  0.00     0.210 C 
ENDBRANCH  26  32
ENDBRANCH  21  22
ENDBRANCH  20  21
ENDBRANCH   1  20
TORSDOF 6
ENDMDL
MODEL 4
REMARK VINA RESULT:      -9.6      1.405      2.209
REMARK  6 active torsions:
REMARK  status: ('A' for Active; 'I' for Inactive)
REMARK    1  A    between atoms: O_2  and  C_3 
REMARK    2  A    between atoms: C_10  and  C_11 
REMARK    3  A    between atoms: C_11  and  C_12 
REMARK    4  A    between atoms: C_12  and  N_13 
REMARK       I    between atoms: N_13  and  C_14 
REMARK    5  A    between atoms: C_14  and  C_15 
REMARK    6  A    between atoms: C_21  and  C_22 
ROOT
HETATM    1  N   UNL     1      -3.466   1.776 -32.019  1.00  0.00    -0.357 N 
HETATM    2  C   UNL     1      -3.848   3.009 -31.531  1.00  0.00     0.251 C 
HETATM    3  O   UNL     1      -4.613   3.155 -30.584  1.00  0.00    -0.268 OA
HETATM    4  H   UNL     1      -2.609   1.721 -32.554  1.00  0.00     0.162 HD
ENDROOT
BRANCH   2   5
HETATM    5  C   UNL     1      -3.269   4.208 -32.207  1.00  0.00     0.033 A 
HETATM    6  C   UNL     1      -2.563   5.118 -31.382  1.00  0.00     0.033 A 
HETATM    7  C   UNL     1      -2.121   6.234 -32.092  1.00  0.00     0.033 A 
HETATM    8  C   UNL     1      -2.311   6.476 -33.504  1.00  0.00     0.097 A 
HETATM    9  C   UNL     1      -1.420   7.311 -31.610  1.00  0.00     0.124 A 
HETATM   10  N   UNL     1      -1.734   7.642 -33.830  1.00  0.00    -0.127 NA
HETATM   11  C   UNL     1      -3.009   5.560 -34.308  1.00  0.00     0.036 A 
HETATM   12  O   UNL     1      -1.187   8.150 -32.668  1.00  0.00    -0.211 OA
HETATM   13  C   UNL     1      -3.488   4.426 -33.610  1.00  0.00     0.019 A 
BRANCH   9  14
HETATM   14  C   UNL     1      -0.899   7.775 -30.328  1.00  0.00     0.001 A 
HETATM   15  C   UNL     1       0.317   7.301 -29.817  1.00  0.00     0.014 A 
HETATM   16  C   UNL     1       0.807   7.758 -28.588  1.00  0.00     0.001 A 
HETATM   17  C   UNL     1       0.082   8.690 -27.850  1.00  0.00     0.000 A 
HETATM   18  C   UNL     1      -1.135   9.162 -28.335  1.00  0.00     0.001 A 
HETATM   19  C   UNL     1      -1.620   8.708 -29.564  1.00  0.00     0.014 A 
ENDBRANCH   9  14
ENDBRANCH   2   5
BRANCH   1  20
HETATM   20  C   UNL     1      -3.896   0.556 -31.352  1.00  0.00     0.127 C 
BRANCH  20  21
HETATM   21  C   UNL     1      -2.846  -0.556 -31.417  1.00  0.00     0.060 C 
BRANCH  21  22
HETATM   22  C   UNL     1      -3.324  -1.774 -32.146  1.00  0.00    -0.029 A 
HETATM   23  C   UNL     1      -4.347  -1.839 -33.146  1.00  0.00     0.001 A 
HETATM   24  C   UNL     1      -5.202  -0.882 -33.743  1.00  0.00     0.051 A 
HETATM   25  C   UNL     1      -4.441  -3.166 -33.561  1.00  0.00     0.043 A 
HETATM   26  C   UNL     1      -6.110  -1.285 -34.729  1.00  0.00     0.069 A 
HETATM   27  C   UNL     1      -6.160  -2.622 -35.127  1.00  0.00     0.039 A 
HETATM   28  C   UNL     1      -5.334  -3.590 -34.549  1.00  0.00     0.033 A 
HETATM   29  N   UNL     1      -3.530  -3.888 -32.827  1.00  0.00    -0.365 N 
HETATM   30  H   UNL     1      -3.386  -4.885 -32.910  1.00  0.00     0.165 HD
HETATM   31  C   UNL     1      -2.850  -3.061 -31.974  1.00  0.00     0.096 A 
BRANCH  26  32
HETATM   32  O   UNL     1      -6.987  -0.465 -35.387  1.00  0.00    -0.356 OA
HETATM   33  C   UNL     1      -7.836   0.344 -34.581  1.00  0.00     0.210 C 
ENDBRANCH  26  32
ENDBRANCH  21  22
ENDBRANCH  20  21
ENDBRANCH   1  20
TORSDOF 6
ENDMDL
MODEL 5
REMARK VINA RESULT:      -9.5      2.499      3.246
REMARK  6 active torsions:
REMARK  status: ('A' for Active; 'I' for Inactive)
REMARK    1  A    between atoms: O_2  and  C_3 
REMARK    2  A    between atoms: C_10  and  C_11 
REMARK    3  A    between atoms: C_11  and  C_12 
REMARK    4  A    between atoms: C_12  and  N_13 
REMARK       I    between atoms: N_13  and  C_14 
REMARK    5  A    between atoms: C_14  and  C_15 
REMARK    6  A    between atoms: C_21  and  C_22 
ROOT
HETATM    1  N   UNL     1      -4.902   2.921 -30.978  1.00  0.00    -0.357 N 
HETATM    2  C   UNL     1      -5.377   3.773 -31.954  1.00  0.00     0.251 C 
HETATM    3  O   UNL     1      -6.562   3.864 -32.254  1.00  0.00    -0.268 OA
HETATM    4  H   UNL     1      -4.003   3.129 -30.560  1.00  0.00     0.162 HD
ENDROOT
BRANCH   2   5
HETATM    5  C   UNL     1      -4.369   4.625 -32.652  1.00  0.00     0.033 A 
HETATM    6  C   UNL     1      -3.487   5.364 -31.825  1.00  0.00     0.033 A 
HETATM    7  C   UNL     1      -2.632   6.178 -32.568  1.00  0.00     0.033 A 
HETATM    8  C   UNL     1      -2.588   6.277 -34.009  1.00  0.00     0.097 A 
HETATM    9  C   UNL     1      -1.666   7.031 -32.096  1.00  0.00     0.124 A 
HETATM   10  N   UNL     1      -1.628   7.145 -34.360  1.00  0.00    -0.127 NA
HETATM   11  C   UNL     1      -3.466   5.531 -34.813  1.00  0.00     0.036 A 
HETATM   12  O   UNL     1      -1.063   7.603 -33.185  1.00  0.00    -0.211 OA
HETATM   13  C   UNL     1      -4.361   4.712 -34.085  1.00  0.00     0.019 A 
BRANCH   9  14
HETATM   14  C   UNL     1      -1.151   7.472 -30.804  1.00  0.00     0.001 A 
HETATM   15  C   UNL     1      -1.857   8.384 -30.007  1.00  0.00     0.014 A 
HETATM   16  C   UNL     1      -1.354   8.795 -28.768  1.00  0.00     0.001 A 
HETATM   17  C   UNL     1      -0.133   8.306 -28.312  1.00  0.00     0.000 A 
HETATM   18  C   UNL     1       0.589   7.409 -29.096  1.00  0.00     0.001 A 
HETATM   19  C   UNL     1       0.083   6.996 -30.331  1.00  0.00     0.014 A 
ENDBRANCH   9  14
ENDBRANCH   2   5
BRANCH   1  20
HETATM   20  C   UNL     1      -5.825   2.135 -30.174  1.00  0.00     0.127 C 
BRANCH  20  21
HETATM   21  C   UNL     1      -5.554   0.631 -30.259  1.00  0.00     0.060 C 
BRANCH  21  22
HETATM   22  C   UNL     1      -5.439   0.133 -31.667  1.00  0.00    -0.029 A 
HETATM   23  C   UNL     1      -6.443   0.183 -32.688  1.00  0.00     0.001 A 
HETATM   24  C   UNL     1      -7.774   0.659 -32.736  1.00  0.00     0.051 A 
HETATM   25  C   UNL     1      -5.892  -0.373 -33.842  1.00  0.00     0.043 A 
HETATM   26  C   UNL     1      -8.499   0.565 -33.930  1.00  0.00     0.069 A 
HETATM   27  C   UNL     1      -7.904   0.016 -35.066  1.00  0.00     0.039 A 
HETATM   28  C   UNL     1      -6.594  -0.469 -35.046  1.00  0.00     0.033 A 
HETATM   29  N   UNL     1      -4.612  -0.769 -33.532  1.00  0.00    -0.365 N 
HETATM   30  H   UNL     1      -3.977  -1.217 -34.179  1.00  0.00     0.165 HD
HETATM   31  C   UNL     1      -4.327  -0.468 -32.228  1.00  0.00     0.096 A 
BRANCH  26  32
HETATM   32  O   UNL     1      -9.789   0.989 -34.113  1.00  0.00    -0.356 OA
HETATM   33  C   UNL     1     -10.772   0.443 -33.242  1.00  0.00     0.210 C 
ENDBRANCH  26  32
ENDBRANCH  21  22
ENDBRANCH  20  21
ENDBRANCH   1  20
TORSDOF 6
ENDMDL
MODEL 6
REMARK VINA RESULT:      -9.4      5.337      9.813
REMARK  6 active torsions:
REMARK  status: ('A' for Active; 'I' for Inactive)
REMARK    1  A    between atoms: O_2  and  C_3 
REMARK    2  A    between atoms: C_10  and  C_11 
REMARK    3  A    between atoms: C_11  and  C_12 
REMARK    4  A    between atoms: C_12  and  N_13 
REMARK       I    between atoms: N_13  and  C_14 
REMARK    5  A    between atoms: C_14  and  C_15 
REMARK    6  A    between atoms: C_21  and  C_22 
ROOT
HETATM    1  N   UNL     1      -8.488   2.973 -30.917  1.00  0.00    -0.357 N 
HETATM    2  C   UNL     1      -8.240   1.705 -31.400  1.00  0.00     0.251 C 
HETATM    3  O   UNL     1      -9.111   0.854 -31.546  1.00  0.00    -0.268 OA
HETATM    4  H   UNL     1      -7.820   3.703 -31.132  1.00  0.00     0.162 HD
ENDROOT
BRANCH   2   5
HETATM    5  C   UNL     1      -6.828   1.389 -31.767  1.00  0.00     0.033 A 
HETATM    6  C   UNL     1      -6.612   0.164 -32.445  1.00  0.00     0.033 A 
HETATM    7  C   UNL     1      -5.257  -0.071 -32.683  1.00  0.00     0.033 A 
HETATM    8  C   UNL     1      -4.165   0.806 -32.327  1.00  0.00     0.097 A 
HETATM    9  C   UNL     1      -4.690  -1.157 -33.301  1.00  0.00     0.124 A 
HETATM   10  N   UNL     1      -3.011   0.255 -32.731  1.00  0.00    -0.127 NA
HETATM   11  C   UNL     1      -4.400   2.020 -31.660  1.00  0.00     0.036 A 
HETATM   12  O   UNL     1      -3.337  -0.947 -33.330  1.00  0.00    -0.211 OA
HETATM   13  C   UNL     1      -5.764   2.275 -31.387  1.00  0.00     0.019 A 
BRANCH   9  14
HETATM   14  C   UNL     1      -5.131  -2.416 -33.892  1.00  0.00     0.001 A 
HETATM   15  C   UNL     1      -4.314  -3.555 -33.883  1.00  0.00     0.014 A 
HETATM   16  C   UNL     1      -4.752  -4.758 -34.449  1.00  0.00     0.001 A 
HETATM   17  C   UNL     1      -6.010  -4.835 -35.041  1.00  0.00     0.000 A 
HETATM   18  C   UNL     1      -6.831  -3.710 -35.071  1.00  0.00     0.001 A 
HETATM   19  C   UNL     1      -6.394  -2.512 -34.500  1.00  0.00     0.014 A 
ENDBRANCH   9  14
ENDBRANCH   2   5
BRANCH   1  20
HETATM   20  C   UNL     1      -9.850   3.401 -30.637  1.00  0.00     0.127 C 
BRANCH  20  21
HETATM   21  C   UNL     1     -10.399   4.363 -31.694  1.00  0.00     0.060 C 
BRANCH  21  22
HETATM   22  C   UNL     1     -10.691   3.693 -33.002  1.00  0.00    -0.029 A 
HETATM   23  C   UNL     1     -11.846   2.914 -33.338  1.00  0.00     0.001 A 
HETATM   24  C   UNL     1     -13.007   2.521 -32.631  1.00  0.00     0.051 A 
HETATM   25  C   UNL     1     -11.705   2.509 -34.664  1.00  0.00     0.043 A 
HETATM   26  C   UNL     1     -13.978   1.745 -33.274  1.00  0.00     0.069 A 
HETATM   27  C   UNL     1     -13.805   1.375 -34.608  1.00  0.00     0.039 A 
HETATM   28  C   UNL     1     -12.665   1.741 -35.328  1.00  0.00     0.033 A 
HETATM   29  N   UNL     1     -10.501   2.999 -35.113  1.00  0.00    -0.365 N 
HETATM   30  H   UNL     1     -10.131   2.850 -36.042  1.00  0.00     0.165 HD
HETATM   31  C   UNL     1      -9.883   3.715 -34.124  1.00  0.00     0.096 A 
BRANCH  26  32
HETATM   32  O   UNL     1     -15.144   1.302 -32.708  1.00  0.00    -0.356 OA
HETATM   33  C   UNL     1     -16.143   2.281 -32.446  1.00  0.00     0.210 C 
ENDBRANCH  26  32
ENDBRANCH  21  22
ENDBRANCH  20  21
ENDBRANCH   1  20
TORSDOF 6
ENDMDL
MODEL 7
REMARK VINA RESULT:      -9.3      2.632     10.560
REMARK  6 active torsions:
REMARK  status: ('A' for Active; 'I' for Inactive)
REMARK    1  A    between atoms: O_2  and  C_3 
REMARK    2  A    between atoms: C_10  and  C_11 
REMARK    3  A    between atoms: C_11  and  C_12 
REMARK    4  A    between atoms: C_12  and  N_13 
REMARK       I    between atoms: N_13  and  C_14 
REMARK    5  A    between atoms: C_14  and  C_15 
REMARK    6  A    between atoms: C_21  and  C_22 
ROOT
HETATM    1  N   UNL     1      -1.695   4.691 -31.128  1.00  0.00    -0.357 N 
HETATM    2  C   UNL     1      -2.481   4.117 -32.106  1.00  0.00     0.251 C 
HETATM    3  O   UNL     1      -2.142   4.032 -33.281  1.00  0.00    -0.268 OA
HETATM    4  H   UNL     1      -1.873   4.436 -30.164  1.00  0.00     0.162 HD
ENDROOT
BRANCH   2   5
HETATM    5  C   UNL     1      -3.800   3.570 -31.674  1.00  0.00     0.033 A 
HETATM    6  C   UNL     1      -4.178   2.322 -32.229  1.00  0.00     0.033 A 
HETATM    7  C   UNL     1      -5.451   1.930 -31.817  1.00  0.00     0.033 A 
HETATM    8  C   UNL     1      -6.316   2.655 -30.915  1.00  0.00     0.097 A 
HETATM    9  C   UNL     1      -6.133   0.791 -32.168  1.00  0.00     0.124 A 
HETATM   10  N   UNL     1      -7.450   1.960 -30.741  1.00  0.00    -0.127 NA
HETATM   11  C   UNL     1      -5.923   3.888 -30.369  1.00  0.00     0.036 A 
HETATM   12  O   UNL     1      -7.333   0.817 -31.508  1.00  0.00    -0.211 OA
HETATM   13  C   UNL     1      -4.643   4.322 -30.786  1.00  0.00     0.019 A 
BRANCH   9  14
HETATM   14  C   UNL     1      -5.925  -0.371 -33.025  1.00  0.00     0.001 A 
HETATM   15  C   UNL     1      -4.710  -1.070 -33.031  1.00  0.00     0.014 A 
HETATM   16  C   UNL     1      -4.527  -2.186 -33.855  1.00  0.00     0.001 A 
HETATM   17  C   UNL     1      -5.554  -2.612 -34.694  1.00  0.00     0.000 A 
HETATM   18  C   UNL     1      -6.763  -1.922 -34.713  1.00  0.00     0.001 A 
HETATM   19  C   UNL     1      -6.946  -0.811 -33.885  1.00  0.00     0.014 A 
ENDBRANCH   9  14
ENDBRANCH   2   5
BRANCH   1  20
HETATM   20  C   UNL     1      -0.350   5.151 -31.439  1.00  0.00     0.127 C 
BRANCH  20  21
HETATM   21  C   UNL     1      -0.302   6.637 -31.805  1.00  0.00     0.060 C 
BRANCH  21  22
HETATM   22  C   UNL     1      -0.958   7.515 -30.784  1.00  0.00    -0.029 A 
HETATM   23  C   UNL     1      -0.511   7.773 -29.448  1.00  0.00     0.001 A 
HETATM   24  C   UNL     1       0.591   7.332 -28.677  1.00  0.00     0.051 A 
HETATM   25  C   UNL     1      -1.414   8.663 -28.870  1.00  0.00     0.043 A 
HETATM   26  C   UNL     1       0.748   7.798 -27.366  1.00  0.00     0.069 A 
HETATM   27  C   UNL     1      -0.171   8.701 -26.831  1.00  0.00     0.039 A 
HETATM   28  C   UNL     1      -1.273   9.147 -27.567  1.00  0.00     0.033 A 
HETATM   29  N   UNL     1      -2.389   8.919 -29.805  1.00  0.00    -0.365 N 
HETATM   30  H   UNL     1      -3.183   9.526 -29.656  1.00  0.00     0.165 HD
HETATM   31  C   UNL     1      -2.124   8.236 -30.962  1.00  0.00     0.096 A 
BRANCH  26  32
HETATM   32  O   UNL     1       1.766   7.455 -26.517  1.00  0.00    -0.356 OA
HETATM   33  C   UNL     1       2.270   8.482 -25.671  1.00  0.00     0.210 C 
ENDBRANCH  26  32
ENDBRANCH  21  22
ENDBRANCH  20  21
ENDBRANCH   1  20
TORSDOF 6
ENDMDL
MODEL 8
REMARK VINA RESULT:      -9.2      2.514     10.116
REMARK  6 active torsions:
REMARK  status: ('A' for Active; 'I' for Inactive)
REMARK    1  A    between atoms: O_2  and  C_3 
REMARK    2  A    between atoms: C_10  and  C_11 
REMARK    3  A    between atoms: C_11  and  C_12 
REMARK    4  A    between atoms: C_12  and  N_13 
REMARK       I    between atoms: N_13  and  C_14 
REMARK    5  A    between atoms: C_14  and  C_15 
REMARK    6  A    between atoms: C_21  and  C_22 
ROOT
HETATM    1  N   UNL     1      -2.012   5.545 -32.161  1.00  0.00    -0.357 N 
HETATM    2  C   UNL     1      -2.583   4.434 -32.747  1.00  0.00     0.251 C 
HETATM    3  O   UNL     1      -2.244   3.997 -33.841  1.00  0.00    -0.268 OA
HETATM    4  H   UNL     1      -2.094   5.648 -31.157  1.00  0.00     0.162 HD
ENDROOT
BRANCH   2   5
HETATM    5  C   UNL     1      -3.658   3.744 -31.975  1.00  0.00     0.033 A 
HETATM    6  C   UNL     1      -4.063   2.474 -32.455  1.00  0.00     0.033 A 
HETATM    7  C   UNL     1      -5.115   1.943 -31.708  1.00  0.00     0.033 A 
HETATM    8  C   UNL     1      -5.740   2.558 -30.559  1.00  0.00     0.097 A 
HETATM    9  C   UNL     1      -5.759   0.746 -31.899  1.00  0.00     0.124 A 
HETATM   10  N   UNL     1      -6.701   1.745 -30.096  1.00  0.00    -0.127 NA
HETATM   11  C   UNL     1      -5.321   3.815 -30.094  1.00  0.00     0.036 A 
HETATM   12  O   UNL     1      -6.708   0.634 -30.917  1.00  0.00    -0.211 OA
HETATM   13  C   UNL     1      -4.268   4.388 -30.845  1.00  0.00     0.019 A 
BRANCH   9  14
HETATM   14  C   UNL     1      -5.705  -0.373 -32.835  1.00  0.00     0.001 A 
HETATM   15  C   UNL     1      -6.809  -0.721 -33.625  1.00  0.00     0.014 A 
HETATM   16  C   UNL     1      -6.742  -1.793 -34.521  1.00  0.00     0.001 A 
HETATM   17  C   UNL     1      -5.572  -2.539 -34.633  1.00  0.00     0.000 A 
HETATM   18  C   UNL     1      -4.469  -2.217 -33.846  1.00  0.00     0.001 A 
HETATM   19  C   UNL     1      -4.536  -1.142 -32.955  1.00  0.00     0.014 A 
ENDBRANCH   9  14
ENDBRANCH   2   5
BRANCH   1  20
HETATM   20  C   UNL     1      -0.886   6.214 -32.793  1.00  0.00     0.127 C 
BRANCH  20  21
HETATM   21  C   UNL     1      -0.086   7.080 -31.817  1.00  0.00     0.060 C 
BRANCH  21  22
HETATM   22  C   UNL     1       0.149   6.413 -30.496  1.00  0.00    -0.029 A 
HETATM   23  C   UNL     1      -0.186   6.919 -29.198  1.00  0.00     0.001 A 
HETATM   24  C   UNL     1      -0.786   8.113 -28.732  1.00  0.00     0.051 A 
HETATM   25  C   UNL     1       0.195   5.956 -28.264  1.00  0.00     0.043 A 
HETATM   26  C   UNL     1      -0.986   8.296 -27.359  1.00  0.00     0.069 A 
HETATM   27  C   UNL     1      -0.605   7.300 -26.459  1.00  0.00     0.039 A 
HETATM   28  C   UNL     1      -0.002   6.115 -26.890  1.00  0.00     0.033 A 
HETATM   29  N   UNL     1       0.762   4.915 -28.961  1.00  0.00    -0.365 N 
HETATM   30  H   UNL     1       1.138   4.079 -28.537  1.00  0.00     0.165 HD
HETATM   31  C   UNL     1       0.737   5.177 -30.304  1.00  0.00     0.096 A 
BRANCH  26  32
HETATM   32  O   UNL     1      -1.556   9.397 -26.778  1.00  0.00    -0.356 OA
HETATM   33  C   UNL     1      -1.612   9.416 -25.357  1.00  0.00     0.210 C 
ENDBRANCH  26  32
ENDBRANCH  21  22
ENDBRANCH  20  21
ENDBRANCH   1  20
TORSDOF 6
ENDMDL
MODEL 9
REMARK VINA RESULT:      -9.1      4.939      9.230
REMARK  6 active torsions:
REMARK  status: ('A' for Active; 'I' for Inactive)
REMARK    1  A    between atoms: O_2  and  C_3 
REMARK    2  A    between atoms: C_10  and  C_11 
REMARK    3  A    between atoms: C_11  and  C_12 
REMARK    4  A    between atoms: C_12  and  N_13 
REMARK       I    between atoms: N_13  and  C_14 
REMARK    5  A    between atoms: C_14  and  C_15 
REMARK    6  A    between atoms: C_21  and  C_22 
ROOT
HETATM    1  N   UNL     1      -7.987   4.201 -33.324  1.00  0.00    -0.357 N 
HETATM    2  C   UNL     1      -6.649   4.127 -33.651  1.00  0.00     0.251 C 
HETATM    3  O   UNL     1      -6.132   4.794 -34.541  1.00  0.00    -0.268 OA
HETATM    4  H   UNL     1      -8.269   3.894 -32.401  1.00  0.00     0.162 HD
ENDROOT
BRANCH   2   5
HETATM    5  C   UNL     1      -5.812   3.186 -32.850  1.00  0.00     0.033 A 
HETATM    6  C   UNL     1      -5.812   1.832 -33.265  1.00  0.00     0.033 A 
HETATM    7  C   UNL     1      -5.056   1.024 -32.415  1.00  0.00     0.033 A 
HETATM    8  C   UNL     1      -4.321   1.463 -31.252  1.00  0.00     0.097 A 
HETATM    9  C   UNL     1      -4.851  -0.330 -32.509  1.00  0.00     0.124 A 
HETATM   10  N   UNL     1      -3.704   0.409 -30.698  1.00  0.00    -0.127 NA
HETATM   11  C   UNL     1      -4.327   2.812 -30.858  1.00  0.00     0.036 A 
HETATM   12  O   UNL     1      -4.029  -0.688 -31.473  1.00  0.00    -0.211 OA
HETATM   13  C   UNL     1      -5.103   3.653 -31.690  1.00  0.00     0.019 A 
BRANCH   9  14
HETATM   14  C   UNL     1      -5.269  -1.429 -33.373  1.00  0.00     0.001 A 
HETATM   15  C   UNL     1      -4.363  -2.408 -33.804  1.00  0.00     0.014 A 
HETATM   16  C   UNL     1      -4.779  -3.460 -34.628  1.00  0.00     0.001 A 
HETATM   17  C   UNL     1      -6.106  -3.540 -35.042  1.00  0.00     0.000 A 
HETATM   18  C   UNL     1      -7.018  -2.569 -34.636  1.00  0.00     0.001 A 
HETATM   19  C   UNL     1      -6.601  -1.523 -33.808  1.00  0.00     0.014 A 
ENDBRANCH   9  14
ENDBRANCH   2   5
BRANCH   1  20
HETATM   20  C   UNL     1      -8.853   5.170 -33.979  1.00  0.00     0.127 C 
BRANCH  20  21
HETATM   21  C   UNL     1     -10.139   5.442 -33.195  1.00  0.00     0.060 C 
BRANCH  21  22
HETATM   22  C   UNL     1     -11.343   4.781 -33.793  1.00  0.00    -0.029 A 
HETATM   23  C   UNL     1     -11.640   3.379 -33.817  1.00  0.00     0.001 A 
HETATM   24  C   UNL     1     -10.973   2.224 -33.346  1.00  0.00     0.051 A 
HETATM   25  C   UNL     1     -12.870   3.225 -34.454  1.00  0.00     0.043 A 
HETATM   26  C   UNL     1     -11.559   0.966 -33.525  1.00  0.00     0.069 A 
HETATM   27  C   UNL     1     -12.799   0.857 -34.154  1.00  0.00     0.039 A 
HETATM   28  C   UNL     1     -13.477   1.980 -34.637  1.00  0.00     0.033 A 
HETATM   29  N   UNL     1     -13.296   4.478 -34.827  1.00  0.00    -0.365 N 
HETATM   30  H   UNL     1     -14.158   4.668 -35.320  1.00  0.00     0.165 HD
HETATM   31  C   UNL     1     -12.387   5.422 -34.433  1.00  0.00     0.096 A 
BRANCH  26  32
HETATM   32  O   UNL     1     -11.024  -0.227 -33.116  1.00  0.00    -0.356 OA
HETATM   33  C   UNL     1      -9.779  -0.169 -32.428  1.00  0.00     0.210 C 
ENDBRANCH  26  32
ENDBRANCH  21  22
ENDBRANCH  20  21
ENDBRANCH   1  20
TORSDOF 6
ENDMDL
MODEL 10
REMARK VINA RESULT:      -9.1      2.885     10.045
REMARK  6 active torsions:
REMARK  status: ('A' for Active; 'I' for Inactive)
REMARK    1  A    between atoms: O_2  and  C_3 
REMARK    2  A    between atoms: C_10  and  C_11 
REMARK    3  A    between atoms: C_11  and  C_12 
REMARK    4  A    between atoms: C_12  and  N_13 
REMARK       I    between atoms: N_13  and  C_14 
REMARK    5  A    between atoms: C_14  and  C_15 
REMARK    6  A    between atoms: C_21  and  C_22 
ROOT
HETATM    1  N   UNL     1      -3.756   5.988 -33.435  1.00  0.00    -0.357 N 
HETATM    2  C   UNL     1      -4.449   5.295 -34.406  1.00  0.00     0.251 C 
HETATM    3  O   UNL     1      -4.107   5.255 -35.582  1.00  0.00    -0.268 OA
HETATM    4  H   UNL     1      -3.889   5.715 -32.469  1.00  0.00     0.162 HD
ENDROOT
BRANCH   2   5
HETATM    5  C   UNL     1      -5.667   4.553 -33.963  1.00  0.00     0.033 A 
HETATM    6  C   UNL     1      -5.587   3.139 -33.983  1.00  0.00     0.033 A 
HETATM    7  C   UNL     1      -6.793   2.541 -33.619  1.00  0.00     0.033 A 
HETATM    8  C   UNL     1      -8.003   3.229 -33.234  1.00  0.00     0.097 A 
HETATM    9  C   UNL     1      -7.074   1.200 -33.542  1.00  0.00     0.124 A 
HETATM   10  N   UNL     1      -8.947   2.324 -32.936  1.00  0.00    -0.127 NA
HETATM   11  C   UNL     1      -8.063   4.633 -33.214  1.00  0.00     0.036 A 
HETATM   12  O   UNL     1      -8.374   1.081 -33.124  1.00  0.00    -0.211 OA
HETATM   13  C   UNL     1      -6.859   5.268 -33.599  1.00  0.00     0.019 A 
BRANCH   9  14
HETATM   14  C   UNL     1      -6.389  -0.064 -33.792  1.00  0.00     0.001 A 
HETATM   15  C   UNL     1      -6.921  -1.027 -34.660  1.00  0.00     0.014 A 
HETATM   16  C   UNL     1      -6.250  -2.233 -34.893  1.00  0.00     0.001 A 
HETATM   17  C   UNL     1      -5.042  -2.496 -34.253  1.00  0.00     0.000 A 
HETATM   18  C   UNL     1      -4.505  -1.558 -33.376  1.00  0.00     0.001 A 
HETATM   19  C   UNL     1      -5.174  -0.352 -33.148  1.00  0.00     0.014 A 
ENDBRANCH   9  14
ENDBRANCH   2   5
BRANCH   1  20
HETATM   20  C   UNL     1      -2.500   6.648 -33.756  1.00  0.00     0.127 C 
BRANCH  20  21
HETATM   21  C   UNL     1      -1.949   7.475 -32.592  1.00  0.00     0.060 C 
BRANCH  21  22
HETATM   22  C   UNL     1      -1.086   6.679 -31.662  1.00  0.00    -0.029 A 
HETATM   23  C   UNL     1      -0.707   7.023 -30.324  1.00  0.00     0.001 A 
HETATM   24  C   UNL     1      -0.970   8.128 -29.480  1.00  0.00     0.051 A 
HETATM   25  C   UNL     1       0.081   5.982 -29.833  1.00  0.00     0.043 A 
HETATM   26  C   UNL     1      -0.442   8.149 -28.184  1.00  0.00     0.069 A 
HETATM   27  C   UNL     1       0.329   7.080 -27.727  1.00  0.00     0.039 A 
HETATM   28  C   UNL     1       0.612   5.979 -28.541  1.00  0.00     0.033 A 
HETATM   29  N   UNL     1       0.200   5.053 -30.839  1.00  0.00    -0.365 N 
HETATM   30  H   UNL     1       0.728   4.193 -30.766  1.00  0.00     0.165 HD
HETATM   31  C   UNL     1      -0.499   5.459 -31.943  1.00  0.00     0.096 A 
BRANCH  26  32
HETATM   32  O   UNL     1      -0.622   9.151 -27.268  1.00  0.00    -0.356 OA
HETATM   33  C   UNL     1      -0.395   8.821 -25.903  1.00  0.00     0.210 C 
ENDBRANCH  26  32
ENDBRANCH  21  22
ENDBRANCH  20  21
ENDBRANCH   1  20
TORSDOF 6
ENDMDL
