MODEL 1
REMARK VINA RESULT:      -9.3      0.000      0.000
REMARK  6 active torsions:
REMARK  status: ('A' for Active; 'I' for Inactive)
REMARK    1  A    between atoms: O_2  and  C_3 
REMARK    2  A    between atoms: C_3  and  C_4 
REMARK    3  A    between atoms: C_7  and  C_8 
REMARK    4  A    between atoms: C_8  and  O_9 
REMARK    5  A    between atoms: O_9  and  C_10 
REMARK    6  A    between atoms: C_13  and  C_14 
ROOT
HETATM    1  C   UNL     1      -7.643   1.809 -33.768  1.00  0.00     0.069 A 
HETATM    2  C   UNL     1      -8.122   0.767 -32.973  1.00  0.00     0.037 A 
HETATM    3  C   UNL     1      -7.948  -0.562 -33.368  1.00  0.00     0.014 A 
HETATM    4  C   UNL     1      -7.306  -0.855 -34.574  1.00  0.00    -0.035 A 
HETATM    5  C   UNL     1      -6.880   0.192 -35.399  1.00  0.00     0.014 A 
HETATM    6  C   UNL     1      -7.057   1.521 -35.002  1.00  0.00     0.037 A 
ENDROOT
BRANCH   1   7
HETATM    7  O   UNL     1      -7.804   3.065 -33.249  1.00  0.00    -0.347 OA
BRANCH   7   8
HETATM    8  C   UNL     1      -6.942   3.390 -32.154  1.00  0.00     0.214 C 
BRANCH   8   9
HETATM    9  C   UNL     1      -5.596   3.837 -32.681  1.00  0.00    -0.034 A 
HETATM   10  C   UNL     1      -5.524   4.776 -33.720  1.00  0.00     0.010 A 
HETATM   11  C   UNL     1      -4.287   5.209 -34.205  1.00  0.00     0.018 A 
HETATM   12  C   UNL     1      -3.099   4.716 -33.654  1.00  0.00     0.039 A 
HETATM   13  C   UNL     1      -3.162   3.784 -32.611  1.00  0.00     0.018 A 
HETATM   14  C   UNL     1      -4.402   3.351 -32.126  1.00  0.00     0.010 A 
BRANCH  12  15
HETATM   15  C   UNL     1      -1.811   5.215 -34.212  1.00  0.00     0.292 C 
HETATM   16  O   UNL     1      -1.487   5.081 -35.382  1.00  0.00    -0.259 OA
BRANCH  15  17
HETATM   17  O   UNL     1      -1.078   5.833 -33.253  1.00  0.00    -0.323 OA
HETATM   18  C   UNL     1      -1.321   7.238 -33.158  1.00  0.00     0.213 C 
ENDBRANCH  15  17
ENDBRANCH  12  15
ENDBRANCH   8   9
ENDBRANCH   7   8
ENDBRANCH   1   7
BRANCH   4  19
HETATM   19  C   UNL     1      -7.031  -2.241 -34.942  1.00  0.00     0.029 C 
HETATM   20  C   UNL     1      -6.030  -3.006 -34.485  1.00  0.00     0.045 A 
HETATM   21  C   UNL     1      -5.878  -4.418 -34.990  1.00  0.00     0.257 A 
HETATM   22  C   UNL     1      -4.946  -2.769 -33.528  1.00  0.00     0.006 A 
HETATM   23  O   UNL     1      -6.583  -4.999 -35.794  1.00  0.00    -0.267 OA
HETATM   24  N   UNL     1      -4.761  -4.912 -34.341  1.00  0.00    -0.322 N 
HETATM   25  C   UNL     1      -4.210  -3.960 -33.486  1.00  0.00     0.046 A 
HETATM   26  H   UNL     1      -4.414  -5.848 -34.486  1.00  0.00     0.169 HD
HETATM   27  C   UNL     1      -3.098  -4.123 -32.686  1.00  0.00     0.030 A 
HETATM   28  C   UNL     1      -2.715  -3.039 -31.894  1.00  0.00     0.002 A 
HETATM   29  C   UNL     1      -3.445  -1.836 -31.923  1.00  0.00     0.001 A 
HETATM   30  C   UNL     1      -4.571  -1.693 -32.744  1.00  0.00     0.015 A 
ENDBRANCH   4  19
TORSDOF 6
ENDMDL
MODEL 2
REMARK VINA RESULT:      -8.6      5.063      8.302
REMARK  6 active torsions:
REMARK  status: ('A' for Active; 'I' for Inactive)
REMARK    1  A    between atoms: O_2  and  C_3 
REMARK    2  A    between atoms: C_3  and  C_4 
REMARK    3  A    between atoms: C_7  and  C_8 
REMARK    4  A    between atoms: C_8  and  O_9 
REMARK    5  A    between atoms: O_9  and  C_10 
REMARK    6  A    between atoms: C_13  and  C_14 
ROOT
HETATM    1  C   UNL     1      -9.492   1.864 -33.219  1.00  0.00     0.069 A 
HETATM    2  C   UNL     1      -8.362   2.426 -33.814  1.00  0.00     0.037 A 
HETATM    3  C   UNL     1      -7.083   2.067 -33.382  1.00  0.00     0.014 A 
HETATM    4  C   UNL     1      -6.929   1.150 -32.338  1.00  0.00    -0.035 A 
HETATM    5  C   UNL     1      -8.062   0.634 -31.702  1.00  0.00     0.014 A 
HETATM    6  C   UNL     1      -9.342   0.997 -32.135  1.00  0.00     0.037 A 
ENDROOT
BRANCH   1   7
HETATM    7  O   UNL     1     -10.690   2.233 -33.770  1.00  0.00    -0.347 OA
BRANCH   7   8
HETATM    8  C   UNL     1     -11.658   1.187 -33.887  1.00  0.00     0.214 C 
BRANCH   8   9
HETATM    9  C   UNL     1     -13.008   1.689 -33.423  1.00  0.00    -0.034 A 
HETATM   10  C   UNL     1     -14.156   0.909 -33.626  1.00  0.00     0.010 A 
HETATM   11  C   UNL     1     -15.406   1.353 -33.189  1.00  0.00     0.018 A 
HETATM   12  C   UNL     1     -15.530   2.582 -32.533  1.00  0.00     0.039 A 
HETATM   13  C   UNL     1     -14.388   3.364 -32.320  1.00  0.00     0.018 A 
HETATM   14  C   UNL     1     -13.137   2.917 -32.758  1.00  0.00     0.010 A 
BRANCH  12  15
HETATM   15  C   UNL     1     -16.889   3.003 -32.089  1.00  0.00     0.292 C 
HETATM   16  O   UNL     1     -17.862   2.266 -32.107  1.00  0.00    -0.259 OA
BRANCH  15  17
HETATM   17  O   UNL     1     -16.880   4.291 -31.665  1.00  0.00    -0.323 OA
HETATM   18  C   UNL     1     -18.172   4.900 -31.640  1.00  0.00     0.213 C 
ENDBRANCH  15  17
ENDBRANCH  12  15
ENDBRANCH   8   9
ENDBRANCH   7   8
ENDBRANCH   1   7
BRANCH   4  19
HETATM   19  C   UNL     1      -5.596   0.694 -31.952  1.00  0.00     0.029 C 
HETATM   20  C   UNL     1      -4.977  -0.415 -32.379  1.00  0.00     0.045 A 
HETATM   21  C   UNL     1      -3.602  -0.750 -31.859  1.00  0.00     0.257 A 
HETATM   22  C   UNL     1      -5.357  -1.478 -33.312  1.00  0.00     0.006 A 
HETATM   23  O   UNL     1      -2.932  -0.113 -31.067  1.00  0.00    -0.267 OA
HETATM   24  N   UNL     1      -3.265  -1.941 -32.478  1.00  0.00    -0.322 N 
HETATM   25  C   UNL     1      -4.280  -2.374 -33.327  1.00  0.00     0.046 A 
HETATM   26  H   UNL     1      -2.388  -2.411 -32.317  1.00  0.00     0.169 HD
HETATM   27  C   UNL     1      -4.271  -3.518 -34.099  1.00  0.00     0.030 A 
HETATM   28  C   UNL     1      -5.393  -3.764 -34.890  1.00  0.00     0.002 A 
HETATM   29  C   UNL     1      -6.483  -2.873 -34.889  1.00  0.00     0.001 A 
HETATM   30  C   UNL     1      -6.471  -1.718 -34.096  1.00  0.00     0.015 A 
ENDBRANCH   4  19
TORSDOF 6
ENDMDL
MODEL 3
REMARK VINA RESULT:      -8.6      3.046      6.479
REMARK  6 active torsions:
REMARK  status: ('A' for Active; 'I' for Inactive)
REMARK    1  A    between atoms: O_2  and  C_3 
REMARK    2  A    between atoms: C_3  and  C_4 
REMARK    3  A    between atoms: C_7  and  C_8 
REMARK    4  A    between atoms: C_8  and  O_9 
REMARK    5  A    between atoms: O_9  and  C_10 
REMARK    6  A    between atoms: C_13  and  C_14 
ROOT
HETATM    1  C   UNL     1      -6.341   2.360 -31.925  1.00  0.00     0.069 A 
HETATM    2  C   UNL     1      -5.132   2.316 -32.618  1.00  0.00     0.037 A 
HETATM    3  C   UNL     1      -4.277   1.218 -32.480  1.00  0.00     0.014 A 
HETATM    4  C   UNL     1      -4.625   0.163 -31.632  1.00  0.00    -0.035 A 
HETATM    5  C   UNL     1      -5.809   0.237 -30.891  1.00  0.00     0.014 A 
HETATM    6  C   UNL     1      -6.662   1.338 -31.029  1.00  0.00     0.037 A 
ENDROOT
BRANCH   1   7
HETATM    7  O   UNL     1      -7.131   3.446 -32.191  1.00  0.00    -0.347 OA
BRANCH   7   8
HETATM    8  C   UNL     1      -7.681   3.495 -33.511  1.00  0.00     0.214 C 
BRANCH   8   9
HETATM    9  C   UNL     1      -8.944   2.663 -33.567  1.00  0.00    -0.034 A 
HETATM   10  C   UNL     1     -10.164   3.209 -33.142  1.00  0.00     0.010 A 
HETATM   11  C   UNL     1     -11.340   2.457 -33.203  1.00  0.00     0.018 A 
HETATM   12  C   UNL     1     -11.319   1.149 -33.698  1.00  0.00     0.039 A 
HETATM   13  C   UNL     1     -10.106   0.600 -34.132  1.00  0.00     0.018 A 
HETATM   14  C   UNL     1      -8.929   1.354 -34.070  1.00  0.00     0.010 A 
BRANCH  12  15
HETATM   15  C   UNL     1     -12.604   0.397 -33.739  1.00  0.00     0.292 C 
HETATM   16  O   UNL     1     -12.757  -0.705 -33.236  1.00  0.00    -0.259 OA
BRANCH  15  17
HETATM   17  O   UNL     1     -13.557   1.107 -34.393  1.00  0.00    -0.323 OA
HETATM   18  C   UNL     1     -14.803   1.177 -33.698  1.00  0.00     0.213 C 
ENDBRANCH  15  17
ENDBRANCH  12  15
ENDBRANCH   8   9
ENDBRANCH   7   8
ENDBRANCH   1   7
BRANCH   4  19
HETATM   19  C   UNL     1      -3.787  -1.030 -31.563  1.00  0.00     0.029 C 
HETATM   20  C   UNL     1      -3.923  -2.146 -32.293  1.00  0.00     0.045 A 
HETATM   21  C   UNL     1      -2.978  -3.300 -32.077  1.00  0.00     0.257 A 
HETATM   22  C   UNL     1      -4.864  -2.546 -33.342  1.00  0.00     0.006 A 
HETATM   23  O   UNL     1      -2.048  -3.362 -31.294  1.00  0.00    -0.267 OA
HETATM   24  N   UNL     1      -3.397  -4.277 -32.963  1.00  0.00    -0.322 N 
HETATM   25  C   UNL     1      -4.495  -3.848 -33.706  1.00  0.00     0.046 A 
HETATM   26  H   UNL     1      -2.944  -5.174 -33.041  1.00  0.00     0.169 HD
HETATM   27  C   UNL     1      -5.158  -4.569 -34.678  1.00  0.00     0.030 A 
HETATM   28  C   UNL     1      -6.235  -3.947 -35.311  1.00  0.00     0.002 A 
HETATM   29  C   UNL     1      -6.618  -2.639 -34.959  1.00  0.00     0.001 A 
HETATM   30  C   UNL     1      -5.930  -1.927 -33.968  1.00  0.00     0.015 A 
ENDBRANCH   4  19
TORSDOF 6
ENDMDL
MODEL 4
REMARK VINA RESULT:      -8.5      2.775      5.803
REMARK  6 active torsions:
REMARK  status: ('A' for Active; 'I' for Inactive)
REMARK    1  A    between atoms: O_2  and  C_3 
REMARK    2  A    between atoms: C_3  and  C_4 
REMARK    3  A    between atoms: C_7  and  C_8 
REMARK    4  A    between atoms: C_8  and  O_9 
REMARK    5  A    between atoms: O_9  and  C_10 
REMARK    6  A    between atoms: C_13  and  C_14 
ROOT
HETATM    1  C   UNL     1      -5.322   3.016 -30.751  1.00  0.00     0.069 A 
HETATM    2  C   UNL     1      -4.166   2.874 -31.518  1.00  0.00     0.037 A 
HETATM    3  C   UNL     1      -3.559   1.623 -31.657  1.00  0.00     0.014 A 
HETATM    4  C   UNL     1      -4.100   0.507 -31.014  1.00  0.00    -0.035 A 
HETATM    5  C   UNL     1      -5.225   0.662 -30.196  1.00  0.00     0.014 A 
HETATM    6  C   UNL     1      -5.829   1.916 -30.057  1.00  0.00     0.037 A 
ENDROOT
BRANCH   1   7
HETATM    7  O   UNL     1      -5.871   4.270 -30.744  1.00  0.00    -0.347 OA
BRANCH   7   8
HETATM    8  C   UNL     1      -6.405   4.712 -31.995  1.00  0.00     0.214 C 
BRANCH   8   9
HETATM    9  C   UNL     1      -7.535   3.798 -32.418  1.00  0.00    -0.034 A 
HETATM   10  C   UNL     1      -7.387   2.971 -33.541  1.00  0.00     0.010 A 
HETATM   11  C   UNL     1      -8.416   2.111 -33.933  1.00  0.00     0.018 A 
HETATM   12  C   UNL     1      -9.609   2.056 -33.204  1.00  0.00     0.039 A 
HETATM   13  C   UNL     1      -9.761   2.873 -32.076  1.00  0.00     0.018 A 
HETATM   14  C   UNL     1      -8.730   3.734 -31.685  1.00  0.00     0.010 A 
BRANCH  12  15
HETATM   15  C   UNL     1     -10.669   1.120 -33.670  1.00  0.00     0.292 C 
HETATM   16  O   UNL     1     -10.900   0.044 -33.139  1.00  0.00    -0.259 OA
BRANCH  15  17
HETATM   17  O   UNL     1     -11.330   1.633 -34.737  1.00  0.00    -0.323 OA
HETATM   18  C   UNL     1     -12.751   1.650 -34.583  1.00  0.00     0.213 C 
ENDBRANCH  15  17
ENDBRANCH  12  15
ENDBRANCH   8   9
ENDBRANCH   7   8
ENDBRANCH   1   7
BRANCH   4  19
HETATM   19  C   UNL     1      -3.531  -0.819 -31.238  1.00  0.00     0.029 C 
HETATM   20  C   UNL     1      -3.894  -1.695 -32.185  1.00  0.00     0.045 A 
HETATM   21  C   UNL     1      -3.212  -3.037 -32.262  1.00  0.00     0.257 A 
HETATM   22  C   UNL     1      -4.893  -1.654 -33.255  1.00  0.00     0.006 A 
HETATM   23  O   UNL     1      -2.319  -3.458 -31.551  1.00  0.00    -0.267 OA
HETATM   24  N   UNL     1      -3.823  -3.689 -33.319  1.00  0.00    -0.322 N 
HETATM   25  C   UNL     1      -4.804  -2.892 -33.906  1.00  0.00     0.046 A 
HETATM   26  H   UNL     1      -3.568  -4.621 -33.607  1.00  0.00     0.169 HD
HETATM   27  C   UNL     1      -5.599  -3.231 -34.981  1.00  0.00     0.030 A 
HETATM   28  C   UNL     1      -6.520  -2.278 -35.420  1.00  0.00     0.002 A 
HETATM   29  C   UNL     1      -6.621  -1.029 -34.780  1.00  0.00     0.001 A 
HETATM   30  C   UNL     1      -5.804  -0.708 -33.688  1.00  0.00     0.015 A 
ENDBRANCH   4  19
TORSDOF 6
ENDMDL
MODEL 5
REMARK VINA RESULT:      -8.3      2.192      2.717
REMARK  6 active torsions:
REMARK  status: ('A' for Active; 'I' for Inactive)
REMARK    1  A    between atoms: O_2  and  C_3 
REMARK    2  A    between atoms: C_3  and  C_4 
REMARK    3  A    between atoms: C_7  and  C_8 
REMARK    4  A    between atoms: C_8  and  O_9 
REMARK    5  A    between atoms: O_9  and  C_10 
REMARK    6  A    between atoms: C_13  and  C_14 
ROOT
HETATM    1  C   UNL     1      -9.585   1.960 -33.067  1.00  0.00     0.069 A 
HETATM    2  C   UNL     1      -9.757   0.707 -32.478  1.00  0.00     0.037 A 
HETATM    3  C   UNL     1      -9.026  -0.394 -32.933  1.00  0.00     0.014 A 
HETATM    4  C   UNL     1      -8.128  -0.248 -33.993  1.00  0.00    -0.035 A 
HETATM    5  C   UNL     1      -8.001   0.995 -34.622  1.00  0.00     0.014 A 
HETATM    6  C   UNL     1      -8.735   2.095 -34.166  1.00  0.00     0.037 A 
ENDROOT
BRANCH   1   7
HETATM    7  O   UNL     1     -10.296   2.980 -32.494  1.00  0.00    -0.347 OA
BRANCH   7   8
HETATM    8  C   UNL     1      -9.889   3.344 -31.172  1.00  0.00     0.214 C 
BRANCH   8   9
HETATM    9  C   UNL     1      -8.418   3.701 -31.173  1.00  0.00    -0.034 A 
HETATM   10  C   UNL     1      -7.971   4.838 -31.862  1.00  0.00     0.010 A 
HETATM   11  C   UNL     1      -6.618   5.187 -31.857  1.00  0.00     0.018 A 
HETATM   12  C   UNL     1      -5.689   4.410 -31.157  1.00  0.00     0.039 A 
HETATM   13  C   UNL     1      -6.129   3.277 -30.461  1.00  0.00     0.018 A 
HETATM   14  C   UNL     1      -7.484   2.929 -30.466  1.00  0.00     0.010 A 
BRANCH  12  15
HETATM   15  C   UNL     1      -4.261   4.832 -31.189  1.00  0.00     0.292 C 
HETATM   16  O   UNL     1      -3.326   4.047 -31.221  1.00  0.00    -0.259 OA
BRANCH  15  17
HETATM   17  O   UNL     1      -4.158   6.185 -31.188  1.00  0.00    -0.323 OA
HETATM   18  C   UNL     1      -3.410   6.705 -30.087  1.00  0.00     0.213 C 
ENDBRANCH  15  17
ENDBRANCH  12  15
ENDBRANCH   8   9
ENDBRANCH   7   8
ENDBRANCH   1   7
BRANCH   4  19
HETATM   19  C   UNL     1      -7.288  -1.369 -34.405  1.00  0.00     0.029 C 
HETATM   20  C   UNL     1      -6.067  -1.666 -33.938  1.00  0.00     0.045 A 
HETATM   21  C   UNL     1      -5.325  -2.856 -34.492  1.00  0.00     0.257 A 
HETATM   22  C   UNL     1      -5.203  -1.048 -32.931  1.00  0.00     0.006 A 
HETATM   23  O   UNL     1      -5.704  -3.636 -35.346  1.00  0.00    -0.267 OA
HETATM   24  N   UNL     1      -4.116  -2.870 -33.819  1.00  0.00    -0.322 N 
HETATM   25  C   UNL     1      -4.035  -1.821 -32.906  1.00  0.00     0.046 A 
HETATM   26  H   UNL     1      -3.405  -3.564 -33.987  1.00  0.00     0.169 HD
HETATM   27  C   UNL     1      -2.973  -1.544 -32.070  1.00  0.00     0.030 A 
HETATM   28  C   UNL     1      -3.098  -0.443 -31.221  1.00  0.00     0.002 A 
HETATM   29  C   UNL     1      -4.266   0.343 -31.231  1.00  0.00     0.001 A 
HETATM   30  C   UNL     1      -5.331   0.043 -32.090  1.00  0.00     0.015 A 
ENDBRANCH   4  19
TORSDOF 6
ENDMDL
MODEL 6
REMARK VINA RESULT:      -8.1      3.748      6.130
REMARK  6 active torsions:
REMARK  status: ('A' for Active; 'I' for Inactive)
REMARK    1  A    between atoms: O_2  and  C_3 
REMARK    2  A    between atoms: C_3  and  C_4 
REMARK    3  A    between atoms: C_7  and  C_8 
REMARK    4  A    between atoms: C_8  and  O_9 
REMARK    5  A    between atoms: O_9  and  C_10 
REMARK    6  A    between atoms: C_13  and  C_14 
ROOT
HETATM    1  C   UNL     1      -2.786   4.004 -32.011  1.00  0.00     0.069 A 
HETATM    2  C   UNL     1      -3.734   3.426 -31.165  1.00  0.00     0.037 A 
HETATM    3  C   UNL     1      -5.033   3.186 -31.619  1.00  0.00     0.014 A 
HETATM    4  C   UNL     1      -5.395   3.539 -32.922  1.00  0.00    -0.035 A 
HETATM    5  C   UNL     1      -4.462   4.173 -33.748  1.00  0.00     0.014 A 
HETATM    6  C   UNL     1      -3.162   4.414 -33.291  1.00  0.00     0.037 A 
ENDROOT
BRANCH   1   7
HETATM    7  O   UNL     1      -1.528   4.125 -31.485  1.00  0.00    -0.347 OA
BRANCH   7   8
HETATM    8  C   UNL     1      -0.824   5.316 -31.848  1.00  0.00     0.214 C 
BRANCH   8   9
HETATM    9  C   UNL     1      -0.472   6.099 -30.602  1.00  0.00    -0.034 A 
HETATM   10  C   UNL     1      -0.947   7.408 -30.436  1.00  0.00     0.010 A 
HETATM   11  C   UNL     1      -0.643   8.136 -29.284  1.00  0.00     0.018 A 
HETATM   12  C   UNL     1       0.136   7.565 -28.271  1.00  0.00     0.039 A 
HETATM   13  C   UNL     1       0.608   6.256 -28.425  1.00  0.00     0.018 A 
HETATM   14  C   UNL     1       0.302   5.528 -29.581  1.00  0.00     0.010 A 
BRANCH  12  15
HETATM   15  C   UNL     1       0.427   8.390 -27.065  1.00  0.00     0.292 C 
HETATM   16  O   UNL     1      -0.430   8.757 -26.277  1.00  0.00    -0.259 OA
BRANCH  15  17
HETATM   17  O   UNL     1       1.754   8.656 -26.973  1.00  0.00    -0.323 OA
HETATM   18  C   UNL     1       2.297   8.435 -25.670  1.00  0.00     0.213 C 
ENDBRANCH  15  17
ENDBRANCH  12  15
ENDBRANCH   8   9
ENDBRANCH   7   8
ENDBRANCH   1   7
BRANCH   4  19
HETATM   19  C   UNL     1      -6.719   3.197 -33.434  1.00  0.00     0.029 C 
HETATM   20  C   UNL     1      -7.132   1.989 -33.840  1.00  0.00     0.045 A 
HETATM   21  C   UNL     1      -8.535   1.816 -34.365  1.00  0.00     0.257 A 
HETATM   22  C   UNL     1      -6.480   0.679 -33.908  1.00  0.00     0.006 A 
HETATM   23  O   UNL     1      -9.399   2.666 -34.469  1.00  0.00    -0.267 OA
HETATM   24  N   UNL     1      -8.627   0.478 -34.705  1.00  0.00    -0.322 N 
HETATM   25  C   UNL     1      -7.436  -0.194 -34.442  1.00  0.00     0.046 A 
HETATM   26  H   UNL     1      -9.465   0.069 -35.090  1.00  0.00     0.169 HD
HETATM   27  C   UNL     1      -7.187  -1.534 -34.658  1.00  0.00     0.030 A 
HETATM   28  C   UNL     1      -5.920  -2.011 -34.316  1.00  0.00     0.002 A 
HETATM   29  C   UNL     1      -4.949  -1.148 -33.776  1.00  0.00     0.001 A 
HETATM   30  C   UNL     1      -5.225   0.210 -33.567  1.00  0.00     0.015 A 
ENDBRANCH   4  19
TORSDOF 6
ENDMDL
MODEL 7
REMARK VINA RESULT:      -8.0      1.795      2.713
REMARK  6 active torsions:
REMARK  status: ('A' for Active; 'I' for Inactive)
REMARK    1  A    between atoms: O_2  and  C_3 
REMARK    2  A    between atoms: C_3  and  C_4 
REMARK    3  A    between atoms: C_7  and  C_8 
REMARK    4  A    between atoms: C_8  and  O_9 
REMARK    5  A    between atoms: O_9  and  C_10 
REMARK    6  A    between atoms: C_13  and  C_14 
ROOT
HETATM    1  C   UNL     1      -6.603   2.012 -32.134  1.00  0.00     0.069 A 
HETATM    2  C   UNL     1      -6.624   1.194 -31.004  1.00  0.00     0.037 A 
HETATM    3  C   UNL     1      -5.812   0.058 -30.938  1.00  0.00     0.014 A 
HETATM    4  C   UNL     1      -4.984  -0.273 -32.013  1.00  0.00    -0.035 A 
HETATM    5  C   UNL     1      -5.008   0.514 -33.169  1.00  0.00     0.014 A 
HETATM    6  C   UNL     1      -5.823   1.649 -33.234  1.00  0.00     0.037 A 
ENDROOT
BRANCH   1   7
HETATM    7  O   UNL     1      -7.382   3.135 -32.060  1.00  0.00    -0.347 OA
BRANCH   7   8
HETATM    8  C   UNL     1      -6.795   4.244 -31.375  1.00  0.00     0.214 C 
BRANCH   8   9
HETATM    9  C   UNL     1      -5.526   4.667 -32.084  1.00  0.00    -0.034 A 
HETATM   10  C   UNL     1      -5.598   5.343 -33.310  1.00  0.00     0.010 A 
HETATM   11  C   UNL     1      -4.435   5.752 -33.967  1.00  0.00     0.018 A 
HETATM   12  C   UNL     1      -3.179   5.501 -33.405  1.00  0.00     0.039 A 
HETATM   13  C   UNL     1      -3.099   4.833 -32.177  1.00  0.00     0.018 A 
HETATM   14  C   UNL     1      -4.264   4.423 -31.520  1.00  0.00     0.010 A 
BRANCH  12  15
HETATM   15  C   UNL     1      -1.975   5.961 -34.152  1.00  0.00     0.292 C 
HETATM   16  O   UNL     1      -1.196   5.203 -34.708  1.00  0.00    -0.259 OA
BRANCH  15  17
HETATM   17  O   UNL     1      -1.883   7.314 -34.131  1.00  0.00    -0.323 OA
HETATM   18  C   UNL     1      -1.524   7.848 -32.855  1.00  0.00     0.213 C 
ENDBRANCH  15  17
ENDBRANCH  12  15
ENDBRANCH   8   9
ENDBRANCH   7   8
ENDBRANCH   1   7
BRANCH   4  19
HETATM   19  C   UNL     1      -4.059  -1.398 -31.908  1.00  0.00     0.029 C 
HETATM   20  C   UNL     1      -4.118  -2.547 -32.596  1.00  0.00     0.045 A 
HETATM   21  C   UNL     1      -3.088  -3.620 -32.347  1.00  0.00     0.257 A 
HETATM   22  C   UNL     1      -5.035  -3.055 -33.619  1.00  0.00     0.006 A 
HETATM   23  O   UNL     1      -2.150  -3.584 -31.573  1.00  0.00    -0.267 OA
HETATM   24  N   UNL     1      -3.441  -4.658 -33.192  1.00  0.00    -0.322 N 
HETATM   25  C   UNL     1      -4.573  -4.339 -33.939  1.00  0.00     0.046 A 
HETATM   26  H   UNL     1      -2.924  -5.522 -33.242  1.00  0.00     0.169 HD
HETATM   27  C   UNL     1      -5.189  -5.142 -34.876  1.00  0.00     0.030 A 
HETATM   28  C   UNL     1      -6.314  -4.626 -35.520  1.00  0.00     0.002 A 
HETATM   29  C   UNL     1      -6.790  -3.337 -35.213  1.00  0.00     0.001 A 
HETATM   30  C   UNL     1      -6.149  -2.540 -34.256  1.00  0.00     0.015 A 
ENDBRANCH   4  19
TORSDOF 6
ENDMDL
MODEL 8
REMARK VINA RESULT:      -8.0      3.713      9.079
REMARK  6 active torsions:
REMARK  status: ('A' for Active; 'I' for Inactive)
REMARK    1  A    between atoms: O_2  and  C_3 
REMARK    2  A    between atoms: C_3  and  C_4 
REMARK    3  A    between atoms: C_7  and  C_8 
REMARK    4  A    between atoms: C_8  and  O_9 
REMARK    5  A    between atoms: O_9  and  C_10 
REMARK    6  A    between atoms: C_13  and  C_14 
ROOT
HETATM    1  C   UNL     1      -5.829   3.880 -33.038  1.00  0.00     0.069 A 
HETATM    2  C   UNL     1      -5.643   5.191 -33.478  1.00  0.00     0.037 A 
HETATM    3  C   UNL     1      -5.266   6.192 -32.580  1.00  0.00     0.014 A 
HETATM    4  C   UNL     1      -5.087   5.887 -31.228  1.00  0.00    -0.035 A 
HETATM    5  C   UNL     1      -5.332   4.586 -30.777  1.00  0.00     0.014 A 
HETATM    6  C   UNL     1      -5.711   3.586 -31.678  1.00  0.00     0.037 A 
ENDROOT
BRANCH   1   7
HETATM    7  O   UNL     1      -6.125   2.969 -34.015  1.00  0.00    -0.347 OA
BRANCH   7   8
HETATM    8  C   UNL     1      -7.191   2.065 -33.708  1.00  0.00     0.214 C 
BRANCH   8   9
HETATM    9  C   UNL     1      -6.723   0.640 -33.912  1.00  0.00    -0.034 A 
HETATM   10  C   UNL     1      -7.306  -0.154 -34.910  1.00  0.00     0.010 A 
HETATM   11  C   UNL     1      -6.873  -1.466 -35.120  1.00  0.00     0.018 A 
HETATM   12  C   UNL     1      -5.844  -2.005 -34.340  1.00  0.00     0.039 A 
HETATM   13  C   UNL     1      -5.252  -1.216 -33.346  1.00  0.00     0.018 A 
HETATM   14  C   UNL     1      -5.687   0.098 -33.138  1.00  0.00     0.010 A 
BRANCH  12  15
HETATM   15  C   UNL     1      -5.426  -3.409 -34.610  1.00  0.00     0.292 C 
HETATM   16  O   UNL     1      -6.210  -4.307 -34.872  1.00  0.00    -0.259 OA
BRANCH  15  17
HETATM   17  O   UNL     1      -4.077  -3.533 -34.533  1.00  0.00    -0.323 OA
HETATM   18  C   UNL     1      -3.644  -4.635 -33.734  1.00  0.00     0.213 C 
ENDBRANCH  15  17
ENDBRANCH  12  15
ENDBRANCH   8   9
ENDBRANCH   7   8
ENDBRANCH   1   7
BRANCH   4  19
HETATM   19  C   UNL     1      -4.594   6.906 -30.304  1.00  0.00     0.029 C 
HETATM   20  C   UNL     1      -3.312   7.183 -30.031  1.00  0.00     0.045 A 
HETATM   21  C   UNL     1      -2.978   8.258 -29.028  1.00  0.00     0.257 A 
HETATM   22  C   UNL     1      -2.044   6.632 -30.514  1.00  0.00     0.006 A 
HETATM   23  O   UNL     1      -3.753   8.958 -28.404  1.00  0.00    -0.267 OA
HETATM   24  N   UNL     1      -1.595   8.277 -28.971  1.00  0.00    -0.322 N 
HETATM   25  C   UNL     1      -1.041   7.335 -29.834  1.00  0.00     0.046 A 
HETATM   26  H   UNL     1      -1.082   8.907 -28.374  1.00  0.00     0.169 HD
HETATM   27  C   UNL     1       0.304   7.092 -30.027  1.00  0.00     0.030 A 
HETATM   28  C   UNL     1       0.649   6.102 -30.948  1.00  0.00     0.002 A 
HETATM   29  C   UNL     1      -0.346   5.389 -31.643  1.00  0.00     0.001 A 
HETATM   30  C   UNL     1      -1.706   5.651 -31.429  1.00  0.00     0.015 A 
ENDBRANCH   4  19
TORSDOF 6
ENDMDL
MODEL 9
REMARK VINA RESULT:      -8.0      5.347      8.379
REMARK  6 active torsions:
REMARK  status: ('A' for Active; 'I' for Inactive)
REMARK    1  A    between atoms: O_2  and  C_3 
REMARK    2  A    between atoms: C_3  and  C_4 
REMARK    3  A    between atoms: C_7  and  C_8 
REMARK    4  A    between atoms: C_8  and  O_9 
REMARK    5  A    between atoms: O_9  and  C_10 
REMARK    6  A    between atoms: C_13  and  C_14 
ROOT
HETATM    1  C   UNL     1     -10.151   1.555 -33.077  1.00  0.00     0.069 A 
HETATM    2  C   UNL     1      -9.391   1.813 -34.218  1.00  0.00     0.037 A 
HETATM    3  C   UNL     1      -8.398   0.917 -34.624  1.00  0.00     0.014 A 
HETATM    4  C   UNL     1      -8.152  -0.239 -33.879  1.00  0.00    -0.035 A 
HETATM    5  C   UNL     1      -8.873  -0.466 -32.702  1.00  0.00     0.014 A 
HETATM    6  C   UNL     1      -9.864   0.433 -32.296  1.00  0.00     0.037 A 
ENDROOT
BRANCH   1   7
HETATM    7  O   UNL     1     -11.142   2.462 -32.814  1.00  0.00    -0.347 OA
BRANCH   7   8
HETATM    8  C   UNL     1     -12.045   2.713 -33.895  1.00  0.00     0.214 C 
BRANCH   8   9
HETATM    9  C   UNL     1     -13.448   2.888 -33.356  1.00  0.00    -0.034 A 
HETATM   10  C   UNL     1     -14.362   1.826 -33.419  1.00  0.00     0.010 A 
HETATM   11  C   UNL     1     -15.656   1.969 -32.911  1.00  0.00     0.018 A 
HETATM   12  C   UNL     1     -16.056   3.173 -32.323  1.00  0.00     0.039 A 
HETATM   13  C   UNL     1     -15.147   4.236 -32.249  1.00  0.00     0.018 A 
HETATM   14  C   UNL     1     -13.852   4.091 -32.759  1.00  0.00     0.010 A 
BRANCH  12  15
HETATM   15  C   UNL     1     -17.448   3.266 -31.799  1.00  0.00     0.292 C 
HETATM   16  O   UNL     1     -17.783   4.032 -30.910  1.00  0.00    -0.259 OA
BRANCH  15  17
HETATM   17  O   UNL     1     -18.265   2.400 -32.448  1.00  0.00    -0.323 OA
HETATM   18  C   UNL     1     -19.251   3.038 -33.262  1.00  0.00     0.213 C 
ENDBRANCH  15  17
ENDBRANCH  12  15
ENDBRANCH   8   9
ENDBRANCH   7   8
ENDBRANCH   1   7
BRANCH   4  19
HETATM   19  C   UNL     1      -7.188  -1.228 -34.354  1.00  0.00     0.029 C 
HETATM   20  C   UNL     1      -5.945  -1.418 -33.892  1.00  0.00     0.045 A 
HETATM   21  C   UNL     1      -5.070  -2.476 -34.515  1.00  0.00     0.257 A 
HETATM   22  C   UNL     1      -5.162  -0.778 -32.833  1.00  0.00     0.006 A 
HETATM   23  O   UNL     1      -5.354  -3.233 -35.425  1.00  0.00    -0.267 OA
HETATM   24  N   UNL     1      -3.872  -2.401 -33.828  1.00  0.00    -0.322 N 
HETATM   25  C   UNL     1      -3.915  -1.416 -32.844  1.00  0.00     0.046 A 
HETATM   26  H   UNL     1      -3.086  -2.998 -34.033  1.00  0.00     0.169 HD
HETATM   27  C   UNL     1      -2.896  -1.080 -31.977  1.00  0.00     0.030 A 
HETATM   28  C   UNL     1      -3.149  -0.061 -31.057  1.00  0.00     0.002 A 
HETATM   29  C   UNL     1      -4.398   0.588 -31.030  1.00  0.00     0.001 A 
HETATM   30  C   UNL     1      -5.417   0.231 -31.922  1.00  0.00     0.015 A 
ENDBRANCH   4  19
TORSDOF 6
ENDMDL
MODEL 10
REMARK VINA RESULT:      -7.9      4.193      8.215
REMARK  6 active torsions:
REMARK  status: ('A' for Active; 'I' for Inactive)
REMARK    1  A    between atoms: O_2  and  C_3 
REMARK    2  A    between atoms: C_3  and  C_4 
REMARK    3  A    between atoms: C_7  and  C_8 
REMARK    4  A    between atoms: C_8  and  O_9 
REMARK    5  A    between atoms: O_9  and  C_10 
REMARK    6  A    between atoms: C_13  and  C_14 
ROOT
HETATM    1  C   UNL     1      -7.000   1.848 -31.495  1.00  0.00     0.069 A 
HETATM    2  C   UNL     1      -7.945   0.832 -31.350  1.00  0.00     0.037 A 
HETATM    3  C   UNL     1      -9.108   0.831 -32.125  1.00  0.00     0.014 A 
HETATM    4  C   UNL     1      -9.338   1.861 -33.041  1.00  0.00    -0.035 A 
HETATM    5  C   UNL     1      -8.419   2.911 -33.142  1.00  0.00     0.014 A 
HETATM    6  C   UNL     1      -7.257   2.910 -32.364  1.00  0.00     0.037 A 
ENDROOT
BRANCH   1   7
HETATM    7  O   UNL     1      -5.868   1.708 -30.738  1.00  0.00    -0.347 OA
BRANCH   7   8
HETATM    8  C   UNL     1      -4.642   1.657 -31.474  1.00  0.00     0.214 C 
BRANCH   8   9
HETATM    9  C   UNL     1      -4.517   0.314 -32.162  1.00  0.00    -0.034 A 
HETATM   10  C   UNL     1      -3.796  -0.723 -31.553  1.00  0.00     0.010 A 
HETATM   11  C   UNL     1      -3.686  -1.972 -32.170  1.00  0.00     0.018 A 
HETATM   12  C   UNL     1      -4.304  -2.209 -33.402  1.00  0.00     0.039 A 
HETATM   13  C   UNL     1      -5.033  -1.181 -34.013  1.00  0.00     0.018 A 
HETATM   14  C   UNL     1      -5.141   0.069 -33.394  1.00  0.00     0.010 A 
BRANCH  12  15
HETATM   15  C   UNL     1      -4.152  -3.561 -34.010  1.00  0.00     0.292 C 
HETATM   16  O   UNL     1      -3.383  -4.409 -33.585  1.00  0.00    -0.259 OA
BRANCH  15  17
HETATM   17  O   UNL     1      -4.982  -3.707 -35.072  1.00  0.00    -0.323 OA
HETATM   18  C   UNL     1      -6.016  -4.671 -34.868  1.00  0.00     0.213 C 
ENDBRANCH  15  17
ENDBRANCH  12  15
ENDBRANCH   8   9
ENDBRANCH   7   8
ENDBRANCH   1   7
BRANCH   4  19
HETATM   19  C   UNL     1     -10.499   1.811 -33.925  1.00  0.00     0.029 C 
HETATM   20  C   UNL     1     -11.693   2.379 -33.708  1.00  0.00     0.045 A 
HETATM   21  C   UNL     1     -12.796   2.210 -34.722  1.00  0.00     0.257 A 
HETATM   22  C   UNL     1     -12.231   3.192 -32.615  1.00  0.00     0.006 A 
HETATM   23  O   UNL     1     -12.749   1.604 -35.776  1.00  0.00    -0.267 OA
HETATM   24  N   UNL     1     -13.877   2.894 -34.192  1.00  0.00    -0.322 N 
HETATM   25  C   UNL     1     -13.558   3.471 -32.966  1.00  0.00     0.046 A 
HETATM   26  H   UNL     1     -14.768   2.952 -34.660  1.00  0.00     0.169 HD
HETATM   27  C   UNL     1     -14.399   4.223 -32.172  1.00  0.00     0.030 A 
HETATM   28  C   UNL     1     -13.876   4.718 -30.976  1.00  0.00     0.002 A 
HETATM   29  C   UNL     1     -12.543   4.450 -30.609  1.00  0.00     0.001 A 
HETATM   30  C   UNL     1     -11.708   3.681 -31.431  1.00  0.00     0.015 A 
ENDBRANCH   4  19
TORSDOF 6
ENDMDL
