MODEL 1
REMARK VINA RESULT:      -7.5      0.000      0.000
REMARK  4 active torsions:
REMARK  status: ('A' for Active; 'I' for Inactive)
REMARK    1  A    between atoms: O_2  and  C_3 
REMARK    2  A    between atoms: C_4  and  O_5 
REMARK    3  A    between atoms: C_9  and  N_10 
REMARK    4  A    between atoms: N_10  and  C_11 
ROOT
HETATM    1  C   UNL     1      -4.693  -2.708 -33.976  1.00  0.00     0.102 A 
HETATM    2  C   UNL     1      -4.144  -1.929 -32.951  1.00  0.00     0.118 A 
HETATM    3  C   UNL     1      -4.863  -0.812 -32.536  1.00  0.00     0.085 A 
HETATM    4  C   UNL     1      -6.063  -0.435 -33.113  1.00  0.00     0.005 A 
HETATM    5  C   UNL     1      -6.562   0.791 -32.457  1.00  0.00     0.245 A 
HETATM    6  O   UNL     1      -5.557   1.080 -31.475  1.00  0.00    -0.291 OA
HETATM    7  C   UNL     1      -4.551   0.149 -31.484  1.00  0.00     0.298 A 
HETATM    8  O   UNL     1      -3.615   0.182 -30.717  1.00  0.00    -0.259 OA
HETATM    9  C   UNL     1      -6.596  -1.169 -34.158  1.00  0.00     0.015 A 
HETATM   10  C   UNL     1      -5.901  -2.304 -34.585  1.00  0.00     0.040 A 
ENDROOT
BRANCH   5  11
HETATM   11  N   UNL     1      -7.842   0.564 -31.809  1.00  0.00    -0.248 NA
HETATM   12  H   UNL     1      -7.901  -0.392 -31.463  1.00  0.00     0.132 HD
BRANCH  11  13
HETATM   13  C   UNL     1      -9.031   0.975 -32.404  1.00  0.00     0.082 A 
HETATM   14  N   UNL     1      -9.411   2.267 -32.404  1.00  0.00    -0.355 N 
HETATM   15  H   UNL     1      -8.781   2.944 -31.970  1.00  0.00     0.166 HD
HETATM   16  C   UNL     1     -10.584   2.701 -32.891  1.00  0.00     0.108 A 
HETATM   17  C   UNL     1     -11.493   1.794 -33.412  1.00  0.00     0.026 A 
HETATM   18 BR   UNL     1     -13.141   2.392 -34.100  1.00  0.00    -0.050 Br
HETATM   19  C   UNL     1     -11.180   0.442 -33.402  1.00  0.00     0.024 A 
HETATM   20  C   UNL     1      -9.952   0.031 -32.879  1.00  0.00     0.043 A 
ENDBRANCH  11  13
ENDBRANCH   5  11
BRANCH   2  21
HETATM   21  O   UNL     1      -2.983  -2.276 -32.328  1.00  0.00    -0.352 OA
HETATM   22  C   UNL     1      -3.074  -3.544 -31.674  1.00  0.00     0.210 C 
ENDBRANCH   2  21
BRANCH   1  23
HETATM   23  O   UNL     1      -4.171  -3.844 -34.530  1.00  0.00    -0.353 OA
HETATM   24  C   UNL     1      -4.987  -5.011 -34.530  1.00  0.00     0.210 C 
ENDBRANCH   1  23
TORSDOF 4
ENDMDL
MODEL 2
REMARK VINA RESULT:      -7.5      1.673      2.127
REMARK  4 active torsions:
REMARK  status: ('A' for Active; 'I' for Inactive)
REMARK    1  A    between atoms: O_2  and  C_3 
REMARK    2  A    between atoms: C_4  and  O_5 
REMARK    3  A    between atoms: C_9  and  N_10 
REMARK    4  A    between atoms: N_10  and  C_11 
ROOT
HETATM    1  C   UNL     1      -4.629  -2.156 -33.673  1.00  0.00     0.102 A 
HETATM    2  C   UNL     1      -4.584  -0.791 -33.369  1.00  0.00     0.118 A 
HETATM    3  C   UNL     1      -5.652  -0.003 -33.789  1.00  0.00     0.085 A 
HETATM    4  C   UNL     1      -6.720  -0.509 -34.511  1.00  0.00     0.005 A 
HETATM    5  C   UNL     1      -7.673   0.580 -34.808  1.00  0.00     0.245 A 
HETATM    6  O   UNL     1      -7.066   1.733 -34.209  1.00  0.00    -0.291 OA
HETATM    7  C   UNL     1      -5.883   1.423 -33.589  1.00  0.00     0.298 A 
HETATM    8  O   UNL     1      -5.217   2.240 -32.992  1.00  0.00    -0.259 OA
HETATM    9  C   UNL     1      -6.755  -1.847 -34.858  1.00  0.00     0.015 A 
HETATM   10  C   UNL     1      -5.702  -2.664 -34.437  1.00  0.00     0.040 A 
ENDROOT
BRANCH   5  11
HETATM   11  N   UNL     1      -8.971   0.330 -34.205  1.00  0.00    -0.248 NA
HETATM   12  H   UNL     1      -9.335  -0.574 -34.504  1.00  0.00     0.132 HD
BRANCH  11  13
HETATM   13  C   UNL     1      -9.959   1.309 -34.194  1.00  0.00     0.082 A 
HETATM   14  N   UNL     1      -9.725   2.553 -34.653  1.00  0.00    -0.355 N 
HETATM   15  H   UNL     1      -8.797   2.749 -35.035  1.00  0.00     0.166 HD
HETATM   16  C   UNL     1     -10.617   3.553 -34.589  1.00  0.00     0.108 A 
HETATM   17  C   UNL     1     -11.855   3.338 -34.004  1.00  0.00     0.026 A 
HETATM   18 BR   UNL     1     -13.116   4.734 -33.910  1.00  0.00    -0.050 Br
HETATM   19  C   UNL     1     -12.142   2.089 -33.471  1.00  0.00     0.024 A 
HETATM   20  C   UNL     1     -11.183   1.077 -33.551  1.00  0.00     0.043 A 
ENDBRANCH  11  13
ENDBRANCH   5  11
BRANCH   2  21
HETATM   21  O   UNL     1      -3.572  -0.251 -32.634  1.00  0.00    -0.352 OA
HETATM   22  C   UNL     1      -3.768  -0.426 -31.228  1.00  0.00     0.210 C 
ENDBRANCH   2  21
BRANCH   1  23
HETATM   23  O   UNL     1      -3.703  -3.111 -33.354  1.00  0.00    -0.353 OA
HETATM   24  C   UNL     1      -3.845  -4.392 -33.958  1.00  0.00     0.210 C 
ENDBRANCH   1  23
TORSDOF 4
ENDMDL
MODEL 3
REMARK VINA RESULT:      -7.5      2.334      3.657
REMARK  4 active torsions:
REMARK  status: ('A' for Active; 'I' for Inactive)
REMARK    1  A    between atoms: O_2  and  C_3 
REMARK    2  A    between atoms: C_4  and  O_5 
REMARK    3  A    between atoms: C_9  and  N_10 
REMARK    4  A    between atoms: N_10  and  C_11 
ROOT
HETATM    1  C   UNL     1      -6.415  -0.689 -33.300  1.00  0.00     0.102 A 
HETATM    2  C   UNL     1      -7.102   0.073 -32.349  1.00  0.00     0.118 A 
HETATM    3  C   UNL     1      -8.082   0.946 -32.810  1.00  0.00     0.085 A 
HETATM    4  C   UNL     1      -8.372   1.106 -34.155  1.00  0.00     0.005 A 
HETATM    5  C   UNL     1      -9.448   2.107 -34.311  1.00  0.00     0.245 A 
HETATM    6  O   UNL     1      -9.738   2.503 -32.963  1.00  0.00    -0.291 OA
HETATM    7  C   UNL     1      -8.964   1.829 -32.055  1.00  0.00     0.298 A 
HETATM    8  O   UNL     1      -9.063   1.986 -30.858  1.00  0.00    -0.259 OA
HETATM    9  C   UNL     1      -7.670   0.393 -35.109  1.00  0.00     0.015 A 
HETATM   10  C   UNL     1      -6.689  -0.502 -34.672  1.00  0.00     0.040 A 
ENDROOT
BRANCH   5  11
HETATM   11  N   UNL     1     -10.629   1.527 -34.926  1.00  0.00    -0.248 NA
HETATM   12  H   UNL     1     -10.630   1.700 -35.930  1.00  0.00     0.132 HD
BRANCH  11  13
HETATM   13  C   UNL     1     -11.891   1.705 -34.368  1.00  0.00     0.082 A 
HETATM   14  N   UNL     1     -12.329   2.919 -33.985  1.00  0.00    -0.355 N 
HETATM   15  H   UNL     1     -11.707   3.716 -34.141  1.00  0.00     0.166 HD
HETATM   16  C   UNL     1     -13.501   3.131 -33.369  1.00  0.00     0.108 A 
HETATM   17  C   UNL     1     -14.328   2.059 -33.072  1.00  0.00     0.026 A 
HETATM   18 BR   UNL     1     -15.978   2.345 -32.208  1.00  0.00    -0.050 Br
HETATM   19  C   UNL     1     -13.915   0.776 -33.401  1.00  0.00     0.024 A 
HETATM   20  C   UNL     1     -12.683   0.598 -34.034  1.00  0.00     0.043 A 
ENDBRANCH  11  13
ENDBRANCH   5  11
BRANCH   2  21
HETATM   21  O   UNL     1      -6.876  -0.071 -31.013  1.00  0.00    -0.352 OA
HETATM   22  C   UNL     1      -5.751   0.691 -30.567  1.00  0.00     0.210 C 
ENDBRANCH   2  21
BRANCH   1  23
HETATM   23  O   UNL     1      -5.428  -1.609 -33.075  1.00  0.00    -0.353 OA
HETATM   24  C   UNL     1      -4.897  -2.294 -34.205  1.00  0.00     0.210 C 
ENDBRANCH   1  23
TORSDOF 4
ENDMDL
MODEL 4
REMARK VINA RESULT:      -7.4      3.403      4.909
REMARK  4 active torsions:
REMARK  status: ('A' for Active; 'I' for Inactive)
REMARK    1  A    between atoms: O_2  and  C_3 
REMARK    2  A    between atoms: C_4  and  O_5 
REMARK    3  A    between atoms: C_9  and  N_10 
REMARK    4  A    between atoms: N_10  and  C_11 
ROOT
HETATM    1  C   UNL     1      -5.443  -2.275 -34.224  1.00  0.00     0.102 A 
HETATM    2  C   UNL     1      -6.304  -1.406 -33.546  1.00  0.00     0.118 A 
HETATM    3  C   UNL     1      -5.790  -0.711 -32.455  1.00  0.00     0.085 A 
HETATM    4  C   UNL     1      -4.490  -0.872 -32.008  1.00  0.00     0.005 A 
HETATM    5  C   UNL     1      -4.261  -0.005 -30.834  1.00  0.00     0.245 A 
HETATM    6  O   UNL     1      -5.524   0.650 -30.648  1.00  0.00    -0.291 OA
HETATM    7  C   UNL     1      -6.441   0.269 -31.593  1.00  0.00     0.298 A 
HETATM    8  O   UNL     1      -7.564   0.720 -31.643  1.00  0.00    -0.259 OA
HETATM    9  C   UNL     1      -3.640  -1.762 -32.640  1.00  0.00     0.015 A 
HETATM   10  C   UNL     1      -4.127  -2.462 -33.747  1.00  0.00     0.040 A 
ENDROOT
BRANCH   5  11
HETATM   11  N   UNL     1      -3.223   0.977 -31.092  1.00  0.00    -0.248 NA
HETATM   12  H   UNL     1      -2.491   0.917 -30.386  1.00  0.00     0.132 HD
BRANCH  11  13
HETATM   13  C   UNL     1      -3.542   2.297 -31.396  1.00  0.00     0.082 A 
HETATM   14  N   UNL     1      -4.183   3.089 -30.516  1.00  0.00    -0.355 N 
HETATM   15  H   UNL     1      -4.409   2.693 -29.601  1.00  0.00     0.166 HD
HETATM   16  C   UNL     1      -4.585   4.340 -30.791  1.00  0.00     0.108 A 
HETATM   17  C   UNL     1      -4.365   4.875 -32.050  1.00  0.00     0.026 A 
HETATM   18 BR   UNL     1      -4.923   6.629 -32.447  1.00  0.00    -0.050 Br
HETATM   19  C   UNL     1      -3.748   4.093 -33.017  1.00  0.00     0.024 A 
HETATM   20  C   UNL     1      -3.352   2.794 -32.693  1.00  0.00     0.043 A 
ENDBRANCH  11  13
ENDBRANCH   5  11
BRANCH   2  21
HETATM   21  O   UNL     1      -7.582  -1.189 -33.965  1.00  0.00    -0.352 OA
HETATM   22  C   UNL     1      -7.650  -0.240 -35.033  1.00  0.00     0.210 C 
ENDBRANCH   2  21
BRANCH   1  23
HETATM   23  O   UNL     1      -5.728  -3.046 -35.318  1.00  0.00    -0.353 OA
HETATM   24  C   UNL     1      -6.317  -4.322 -35.089  1.00  0.00     0.210 C 
ENDBRANCH   1  23
TORSDOF 4
ENDMDL
MODEL 5
REMARK VINA RESULT:      -7.3      7.586      9.805
REMARK  4 active torsions:
REMARK  status: ('A' for Active; 'I' for Inactive)
REMARK    1  A    between atoms: O_2  and  C_3 
REMARK    2  A    between atoms: C_4  and  O_5 
REMARK    3  A    between atoms: C_9  and  N_10 
REMARK    4  A    between atoms: N_10  and  C_11 
ROOT
HETATM    1  C   UNL     1      -0.497   6.562 -29.023  1.00  0.00     0.102 A 
HETATM    2  C   UNL     1      -1.409   7.445 -29.610  1.00  0.00     0.118 A 
HETATM    3  C   UNL     1      -1.400   7.552 -30.997  1.00  0.00     0.085 A 
HETATM    4  C   UNL     1      -0.515   6.851 -31.799  1.00  0.00     0.005 A 
HETATM    5  C   UNL     1      -0.757   7.192 -33.216  1.00  0.00     0.245 A 
HETATM    6  O   UNL     1      -1.835   8.137 -33.156  1.00  0.00    -0.291 OA
HETATM    7  C   UNL     1      -2.247   8.360 -31.868  1.00  0.00     0.298 A 
HETATM    8  O   UNL     1      -3.164   9.099 -31.587  1.00  0.00    -0.259 OA
HETATM    9  C   UNL     1       0.423   6.008 -31.230  1.00  0.00     0.015 A 
HETATM   10  C   UNL     1       0.426   5.872 -29.839  1.00  0.00     0.040 A 
ENDROOT
BRANCH   5  11
HETATM   11  N   UNL     1      -1.158   6.025 -33.982  1.00  0.00    -0.248 NA
HETATM   12  H   UNL     1      -1.030   6.192 -34.979  1.00  0.00     0.132 HD
BRANCH  11  13
HETATM   13  C   UNL     1      -2.355   5.368 -33.716  1.00  0.00     0.082 A 
HETATM   14  N   UNL     1      -3.545   5.912 -34.032  1.00  0.00    -0.355 N 
HETATM   15  H   UNL     1      -3.539   6.822 -34.499  1.00  0.00     0.166 HD
HETATM   16  C   UNL     1      -4.727   5.357 -33.724  1.00  0.00     0.108 A 
HETATM   17  C   UNL     1      -4.766   4.164 -33.019  1.00  0.00     0.026 A 
HETATM   18 BR   UNL     1      -6.419   3.374 -32.582  1.00  0.00    -0.050 Br
HETATM   19  C   UNL     1      -3.574   3.573 -32.625  1.00  0.00     0.024 A 
HETATM   20  C   UNL     1      -2.365   4.188 -32.959  1.00  0.00     0.043 A 
ENDBRANCH  11  13
ENDBRANCH   5  11
BRANCH   2  21
HETATM   21  O   UNL     1      -2.322   8.133 -28.868  1.00  0.00    -0.352 OA
HETATM   22  C   UNL     1      -1.797   9.365 -28.366  1.00  0.00     0.210 C 
ENDBRANCH   2  21
BRANCH   1  23
HETATM   23  O   UNL     1      -0.337   6.292 -27.692  1.00  0.00    -0.353 OA
HETATM   24  C   UNL     1       0.708   6.972 -27.003  1.00  0.00     0.210 C 
ENDBRANCH   1  23
TORSDOF 4
ENDMDL
MODEL 6
REMARK VINA RESULT:      -7.2      3.895      7.275
REMARK  4 active torsions:
REMARK  status: ('A' for Active; 'I' for Inactive)
REMARK    1  A    between atoms: O_2  and  C_3 
REMARK    2  A    between atoms: C_4  and  O_5 
REMARK    3  A    between atoms: C_9  and  N_10 
REMARK    4  A    between atoms: N_10  and  C_11 
ROOT
HETATM    1  C   UNL     1     -11.169   2.133 -33.644  1.00  0.00     0.102 A 
HETATM    2  C   UNL     1     -10.211   3.143 -33.788  1.00  0.00     0.118 A 
HETATM    3  C   UNL     1      -8.871   2.771 -33.739  1.00  0.00     0.085 A 
HETATM    4  C   UNL     1      -8.462   1.466 -33.525  1.00  0.00     0.005 A 
HETATM    5  C   UNL     1      -6.985   1.408 -33.519  1.00  0.00     0.245 A 
HETATM    6  O   UNL     1      -6.593   2.770 -33.739  1.00  0.00    -0.291 OA
HETATM    7  C   UNL     1      -7.677   3.596 -33.888  1.00  0.00     0.298 A 
HETATM    8  O   UNL     1      -7.578   4.781 -34.112  1.00  0.00    -0.259 OA
HETATM    9  C   UNL     1      -9.396   0.464 -33.335  1.00  0.00     0.015 A 
HETATM   10  C   UNL     1     -10.750   0.808 -33.393  1.00  0.00     0.040 A 
ENDROOT
BRANCH   5  11
HETATM   11  N   UNL     1      -6.482   0.565 -34.589  1.00  0.00    -0.248 NA
HETATM   12  H   UNL     1      -7.173   0.485 -35.334  1.00  0.00     0.132 HD
BRANCH  11  13
HETATM   13  C   UNL     1      -5.871  -0.655 -34.316  1.00  0.00     0.082 A 
HETATM   14  N   UNL     1      -4.711  -0.727 -33.636  1.00  0.00    -0.355 N 
HETATM   15  H   UNL     1      -4.303   0.150 -33.304  1.00  0.00     0.166 HD
HETATM   16  C   UNL     1      -4.041  -1.869 -33.419  1.00  0.00     0.108 A 
HETATM   17  C   UNL     1      -4.529  -3.062 -33.927  1.00  0.00     0.026 A 
HETATM   18 BR   UNL     1      -3.599  -4.672 -33.626  1.00  0.00    -0.050 Br
HETATM   19  C   UNL     1      -5.698  -3.051 -34.675  1.00  0.00     0.024 A 
HETATM   20  C   UNL     1      -6.361  -1.839 -34.885  1.00  0.00     0.043 A 
ENDBRANCH  11  13
ENDBRANCH   5  11
BRANCH   2  21
HETATM   21  O   UNL     1     -10.563   4.436 -34.034  1.00  0.00    -0.352 OA
HETATM   22  C   UNL     1     -10.877   4.663 -35.410  1.00  0.00     0.210 C 
ENDBRANCH   2  21
BRANCH   1  23
HETATM   23  O   UNL     1     -12.530   2.266 -33.669  1.00  0.00    -0.353 OA
HETATM   24  C   UNL     1     -13.283   1.209 -34.255  1.00  0.00     0.210 C 
ENDBRANCH   1  23
TORSDOF 4
ENDMDL
MODEL 7
REMARK VINA RESULT:      -7.1      4.692      6.395
REMARK  4 active torsions:
REMARK  status: ('A' for Active; 'I' for Inactive)
REMARK    1  A    between atoms: O_2  and  C_3 
REMARK    2  A    between atoms: C_4  and  O_5 
REMARK    3  A    between atoms: C_9  and  N_10 
REMARK    4  A    between atoms: N_10  and  C_11 
ROOT
HETATM    1  C   UNL     1      -4.128  -1.621 -32.757  1.00  0.00     0.102 A 
HETATM    2  C   UNL     1      -5.386  -1.042 -32.959  1.00  0.00     0.118 A 
HETATM    3  C   UNL     1      -5.505   0.328 -32.746  1.00  0.00     0.085 A 
HETATM    4  C   UNL     1      -4.450   1.116 -32.319  1.00  0.00     0.005 A 
HETATM    5  C   UNL     1      -4.904   2.515 -32.181  1.00  0.00     0.245 A 
HETATM    6  O   UNL     1      -6.289   2.458 -32.554  1.00  0.00    -0.291 OA
HETATM    7  C   UNL     1      -6.671   1.190 -32.906  1.00  0.00     0.298 A 
HETATM    8  O   UNL     1      -7.789   0.918 -33.283  1.00  0.00    -0.259 OA
HETATM    9  C   UNL     1      -3.212   0.550 -32.073  1.00  0.00     0.015 A 
HETATM   10  C   UNL     1      -3.061  -0.822 -32.292  1.00  0.00     0.040 A 
ENDROOT
BRANCH   5  11
HETATM   11  N   UNL     1      -4.182   3.400 -33.079  1.00  0.00    -0.248 NA
HETATM   12  H   UNL     1      -4.034   2.949 -33.980  1.00  0.00     0.132 HD
BRANCH  11  13
HETATM   13  C   UNL     1      -3.052   4.090 -32.651  1.00  0.00     0.082 A 
HETATM   14  N   UNL     1      -2.757   4.221 -31.344  1.00  0.00    -0.355 N 
HETATM   15  H   UNL     1      -3.383   3.774 -30.672  1.00  0.00     0.166 HD
HETATM   16  C   UNL     1      -1.727   4.945 -30.880  1.00  0.00     0.108 A 
HETATM   17  C   UNL     1      -0.909   5.629 -31.765  1.00  0.00     0.026 A 
HETATM   18 BR   UNL     1       0.542   6.645 -31.125  1.00  0.00    -0.050 Br
HETATM   19  C   UNL     1      -1.185   5.570 -33.124  1.00  0.00     0.024 A 
HETATM   20  C   UNL     1      -2.272   4.812 -33.566  1.00  0.00     0.043 A 
ENDBRANCH  11  13
ENDBRANCH   5  11
BRANCH   2  21
HETATM   21  O   UNL     1      -6.447  -1.768 -33.409  1.00  0.00    -0.352 OA
HETATM   22  C   UNL     1      -6.410  -1.964 -34.825  1.00  0.00     0.210 C 
ENDBRANCH   2  21
BRANCH   1  23
HETATM   23  O   UNL     1      -3.780  -2.935 -32.915  1.00  0.00    -0.353 OA
HETATM   24  C   UNL     1      -3.021  -3.543 -31.875  1.00  0.00     0.210 C 
ENDBRANCH   1  23
TORSDOF 4
ENDMDL
MODEL 8
REMARK VINA RESULT:      -6.9     13.853     15.343
REMARK  4 active torsions:
REMARK  status: ('A' for Active; 'I' for Inactive)
REMARK    1  A    between atoms: O_2  and  C_3 
REMARK    2  A    between atoms: C_4  and  O_5 
REMARK    3  A    between atoms: C_9  and  N_10 
REMARK    4  A    between atoms: N_10  and  C_11 
ROOT
HETATM    1  C   UNL     1      -0.343 -14.436 -39.450  1.00  0.00     0.102 A 
HETATM    2  C   UNL     1      -1.478 -15.254 -39.474  1.00  0.00     0.118 A 
HETATM    3  C   UNL     1      -2.616 -14.796 -38.818  1.00  0.00     0.085 A 
HETATM    4  C   UNL     1      -2.653 -13.596 -38.128  1.00  0.00     0.005 A 
HETATM    5  C   UNL     1      -3.995 -13.406 -37.540  1.00  0.00     0.245 A 
HETATM    6  O   UNL     1      -4.708 -14.585 -37.941  1.00  0.00    -0.291 OA
HETATM    7  C   UNL     1      -3.931 -15.416 -38.705  1.00  0.00     0.298 A 
HETATM    8  O   UNL     1      -4.341 -16.454 -39.176  1.00  0.00    -0.259 OA
HETATM    9  C   UNL     1      -1.526 -12.797 -38.058  1.00  0.00     0.015 A 
HETATM   10  C   UNL     1      -0.373 -13.227 -38.720  1.00  0.00     0.040 A 
ENDROOT
BRANCH   5  11
HETATM   11  N   UNL     1      -4.647 -12.223 -38.073  1.00  0.00    -0.248 NA
HETATM   12  H   UNL     1      -4.524 -11.433 -37.441  1.00  0.00     0.132 HD
BRANCH  11  13
HETATM   13  C   UNL     1      -5.941 -12.284 -38.582  1.00  0.00     0.082 A 
HETATM   14  N   UNL     1      -6.997 -12.564 -37.796  1.00  0.00    -0.355 N 
HETATM   15  H   UNL     1      -6.818 -12.709 -36.799  1.00  0.00     0.166 HD
HETATM   16  C   UNL     1      -8.250 -12.714 -38.252  1.00  0.00     0.108 A 
HETATM   17  C   UNL     1      -8.508 -12.603 -39.609  1.00  0.00     0.026 A 
HETATM   18 BR   UNL     1     -10.263 -12.810 -40.261  1.00  0.00    -0.050 Br
HETATM   19  C   UNL     1      -7.455 -12.358 -40.479  1.00  0.00     0.024 A 
HETATM   20  C   UNL     1      -6.164 -12.217 -39.964  1.00  0.00     0.043 A 
ENDBRANCH  11  13
ENDBRANCH   5  11
BRANCH   2  21
HETATM   21  O   UNL     1      -1.503 -16.428 -40.165  1.00  0.00    -0.352 OA
HETATM   22  C   UNL     1      -1.697 -16.230 -41.568  1.00  0.00     0.210 C 
ENDBRANCH   2  21
BRANCH   1  23
HETATM   23  O   UNL     1       0.871 -14.678 -40.031  1.00  0.00    -0.353 OA
HETATM   24  C   UNL     1       1.931 -15.109 -39.183  1.00  0.00     0.210 C 
ENDBRANCH   1  23
TORSDOF 4
ENDMDL
MODEL 9
REMARK VINA RESULT:      -6.9     13.770     14.785
REMARK  4 active torsions:
REMARK  status: ('A' for Active; 'I' for Inactive)
REMARK    1  A    between atoms: O_2  and  C_3 
REMARK    2  A    between atoms: C_4  and  O_5 
REMARK    3  A    between atoms: C_9  and  N_10 
REMARK    4  A    between atoms: N_10  and  C_11 
ROOT
HETATM    1  C   UNL     1      -0.331 -14.762 -37.433  1.00  0.00     0.102 A 
HETATM    2  C   UNL     1      -1.434 -14.455 -36.630  1.00  0.00     0.118 A 
HETATM    3  C   UNL     1      -2.392 -13.592 -37.155  1.00  0.00     0.085 A 
HETATM    4  C   UNL     1      -2.276 -13.015 -38.408  1.00  0.00     0.005 A 
HETATM    5  C   UNL     1      -3.446 -12.149 -38.662  1.00  0.00     0.245 A 
HETATM    6  O   UNL     1      -4.224 -12.275 -37.464  1.00  0.00    -0.291 OA
HETATM    7  C   UNL     1      -3.641 -13.127 -36.563  1.00  0.00     0.298 A 
HETATM    8  O   UNL     1      -4.142 -13.403 -35.496  1.00  0.00    -0.259 OA
HETATM    9  C   UNL     1      -1.168 -13.274 -39.195  1.00  0.00     0.015 A 
HETATM   10  C   UNL     1      -0.198 -14.148 -38.697  1.00  0.00     0.040 A 
ENDROOT
BRANCH   5  11
HETATM   11  N   UNL     1      -4.211 -12.612 -39.806  1.00  0.00    -0.248 NA
HETATM   12  H   UNL     1      -3.916 -12.127 -40.652  1.00  0.00     0.132 HD
BRANCH  11  13
HETATM   13  C   UNL     1      -5.595 -12.743 -39.739  1.00  0.00     0.082 A 
HETATM   14  N   UNL     1      -6.180 -13.657 -38.941  1.00  0.00    -0.355 N 
HETATM   15  H   UNL     1      -5.569 -14.241 -38.365  1.00  0.00     0.166 HD
HETATM   16  C   UNL     1      -7.503 -13.878 -38.902  1.00  0.00     0.108 A 
HETATM   17  C   UNL     1      -8.347 -13.157 -39.732  1.00  0.00     0.026 A 
HETATM   18 BR   UNL     1     -10.206 -13.457 -39.685  1.00  0.00    -0.050 Br
HETATM   19  C   UNL     1      -7.803 -12.230 -40.610  1.00  0.00     0.024 A 
HETATM   20  C   UNL     1      -6.420 -12.036 -40.625  1.00  0.00     0.043 A 
ENDBRANCH  11  13
ENDBRANCH   5  11
BRANCH   2  21
HETATM   21  O   UNL     1      -1.611 -15.022 -35.404  1.00  0.00    -0.352 OA
HETATM   22  C   UNL     1      -2.166 -16.337 -35.488  1.00  0.00     0.210 C 
ENDBRANCH   2  21
BRANCH   1  23
HETATM   23  O   UNL     1       0.718 -15.587 -37.128  1.00  0.00    -0.353 OA
HETATM   24  C   UNL     1       1.826 -15.599 -38.022  1.00  0.00     0.210 C 
ENDBRANCH   1  23
TORSDOF 4
ENDMDL
MODEL 10
REMARK VINA RESULT:      -6.9      4.270      7.913
REMARK  4 active torsions:
REMARK  status: ('A' for Active; 'I' for Inactive)
REMARK    1  A    between atoms: O_2  and  C_3 
REMARK    2  A    between atoms: C_4  and  O_5 
REMARK    3  A    between atoms: C_9  and  N_10 
REMARK    4  A    between atoms: N_10  and  C_11 
ROOT
HETATM    1  C   UNL     1     -13.212   1.405 -34.296  1.00  0.00     0.102 A 
HETATM    2  C   UNL     1     -12.358   2.483 -34.554  1.00  0.00     0.118 A 
HETATM    3  C   UNL     1     -11.008   2.320 -34.259  1.00  0.00     0.085 A 
HETATM    4  C   UNL     1     -10.496   1.161 -33.699  1.00  0.00     0.005 A 
HETATM    5  C   UNL     1      -9.040   1.310 -33.502  1.00  0.00     0.245 A 
HETATM    6  O   UNL     1      -8.769   2.634 -33.984  1.00  0.00    -0.291 OA
HETATM    7  C   UNL     1      -9.901   3.250 -34.449  1.00  0.00     0.298 A 
HETATM    8  O   UNL     1      -9.898   4.362 -34.929  1.00  0.00    -0.259 OA
HETATM    9  C   UNL     1     -11.335   0.104 -33.396  1.00  0.00     0.015 A 
HETATM   10  C   UNL     1     -12.694   0.236 -33.696  1.00  0.00     0.040 A 
ENDROOT
BRANCH   5  11
HETATM   11  N   UNL     1      -8.295   0.335 -34.278  1.00  0.00    -0.248 NA
HETATM   12  H   UNL     1      -8.931  -0.325 -34.725  1.00  0.00     0.132 HD
BRANCH  11  13
HETATM   13  C   UNL     1      -7.176  -0.301 -33.750  1.00  0.00     0.082 A 
HETATM   14  N   UNL     1      -6.699   0.007 -32.529  1.00  0.00    -0.355 N 
HETATM   15  H   UNL     1      -7.204   0.714 -31.989  1.00  0.00     0.166 HD
HETATM   16  C   UNL     1      -5.578  -0.517 -32.010  1.00  0.00     0.108 A 
HETATM   17  C   UNL     1      -4.829  -1.416 -32.752  1.00  0.00     0.026 A 
HETATM   18 BR   UNL     1      -3.255  -2.160 -32.033  1.00  0.00    -0.050 Br
HETATM   19  C   UNL     1      -5.243  -1.743 -34.036  1.00  0.00     0.024 A 
HETATM   20  C   UNL     1      -6.411  -1.168 -34.542  1.00  0.00     0.043 A 
ENDBRANCH  11  13
ENDBRANCH   5  11
BRANCH   2  21
HETATM   21  O   UNL     1     -12.806   3.631 -35.134  1.00  0.00    -0.352 OA
HETATM   22  C   UNL     1     -13.255   4.587 -34.170  1.00  0.00     0.210 C 
ENDBRANCH   2  21
BRANCH   1  23
HETATM   23  O   UNL     1     -14.560   1.339 -34.515  1.00  0.00    -0.353 OA
HETATM   24  C   UNL     1     -15.417   1.459 -33.384  1.00  0.00     0.210 C 
ENDBRANCH   1  23
TORSDOF 4
ENDMDL
