MODEL 1
REMARK VINA RESULT:      -8.4      0.000      0.000
REMARK  5 active torsions:
REMARK  status: ('A' for Active; 'I' for Inactive)
REMARK    1  A    between atoms: C_4  and  C_5 
REMARK    2  A    between atoms: C_5  and  C_6 
REMARK    3  A    between atoms: C_6  and  C_7 
REMARK       I    between atoms: C_7  and  N_8 
REMARK    4  A    between atoms: N_8  and  C_9 
REMARK    5  A    between atoms: C_11  and  C_12 
ROOT
HETATM    1  C   UNL     1      -5.789   0.710 -33.585  1.00  0.00     0.035 A 
HETATM    2  C   UNL     1      -5.419  -0.636 -33.671  1.00  0.00     0.042 A 
HETATM    3  C   UNL     1      -6.136  -1.542 -34.474  1.00  0.00    -0.021 A 
HETATM    4  C   UNL     1      -7.239  -1.066 -35.195  1.00  0.00     0.012 A 
HETATM    5  C   UNL     1      -7.615   0.275 -35.121  1.00  0.00     0.003 A 
HETATM    6  C   UNL     1      -6.892   1.158 -34.320  1.00  0.00     0.029 A 
ENDROOT
BRANCH   1   7
HETATM    7  N   UNL     1      -5.124   1.662 -32.788  1.00  0.00    -0.327 N 
HETATM    8  C   UNL     1      -5.581   2.284 -31.643  1.00  0.00     0.222 C 
HETATM    9  O   UNL     1      -6.653   2.090 -31.077  1.00  0.00    -0.273 OA
HETATM   10  H   UNL     1      -4.175   1.895 -33.068  1.00  0.00     0.169 HD
BRANCH   8  11
HETATM   11  C   UNL     1      -4.599   3.301 -31.089  1.00  0.00     0.110 C 
BRANCH  11  12
HETATM   12  C   UNL     1      -3.153   2.909 -31.363  1.00  0.00     0.074 C 
BRANCH  12  13
HETATM   13  C   UNL     1      -2.300   3.990 -31.935  1.00  0.00     0.053 A 
HETATM   14  O   UNL     1      -1.344   4.545 -31.133  1.00  0.00    -0.320 OA
HETATM   15  C   UNL     1      -0.698   5.490 -31.872  1.00  0.00     0.049 A 
HETATM   16  C   UNL     1       0.390   6.230 -31.201  1.00  0.00     0.076 C 
HETATM   17  C   UNL     1      -1.227   5.542 -33.143  1.00  0.00     0.035 A 
HETATM   18  C   UNL     1      -2.260   4.576 -33.184  1.00  0.00     0.035 A 
ENDBRANCH  12  13
ENDBRANCH  11  12
ENDBRANCH   8  11
ENDBRANCH   1   7
BRANCH   3  19
HETATM   19  C   UNL     1      -5.751  -2.946 -34.568  1.00  0.00     0.010 A 
HETATM   20  C   UNL     1      -6.464  -4.074 -35.045  1.00  0.00     0.152 A 
HETATM   21  N   UNL     1      -5.766  -5.210 -34.963  1.00  0.00    -0.187 NA
HETATM   22  N   UNL     1      -4.596  -4.816 -34.435  1.00  0.00    -0.289 N 
HETATM   23  H   UNL     1      -3.880  -5.516 -34.274  1.00  0.00     0.188 HD
HETATM   24  C   UNL     1      -4.540  -3.478 -34.176  1.00  0.00     0.123 A 
ENDBRANCH   3  19
TORSDOF 5
ENDMDL
MODEL 2
REMARK VINA RESULT:      -7.6      4.145      7.749
REMARK  5 active torsions:
REMARK  status: ('A' for Active; 'I' for Inactive)
REMARK    1  A    between atoms: C_4  and  C_5 
REMARK    2  A    between atoms: C_5  and  C_6 
REMARK    3  A    between atoms: C_6  and  C_7 
REMARK       I    between atoms: C_7  and  N_8 
REMARK    4  A    between atoms: N_8  and  C_9 
REMARK    5  A    between atoms: C_11  and  C_12 
ROOT
HETATM    1  C   UNL     1      -7.397   0.681 -34.257  1.00  0.00     0.035 A 
HETATM    2  C   UNL     1      -7.297  -0.683 -34.555  1.00  0.00     0.042 A 
HETATM    3  C   UNL     1      -6.161  -1.429 -34.192  1.00  0.00    -0.021 A 
HETATM    4  C   UNL     1      -5.120  -0.775 -33.518  1.00  0.00     0.012 A 
HETATM    5  C   UNL     1      -5.212   0.583 -33.212  1.00  0.00     0.003 A 
HETATM    6  C   UNL     1      -6.346   1.306 -33.579  1.00  0.00     0.029 A 
ENDROOT
BRANCH   1   7
HETATM    7  N   UNL     1      -8.499   1.486 -34.606  1.00  0.00    -0.327 N 
HETATM    8  C   UNL     1      -9.640   1.736 -33.870  1.00  0.00     0.222 C 
HETATM    9  O   UNL     1      -9.891   1.329 -32.739  1.00  0.00    -0.273 OA
HETATM   10  H   UNL     1      -8.432   1.973 -35.496  1.00  0.00     0.169 HD
BRANCH   8  11
HETATM   11  C   UNL     1     -10.639   2.613 -34.603  1.00  0.00     0.110 C 
BRANCH  11  12
HETATM   12  C   UNL     1     -11.736   1.796 -35.273  1.00  0.00     0.074 C 
BRANCH  12  13
HETATM   13  C   UNL     1     -12.931   1.524 -34.425  1.00  0.00     0.053 A 
HETATM   14  O   UNL     1     -13.386   2.525 -33.615  1.00  0.00    -0.320 OA
HETATM   15  C   UNL     1     -14.477   2.045 -32.955  1.00  0.00     0.049 A 
HETATM   16  C   UNL     1     -15.142   2.966 -32.013  1.00  0.00     0.076 C 
HETATM   17  C   UNL     1     -14.730   0.747 -33.339  1.00  0.00     0.035 A 
HETATM   18  C   UNL     1     -13.733   0.410 -34.285  1.00  0.00     0.035 A 
ENDBRANCH  12  13
ENDBRANCH  11  12
ENDBRANCH   8  11
ENDBRANCH   1   7
BRANCH   3  19
HETATM   19  C   UNL     1      -6.053  -2.851 -34.500  1.00  0.00     0.010 A 
HETATM   20  C   UNL     1      -4.930  -3.714 -34.519  1.00  0.00     0.152 A 
HETATM   21  N   UNL     1      -5.237  -4.969 -34.859  1.00  0.00    -0.187 NA
HETATM   22  N   UNL     1      -6.564  -4.919 -35.056  1.00  0.00    -0.289 N 
HETATM   23  H   UNL     1      -7.043  -5.771 -35.328  1.00  0.00     0.188 HD
HETATM   24  C   UNL     1      -7.097  -3.678 -34.861  1.00  0.00     0.123 A 
ENDBRANCH   3  19
TORSDOF 5
ENDMDL
MODEL 3
REMARK VINA RESULT:      -7.5     14.944     16.301
REMARK  5 active torsions:
REMARK  status: ('A' for Active; 'I' for Inactive)
REMARK    1  A    between atoms: C_4  and  C_5 
REMARK    2  A    between atoms: C_5  and  C_6 
REMARK    3  A    between atoms: C_6  and  C_7 
REMARK       I    between atoms: C_7  and  N_8 
REMARK    4  A    between atoms: N_8  and  C_9 
REMARK    5  A    between atoms: C_11  and  C_12 
ROOT
HETATM    1  C   UNL     1      -6.004 -12.553 -38.377  1.00  0.00     0.035 A 
HETATM    2  C   UNL     1      -7.374 -12.716 -38.613  1.00  0.00     0.042 A 
HETATM    3  C   UNL     1      -7.912 -12.604 -39.908  1.00  0.00    -0.021 A 
HETATM    4  C   UNL     1      -7.042 -12.325 -40.970  1.00  0.00     0.012 A 
HETATM    5  C   UNL     1      -5.674 -12.165 -40.748  1.00  0.00     0.003 A 
HETATM    6  C   UNL     1      -5.159 -12.280 -39.458  1.00  0.00     0.029 A 
ENDROOT
BRANCH   1   7
HETATM    7  N   UNL     1      -5.407 -12.637 -37.105  1.00  0.00    -0.327 N 
HETATM    8  C   UNL     1      -5.024 -13.770 -36.415  1.00  0.00     0.222 C 
HETATM    9  O   UNL     1      -5.099 -14.931 -36.807  1.00  0.00    -0.273 OA
HETATM   10  H   UNL     1      -5.197 -11.752 -36.650  1.00  0.00     0.169 HD
BRANCH   8  11
HETATM   11  C   UNL     1      -4.463 -13.465 -35.037  1.00  0.00     0.110 C 
BRANCH  11  12
HETATM   12  C   UNL     1      -5.561 -13.168 -34.024  1.00  0.00     0.074 C 
BRANCH  12  13
HETATM   13  C   UNL     1      -5.996 -14.332 -33.200  1.00  0.00     0.053 A 
HETATM   14  O   UNL     1      -5.262 -14.642 -32.091  1.00  0.00    -0.320 OA
HETATM   15  C   UNL     1      -5.853 -15.722 -31.507  1.00  0.00     0.049 A 
HETATM   16  C   UNL     1      -5.223 -16.239 -30.276  1.00  0.00     0.076 C 
HETATM   17  C   UNL     1      -6.963 -16.103 -32.228  1.00  0.00     0.035 A 
HETATM   18  C   UNL     1      -7.055 -15.208 -33.320  1.00  0.00     0.035 A 
ENDBRANCH  12  13
ENDBRANCH  11  12
ENDBRANCH   8  11
ENDBRANCH   1   7
BRANCH   3  19
HETATM   19  C   UNL     1      -9.339 -12.775 -40.157  1.00  0.00     0.010 A 
HETATM   20  C   UNL     1     -10.138 -13.944 -40.213  1.00  0.00     0.152 A 
HETATM   21  N   UNL     1     -11.423 -13.690 -40.474  1.00  0.00    -0.187 NA
HETATM   22  N   UNL     1     -11.457 -12.353 -40.583  1.00  0.00    -0.289 N 
HETATM   23  H   UNL     1     -12.347 -11.908 -40.782  1.00  0.00     0.188 HD
HETATM   24  C   UNL     1     -10.240 -11.761 -40.408  1.00  0.00     0.123 A 
ENDBRANCH   3  19
TORSDOF 5
ENDMDL
MODEL 4
REMARK VINA RESULT:      -7.4      3.063      8.614
REMARK  5 active torsions:
REMARK  status: ('A' for Active; 'I' for Inactive)
REMARK    1  A    between atoms: C_4  and  C_5 
REMARK    2  A    between atoms: C_5  and  C_6 
REMARK    3  A    between atoms: C_6  and  C_7 
REMARK       I    between atoms: C_7  and  N_8 
REMARK    4  A    between atoms: N_8  and  C_9 
REMARK    5  A    between atoms: C_11  and  C_12 
ROOT
HETATM    1  C   UNL     1      -3.000   4.099 -32.788  1.00  0.00     0.035 A 
HETATM    2  C   UNL     1      -2.329   4.343 -31.585  1.00  0.00     0.042 A 
HETATM    3  C   UNL     1      -1.209   5.192 -31.531  1.00  0.00    -0.021 A 
HETATM    4  C   UNL     1      -0.772   5.798 -32.717  1.00  0.00     0.012 A 
HETATM    5  C   UNL     1      -1.436   5.565 -33.922  1.00  0.00     0.003 A 
HETATM    6  C   UNL     1      -2.545   4.721 -33.956  1.00  0.00     0.029 A 
ENDROOT
BRANCH   1   7
HETATM    7  N   UNL     1      -4.116   3.249 -32.912  1.00  0.00    -0.327 N 
HETATM    8  C   UNL     1      -4.221   1.922 -32.544  1.00  0.00     0.222 C 
HETATM    9  O   UNL     1      -3.361   1.239 -31.996  1.00  0.00    -0.273 OA
HETATM   10  H   UNL     1      -4.962   3.672 -33.285  1.00  0.00     0.169 HD
BRANCH   8  11
HETATM   11  C   UNL     1      -5.571   1.317 -32.887  1.00  0.00     0.110 C 
BRANCH  11  12
HETATM   12  C   UNL     1      -5.738  -0.080 -32.305  1.00  0.00     0.074 C 
BRANCH  12  13
HETATM   13  C   UNL     1      -5.609  -1.196 -33.285  1.00  0.00     0.053 A 
HETATM   14  O   UNL     1      -4.618  -2.115 -33.085  1.00  0.00    -0.320 OA
HETATM   15  C   UNL     1      -4.707  -3.028 -34.092  1.00  0.00     0.049 A 
HETATM   16  C   UNL     1      -3.723  -4.128 -34.080  1.00  0.00     0.076 C 
HETATM   17  C   UNL     1      -5.750  -2.707 -34.932  1.00  0.00     0.035 A 
HETATM   18  C   UNL     1      -6.331  -1.526 -34.413  1.00  0.00     0.035 A 
ENDBRANCH  12  13
ENDBRANCH  11  12
ENDBRANCH   8  11
ENDBRANCH   1   7
BRANCH   3  19
HETATM   19  C   UNL     1      -0.509   5.450 -30.277  1.00  0.00     0.010 A 
HETATM   20  C   UNL     1      -0.726   6.431 -29.278  1.00  0.00     0.152 A 
HETATM   21  N   UNL     1       0.140   6.348 -28.264  1.00  0.00    -0.187 NA
HETATM   22  N   UNL     1       0.917   5.308 -28.605  1.00  0.00    -0.289 N 
HETATM   23  H   UNL     1       1.667   5.040 -27.977  1.00  0.00     0.188 HD
HETATM   24  C   UNL     1       0.575   4.743 -29.799  1.00  0.00     0.123 A 
ENDBRANCH   3  19
TORSDOF 5
ENDMDL
MODEL 5
REMARK VINA RESULT:      -7.4      1.625      2.727
REMARK  5 active torsions:
REMARK  status: ('A' for Active; 'I' for Inactive)
REMARK    1  A    between atoms: C_4  and  C_5 
REMARK    2  A    between atoms: C_5  and  C_6 
REMARK    3  A    between atoms: C_6  and  C_7 
REMARK       I    between atoms: C_7  and  N_8 
REMARK    4  A    between atoms: N_8  and  C_9 
REMARK    5  A    between atoms: C_11  and  C_12 
ROOT
HETATM    1  C   UNL     1      -5.307   1.897 -32.390  1.00  0.00     0.035 A 
HETATM    2  C   UNL     1      -5.191   0.744 -33.173  1.00  0.00     0.042 A 
HETATM    3  C   UNL     1      -5.955  -0.405 -32.901  1.00  0.00    -0.021 A 
HETATM    4  C   UNL     1      -6.846  -0.373 -31.819  1.00  0.00     0.012 A 
HETATM    5  C   UNL     1      -6.973   0.773 -31.034  1.00  0.00     0.003 A 
HETATM    6  C   UNL     1      -6.207   1.902 -31.320  1.00  0.00     0.029 A 
ENDROOT
BRANCH   1   7
HETATM    7  N   UNL     1      -4.559   3.073 -32.601  1.00  0.00    -0.327 N 
HETATM    8  C   UNL     1      -3.344   3.421 -32.046  1.00  0.00     0.222 C 
HETATM    9  O   UNL     1      -2.660   2.742 -31.286  1.00  0.00    -0.273 OA
HETATM   10  H   UNL     1      -4.943   3.733 -33.272  1.00  0.00     0.169 HD
BRANCH   8  11
HETATM   11  C   UNL     1      -2.873   4.801 -32.469  1.00  0.00     0.110 C 
BRANCH  11  12
HETATM   12  C   UNL     1      -1.361   4.864 -32.641  1.00  0.00     0.074 C 
BRANCH  12  13
HETATM   13  C   UNL     1      -0.641   5.689 -31.630  1.00  0.00     0.053 A 
HETATM   14  O   UNL     1      -0.511   5.187 -30.366  1.00  0.00    -0.320 OA
HETATM   15  C   UNL     1       0.182   6.106 -29.637  1.00  0.00     0.049 A 
HETATM   16  C   UNL     1       0.444   5.772 -28.223  1.00  0.00     0.076 C 
HETATM   17  C   UNL     1       0.503   7.190 -30.423  1.00  0.00     0.035 A 
HETATM   18  C   UNL     1      -0.027   6.922 -31.707  1.00  0.00     0.035 A 
ENDBRANCH  12  13
ENDBRANCH  11  12
ENDBRANCH   8  11
ENDBRANCH   1   7
BRANCH   3  19
HETATM   19  C   UNL     1      -5.839  -1.608 -33.717  1.00  0.00     0.010 A 
HETATM   20  C   UNL     1      -4.701  -2.349 -34.121  1.00  0.00     0.152 A 
HETATM   21  N   UNL     1      -5.004  -3.406 -34.881  1.00  0.00    -0.187 NA
HETATM   22  N   UNL     1      -6.342  -3.351 -34.966  1.00  0.00    -0.289 N 
HETATM   23  H   UNL     1      -6.822  -4.066 -35.503  1.00  0.00     0.188 HD
HETATM   24  C   UNL     1      -6.888  -2.295 -34.295  1.00  0.00     0.123 A 
ENDBRANCH   3  19
TORSDOF 5
ENDMDL
MODEL 6
REMARK VINA RESULT:      -7.2     15.345     16.392
REMARK  5 active torsions:
REMARK  status: ('A' for Active; 'I' for Inactive)
REMARK    1  A    between atoms: C_4  and  C_5 
REMARK    2  A    between atoms: C_5  and  C_6 
REMARK    3  A    between atoms: C_6  and  C_7 
REMARK       I    between atoms: C_7  and  N_8 
REMARK    4  A    between atoms: N_8  and  C_9 
REMARK    5  A    between atoms: C_11  and  C_12 
ROOT
HETATM    1  C   UNL     1      -5.590 -13.409 -38.794  1.00  0.00     0.035 A 
HETATM    2  C   UNL     1      -6.976 -13.518 -38.942  1.00  0.00     0.042 A 
HETATM    3  C   UNL     1      -7.659 -12.836 -39.966  1.00  0.00    -0.021 A 
HETATM    4  C   UNL     1      -6.916 -12.036 -40.845  1.00  0.00     0.012 A 
HETATM    5  C   UNL     1      -5.532 -11.923 -40.709  1.00  0.00     0.003 A 
HETATM    6  C   UNL     1      -4.873 -12.607 -39.689  1.00  0.00     0.029 A 
ENDROOT
BRANCH   1   7
HETATM    7  N   UNL     1      -4.851 -14.052 -37.782  1.00  0.00    -0.327 N 
HETATM    8  C   UNL     1      -4.170 -13.478 -36.726  1.00  0.00     0.222 C 
HETATM    9  O   UNL     1      -4.115 -12.283 -36.449  1.00  0.00    -0.273 OA
HETATM   10  H   UNL     1      -4.847 -15.068 -37.808  1.00  0.00     0.169 HD
BRANCH   8  11
HETATM   11  C   UNL     1      -3.439 -14.495 -35.868  1.00  0.00     0.110 C 
BRANCH  11  12
HETATM   12  C   UNL     1      -1.959 -14.578 -36.215  1.00  0.00     0.074 C 
BRANCH  12  13
HETATM   13  C   UNL     1      -1.625 -14.315 -37.644  1.00  0.00     0.053 A 
HETATM   14  O   UNL     1      -2.047 -15.217 -38.578  1.00  0.00    -0.320 OA
HETATM   15  C   UNL     1      -1.635 -14.760 -39.793  1.00  0.00     0.049 A 
HETATM   16  C   UNL     1      -1.983 -15.585 -40.967  1.00  0.00     0.076 C 
HETATM   17  C   UNL     1      -0.958 -13.569 -39.647  1.00  0.00     0.035 A 
HETATM   18  C   UNL     1      -0.950 -13.283 -38.262  1.00  0.00     0.035 A 
ENDBRANCH  12  13
ENDBRANCH  11  12
ENDBRANCH   8  11
ENDBRANCH   1   7
BRANCH   3  19
HETATM   19  C   UNL     1      -9.104 -12.950 -40.126  1.00  0.00     0.010 A 
HETATM   20  C   UNL     1      -9.952 -14.086 -40.120  1.00  0.00     0.152 A 
HETATM   21  N   UNL     1     -11.240 -13.781 -40.304  1.00  0.00    -0.187 NA
HETATM   22  N   UNL     1     -11.226 -12.444 -40.426  1.00  0.00    -0.289 N 
HETATM   23  H   UNL     1     -12.108 -11.964 -40.575  1.00  0.00     0.188 HD
HETATM   24  C   UNL     1      -9.977 -11.902 -40.333  1.00  0.00     0.123 A 
ENDBRANCH   3  19
TORSDOF 5
ENDMDL
MODEL 7
REMARK VINA RESULT:      -7.1      2.460      3.684
REMARK  5 active torsions:
REMARK  status: ('A' for Active; 'I' for Inactive)
REMARK    1  A    between atoms: C_4  and  C_5 
REMARK    2  A    between atoms: C_5  and  C_6 
REMARK    3  A    between atoms: C_6  and  C_7 
REMARK       I    between atoms: C_7  and  N_8 
REMARK    4  A    between atoms: N_8  and  C_9 
REMARK    5  A    between atoms: C_11  and  C_12 
ROOT
HETATM    1  C   UNL     1      -5.714   0.481 -33.547  1.00  0.00     0.035 A 
HETATM    2  C   UNL     1      -5.278  -0.848 -33.593  1.00  0.00     0.042 A 
HETATM    3  C   UNL     1      -5.919  -1.801 -34.405  1.00  0.00    -0.021 A 
HETATM    4  C   UNL     1      -7.015  -1.390 -35.177  1.00  0.00     0.012 A 
HETATM    5  C   UNL     1      -7.455  -0.067 -35.143  1.00  0.00     0.003 A 
HETATM    6  C   UNL     1      -6.807   0.863 -34.332  1.00  0.00     0.029 A 
ENDROOT
BRANCH   1   7
HETATM    7  N   UNL     1      -5.126   1.477 -32.743  1.00  0.00    -0.327 N 
HETATM    8  C   UNL     1      -5.128   1.572 -31.365  1.00  0.00     0.222 C 
HETATM    9  O   UNL     1      -5.616   0.772 -30.573  1.00  0.00    -0.273 OA
HETATM   10  H   UNL     1      -4.604   2.197 -33.235  1.00  0.00     0.169 HD
BRANCH   8  11
HETATM   11  C   UNL     1      -4.436   2.824 -30.857  1.00  0.00     0.110 C 
BRANCH  11  12
HETATM   12  C   UNL     1      -5.115   4.095 -31.351  1.00  0.00     0.074 C 
BRANCH  12  13
HETATM   13  C   UNL     1      -6.462   4.362 -30.770  1.00  0.00     0.053 A 
HETATM   14  O   UNL     1      -6.551   5.249 -29.736  1.00  0.00    -0.320 OA
HETATM   15  C   UNL     1      -7.865   5.331 -29.388  1.00  0.00     0.049 A 
HETATM   16  C   UNL     1      -8.203   6.242 -28.276  1.00  0.00     0.076 C 
HETATM   17  C   UNL     1      -8.621   4.508 -30.193  1.00  0.00     0.035 A 
HETATM   18  C   UNL     1      -7.717   3.883 -31.084  1.00  0.00     0.035 A 
ENDBRANCH  12  13
ENDBRANCH  11  12
ENDBRANCH   8  11
ENDBRANCH   1   7
BRANCH   3  19
HETATM   19  C   UNL     1      -5.465  -3.186 -34.458  1.00  0.00     0.010 A 
HETATM   20  C   UNL     1      -6.097  -4.351 -34.960  1.00  0.00     0.152 A 
HETATM   21  N   UNL     1      -5.353  -5.452 -34.822  1.00  0.00    -0.187 NA
HETATM   22  N   UNL     1      -4.235  -4.998 -34.234  1.00  0.00    -0.289 N 
HETATM   23  H   UNL     1      -3.498  -5.662 -34.022  1.00  0.00     0.188 HD
HETATM   24  C   UNL     1      -4.255  -3.656 -33.990  1.00  0.00     0.123 A 
ENDBRANCH   3  19
TORSDOF 5
ENDMDL
MODEL 8
REMARK VINA RESULT:      -7.0      3.942      5.326
REMARK  5 active torsions:
REMARK  status: ('A' for Active; 'I' for Inactive)
REMARK    1  A    between atoms: C_4  and  C_5 
REMARK    2  A    between atoms: C_5  and  C_6 
REMARK    3  A    between atoms: C_6  and  C_7 
REMARK       I    between atoms: C_7  and  N_8 
REMARK    4  A    between atoms: N_8  and  C_9 
REMARK    5  A    between atoms: C_11  and  C_12 
ROOT
HETATM    1  C   UNL     1      -7.895   0.278 -33.833  1.00  0.00     0.035 A 
HETATM    2  C   UNL     1      -7.562  -0.991 -34.319  1.00  0.00     0.042 A 
HETATM    3  C   UNL     1      -6.415  -1.670 -33.869  1.00  0.00    -0.021 A 
HETATM    4  C   UNL     1      -5.603  -1.045 -32.912  1.00  0.00     0.012 A 
HETATM    5  C   UNL     1      -5.927   0.218 -32.417  1.00  0.00     0.003 A 
HETATM    6  C   UNL     1      -7.069   0.875 -32.875  1.00  0.00     0.029 A 
ENDROOT
BRANCH   1   7
HETATM    7  N   UNL     1      -9.019   1.015 -34.254  1.00  0.00    -0.327 N 
HETATM    8  C   UNL     1     -10.332   0.873 -33.851  1.00  0.00     0.222 C 
HETATM    9  O   UNL     1     -10.763   0.092 -33.008  1.00  0.00    -0.273 OA
HETATM   10  H   UNL     1      -8.838   1.770 -34.910  1.00  0.00     0.169 HD
BRANCH   8  11
HETATM   11  C   UNL     1     -11.279   1.815 -34.573  1.00  0.00     0.110 C 
BRANCH  11  12
HETATM   12  C   UNL     1     -11.550   3.080 -33.770  1.00  0.00     0.074 C 
BRANCH  12  13
HETATM   13  C   UNL     1     -10.360   3.672 -33.095  1.00  0.00     0.053 A 
HETATM   14  O   UNL     1      -9.283   4.002 -33.867  1.00  0.00    -0.320 OA
HETATM   15  C   UNL     1      -8.338   4.525 -33.036  1.00  0.00     0.049 A 
HETATM   16  C   UNL     1      -7.071   4.957 -33.659  1.00  0.00     0.076 C 
HETATM   17  C   UNL     1      -8.802   4.539 -31.739  1.00  0.00     0.035 A 
HETATM   18  C   UNL     1     -10.105   3.988 -31.776  1.00  0.00     0.035 A 
ENDBRANCH  12  13
ENDBRANCH  11  12
ENDBRANCH   8  11
ENDBRANCH   1   7
BRANCH   3  19
HETATM   19  C   UNL     1      -6.066  -2.994 -34.372  1.00  0.00     0.010 A 
HETATM   20  C   UNL     1      -6.870  -4.010 -34.945  1.00  0.00     0.152 A 
HETATM   21  N   UNL     1      -6.176  -5.101 -35.283  1.00  0.00    -0.187 NA
HETATM   22  N   UNL     1      -4.919  -4.788 -34.932  1.00  0.00    -0.289 N 
HETATM   23  H   UNL     1      -4.188  -5.472 -35.095  1.00  0.00     0.188 HD
HETATM   24  C   UNL     1      -4.802  -3.546 -34.379  1.00  0.00     0.123 A 
ENDBRANCH   3  19
TORSDOF 5
ENDMDL
MODEL 9
REMARK VINA RESULT:      -6.9      1.334      1.777
REMARK  5 active torsions:
REMARK  status: ('A' for Active; 'I' for Inactive)
REMARK    1  A    between atoms: C_4  and  C_5 
REMARK    2  A    between atoms: C_5  and  C_6 
REMARK    3  A    between atoms: C_6  and  C_7 
REMARK       I    between atoms: C_7  and  N_8 
REMARK    4  A    between atoms: N_8  and  C_9 
REMARK    5  A    between atoms: C_11  and  C_12 
ROOT
HETATM    1  C   UNL     1      -5.381   1.418 -32.855  1.00  0.00     0.035 A 
HETATM    2  C   UNL     1      -4.754   0.171 -32.757  1.00  0.00     0.042 A 
HETATM    3  C   UNL     1      -5.135  -0.906 -33.579  1.00  0.00    -0.021 A 
HETATM    4  C   UNL     1      -6.164  -0.704 -34.509  1.00  0.00     0.012 A 
HETATM    5  C   UNL     1      -6.793   0.537 -34.618  1.00  0.00     0.003 A 
HETATM    6  C   UNL     1      -6.401   1.592 -33.796  1.00  0.00     0.029 A 
ENDROOT
BRANCH   1   7
HETATM    7  N   UNL     1      -5.058   2.529 -32.051  1.00  0.00    -0.327 N 
HETATM    8  C   UNL     1      -5.531   2.837 -30.791  1.00  0.00     0.222 C 
HETATM    9  O   UNL     1      -6.304   2.168 -30.112  1.00  0.00    -0.273 OA
HETATM   10  H   UNL     1      -4.361   3.166 -32.429  1.00  0.00     0.169 HD
BRANCH   8  11
HETATM   11  C   UNL     1      -4.995   4.155 -30.262  1.00  0.00     0.110 C 
BRANCH  11  12
HETATM   12  C   UNL     1      -4.462   5.046 -31.377  1.00  0.00     0.074 C 
BRANCH  12  13
HETATM   13  C   UNL     1      -2.984   5.241 -31.382  1.00  0.00     0.053 A 
HETATM   14  O   UNL     1      -2.467   6.244 -30.612  1.00  0.00    -0.320 OA
HETATM   15  C   UNL     1      -1.114   6.217 -30.774  1.00  0.00     0.049 A 
HETATM   16  C   UNL     1      -0.336   7.226 -30.027  1.00  0.00     0.076 C 
HETATM   17  C   UNL     1      -0.759   5.203 -31.635  1.00  0.00     0.035 A 
HETATM   18  C   UNL     1      -1.964   4.574 -32.028  1.00  0.00     0.035 A 
ENDBRANCH  12  13
ENDBRANCH  11  12
ENDBRANCH   8  11
ENDBRANCH   1   7
BRANCH   3  19
HETATM   19  C   UNL     1      -4.482  -2.207 -33.481  1.00  0.00     0.010 A 
HETATM   20  C   UNL     1      -3.619  -2.740 -32.492  1.00  0.00     0.152 A 
HETATM   21  N   UNL     1      -3.217  -3.985 -32.762  1.00  0.00    -0.187 NA
HETATM   22  N   UNL     1      -3.825  -4.260 -33.926  1.00  0.00    -0.289 N 
HETATM   23  H   UNL     1      -3.673  -5.171 -34.346  1.00  0.00     0.188 HD
HETATM   24  C   UNL     1      -4.585  -3.231 -34.400  1.00  0.00     0.123 A 
ENDBRANCH   3  19
TORSDOF 5
ENDMDL
MODEL 10
REMARK VINA RESULT:      -6.8     15.109     16.361
REMARK  5 active torsions:
REMARK  status: ('A' for Active; 'I' for Inactive)
REMARK    1  A    between atoms: C_4  and  C_5 
REMARK    2  A    between atoms: C_5  and  C_6 
REMARK    3  A    between atoms: C_6  and  C_7 
REMARK       I    between atoms: C_7  and  N_8 
REMARK    4  A    between atoms: N_8  and  C_9 
REMARK    5  A    between atoms: C_11  and  C_12 
ROOT
HETATM    1  C   UNL     1      -6.224 -13.540 -38.166  1.00  0.00     0.035 A 
HETATM    2  C   UNL     1      -7.575 -13.564 -38.529  1.00  0.00     0.042 A 
HETATM    3  C   UNL     1      -8.041 -12.864 -39.657  1.00  0.00    -0.021 A 
HETATM    4  C   UNL     1      -7.117 -12.135 -40.419  1.00  0.00     0.012 A 
HETATM    5  C   UNL     1      -5.768 -12.108 -40.069  1.00  0.00     0.003 A 
HETATM    6  C   UNL     1      -5.324 -12.809 -38.948  1.00  0.00     0.029 A 
ENDROOT
BRANCH   1   7
HETATM    7  N   UNL     1      -5.698 -14.205 -37.041  1.00  0.00    -0.327 N 
HETATM    8  C   UNL     1      -5.233 -15.503 -36.958  1.00  0.00     0.222 C 
HETATM    9  O   UNL     1      -5.154 -16.317 -37.873  1.00  0.00    -0.273 OA
HETATM   10  H   UNL     1      -5.615 -13.652 -36.192  1.00  0.00     0.169 HD
BRANCH   8  11
HETATM   11  C   UNL     1      -4.793 -15.886 -35.556  1.00  0.00     0.110 C 
BRANCH  11  12
HETATM   12  C   UNL     1      -3.664 -15.000 -35.047  1.00  0.00     0.074 C 
BRANCH  12  13
HETATM   13  C   UNL     1      -2.614 -14.669 -36.053  1.00  0.00     0.053 A 
HETATM   14  O   UNL     1      -2.713 -13.479 -36.716  1.00  0.00    -0.320 OA
HETATM   15  C   UNL     1      -1.648 -13.401 -37.563  1.00  0.00     0.049 A 
HETATM   16  C   UNL     1      -1.547 -12.184 -38.393  1.00  0.00     0.076 C 
HETATM   17  C   UNL     1      -0.864 -14.528 -37.444  1.00  0.00     0.035 A 
HETATM   18  C   UNL     1      -1.487 -15.346 -36.472  1.00  0.00     0.035 A 
ENDBRANCH  12  13
ENDBRANCH  11  12
ENDBRANCH   8  11
ENDBRANCH   1   7
BRANCH   3  19
HETATM   19  C   UNL     1      -9.448 -12.888 -40.041  1.00  0.00     0.010 A 
HETATM   20  C   UNL     1     -10.354 -13.969 -40.177  1.00  0.00     0.152 A 
HETATM   21  N   UNL     1     -11.576 -13.584 -40.557  1.00  0.00    -0.187 NA
HETATM   22  N   UNL     1     -11.462 -12.251 -40.663  1.00  0.00    -0.289 N 
HETATM   23  H   UNL     1     -12.279 -11.718 -40.943  1.00  0.00     0.188 HD
HETATM   24  C   UNL     1     -10.212 -11.788 -40.372  1.00  0.00     0.123 A 
ENDBRANCH   3  19
TORSDOF 5
ENDMDL
