MODEL 1
REMARK VINA RESULT:      -7.7      0.000      0.000
REMARK  3 active torsions:
REMARK  status: ('A' for Active; 'I' for Inactive)
REMARK    1  A    between atoms: C_3  and  N_4 
REMARK       I    between atoms: N_4  and  C_5 
REMARK    2  A    between atoms: C_5  and  C_6 
REMARK    3  A    between atoms: C_9  and  N_10 
REMARK       I    between atoms: N_10  and  C_11 
ROOT
HETATM    1  N   UNL     1      -5.031   0.425 -33.306  1.00  0.00    -0.321 N 
HETATM    2  C   UNL     1      -5.277   0.993 -32.068  1.00  0.00     0.256 C 
HETATM    3  O   UNL     1      -5.828   0.446 -31.120  1.00  0.00    -0.267 OA
HETATM    4  H   UNL     1      -4.315   0.885 -33.844  1.00  0.00     0.169 HD
ENDROOT
BRANCH   2   5
HETATM    5  C   UNL     1      -4.707   2.363 -31.842  1.00  0.00     0.032 A 
HETATM    6  C   UNL     1      -5.471   3.476 -31.472  1.00  0.00     0.019 A 
HETATM    7  C   UNL     1      -4.879   4.746 -31.377  1.00  0.00     0.030 A 
HETATM    8  C   UNL     1      -3.516   4.920 -31.625  1.00  0.00     0.034 A 
HETATM    9  C   UNL     1      -2.741   3.799 -31.933  1.00  0.00     0.030 A 
HETATM   10  C   UNL     1      -3.330   2.535 -32.044  1.00  0.00     0.019 A 
BRANCH   8  11
HETATM   11  N   UNL     1      -2.859   6.166 -31.601  1.00  0.00    -0.328 N 
HETATM   12  C   UNL     1      -2.570   6.986 -32.677  1.00  0.00     0.218 C 
HETATM   13  C   UNL     1      -1.800   8.213 -32.258  1.00  0.00     0.117 C 
HETATM   14  O   UNL     1      -2.873   6.799 -33.850  1.00  0.00    -0.274 OA
HETATM   15  H   UNL     1      -2.516   6.471 -30.698  1.00  0.00     0.169 HD
ENDBRANCH   8  11
ENDBRANCH   2   5
BRANCH   1  16
HETATM   16  C   UNL     1      -5.314  -0.911 -33.715  1.00  0.00     0.065 C 
HETATM   17  C   UNL     1      -4.546  -2.044 -33.397  1.00  0.00    -0.031 C 
HETATM   18  C   UNL     1      -3.416  -2.079 -32.404  1.00  0.00     0.050 C 
HETATM   19  C   UNL     1      -4.867  -3.270 -34.009  1.00  0.00     0.035 C 
HETATM   20  C   UNL     1      -5.974  -3.369 -34.836  1.00  0.00     0.031 C 
HETATM   21  N   UNL     1      -6.792  -2.324 -35.062  1.00  0.00    -0.256 NA
HETATM   22  C   UNL     1      -6.300  -4.662 -35.519  1.00  0.00     0.070 C 
HETATM   23  C   UNL     1      -6.469  -1.127 -34.504  1.00  0.00     0.058 C 
HETATM   24  C   UNL     1      -7.442  -0.026 -34.821  1.00  0.00     0.073 C 
ENDBRANCH   1  16
TORSDOF 3
ENDMDL
MODEL 2
REMARK VINA RESULT:      -7.6      0.775      1.925
REMARK  3 active torsions:
REMARK  status: ('A' for Active; 'I' for Inactive)
REMARK    1  A    between atoms: C_3  and  N_4 
REMARK       I    between atoms: N_4  and  C_5 
REMARK    2  A    between atoms: C_5  and  C_6 
REMARK    3  A    between atoms: C_9  and  N_10 
REMARK       I    between atoms: N_10  and  C_11 
ROOT
HETATM    1  N   UNL     1      -5.271   0.842 -33.333  1.00  0.00    -0.321 N 
HETATM    2  C   UNL     1      -5.571   1.316 -32.068  1.00  0.00     0.256 C 
HETATM    3  O   UNL     1      -6.192   0.714 -31.200  1.00  0.00    -0.267 OA
HETATM    4  H   UNL     1      -4.511   1.318 -33.791  1.00  0.00     0.169 HD
ENDROOT
BRANCH   2   5
HETATM    5  C   UNL     1      -4.972   2.643 -31.698  1.00  0.00     0.032 A 
HETATM    6  C   UNL     1      -5.721   3.745 -31.268  1.00  0.00     0.019 A 
HETATM    7  C   UNL     1      -5.098   4.981 -31.037  1.00  0.00     0.030 A 
HETATM    8  C   UNL     1      -3.721   5.132 -31.208  1.00  0.00     0.034 A 
HETATM    9  C   UNL     1      -2.964   4.016 -31.577  1.00  0.00     0.030 A 
HETATM   10  C   UNL     1      -3.583   2.786 -31.823  1.00  0.00     0.019 A 
BRANCH   8  11
HETATM   11  N   UNL     1      -3.030   6.349 -31.046  1.00  0.00    -0.328 N 
HETATM   12  C   UNL     1      -2.571   7.194 -32.042  1.00  0.00     0.218 C 
HETATM   13  C   UNL     1      -1.822   8.375 -31.474  1.00  0.00     0.117 C 
HETATM   14  O   UNL     1      -2.718   7.060 -33.251  1.00  0.00    -0.274 OA
HETATM   15  H   UNL     1      -2.802   6.609 -30.094  1.00  0.00     0.169 HD
ENDBRANCH   8  11
ENDBRANCH   2   5
BRANCH   1  16
HETATM   16  C   UNL     1      -5.570  -0.447 -33.866  1.00  0.00     0.065 C 
HETATM   17  C   UNL     1      -6.708  -0.773 -34.624  1.00  0.00    -0.031 C 
HETATM   18  C   UNL     1      -7.697   0.214 -35.179  1.00  0.00     0.050 C 
HETATM   19  C   UNL     1      -6.940  -2.125 -34.943  1.00  0.00     0.035 C 
HETATM   20  C   UNL     1      -6.015  -3.094 -34.591  1.00  0.00     0.031 C 
HETATM   21  N   UNL     1      -4.862  -2.788 -33.967  1.00  0.00    -0.256 NA
HETATM   22  C   UNL     1      -6.273  -4.539 -34.895  1.00  0.00     0.070 C 
HETATM   23  C   UNL     1      -4.646  -1.490 -33.624  1.00  0.00     0.058 C 
HETATM   24  C   UNL     1      -3.333  -1.254 -32.929  1.00  0.00     0.073 C 
ENDBRANCH   1  16
TORSDOF 3
ENDMDL
MODEL 3
REMARK VINA RESULT:      -7.3      4.828      7.666
REMARK  3 active torsions:
REMARK  status: ('A' for Active; 'I' for Inactive)
REMARK    1  A    between atoms: C_3  and  N_4 
REMARK       I    between atoms: N_4  and  C_5 
REMARK    2  A    between atoms: C_5  and  C_6 
REMARK    3  A    between atoms: C_9  and  N_10 
REMARK       I    between atoms: N_10  and  C_11 
ROOT
HETATM    1  N   UNL     1      -8.159   0.406 -32.820  1.00  0.00    -0.321 N 
HETATM    2  C   UNL     1      -8.569   1.521 -33.529  1.00  0.00     0.256 C 
HETATM    3  O   UNL     1      -7.847   2.269 -34.179  1.00  0.00    -0.267 OA
HETATM    4  H   UNL     1      -8.892  -0.252 -32.612  1.00  0.00     0.169 HD
ENDROOT
BRANCH   2   5
HETATM    5  C   UNL     1     -10.050   1.756 -33.599  1.00  0.00     0.032 A 
HETATM    6  C   UNL     1     -10.638   3.025 -33.658  1.00  0.00     0.019 A 
HETATM    7  C   UNL     1     -12.034   3.165 -33.619  1.00  0.00     0.030 A 
HETATM    8  C   UNL     1     -12.864   2.045 -33.546  1.00  0.00     0.034 A 
HETATM    9  C   UNL     1     -12.279   0.775 -33.549  1.00  0.00     0.030 A 
HETATM   10  C   UNL     1     -10.888   0.632 -33.572  1.00  0.00     0.019 A 
BRANCH   8  11
HETATM   11  N   UNL     1     -14.268   2.102 -33.451  1.00  0.00    -0.328 N 
HETATM   12  C   UNL     1     -15.023   2.472 -32.352  1.00  0.00     0.218 C 
HETATM   13  C   UNL     1     -16.503   2.349 -32.620  1.00  0.00     0.117 C 
HETATM   14  O   UNL     1     -14.607   2.860 -31.266  1.00  0.00    -0.274 OA
HETATM   15  H   UNL     1     -14.782   1.791 -34.266  1.00  0.00     0.169 HD
ENDBRANCH   8  11
ENDBRANCH   2   5
BRANCH   1  16
HETATM   16  C   UNL     1      -6.840  -0.131 -32.738  1.00  0.00     0.065 C 
HETATM   17  C   UNL     1      -6.237  -0.966 -33.694  1.00  0.00    -0.031 C 
HETATM   18  C   UNL     1      -6.793  -1.272 -35.057  1.00  0.00     0.050 C 
HETATM   19  C   UNL     1      -4.989  -1.543 -33.393  1.00  0.00     0.035 C 
HETATM   20  C   UNL     1      -4.334  -1.215 -32.217  1.00  0.00     0.031 C 
HETATM   21  N   UNL     1      -4.839  -0.326 -31.342  1.00  0.00    -0.256 NA
HETATM   22  C   UNL     1      -3.021  -1.852 -31.874  1.00  0.00     0.070 C 
HETATM   23  C   UNL     1      -6.061   0.208 -31.607  1.00  0.00     0.058 C 
HETATM   24  C   UNL     1      -6.537   1.184 -30.567  1.00  0.00     0.073 C 
ENDBRANCH   1  16
TORSDOF 3
ENDMDL
MODEL 4
REMARK VINA RESULT:      -7.1      2.485      3.246
REMARK  3 active torsions:
REMARK  status: ('A' for Active; 'I' for Inactive)
REMARK    1  A    between atoms: C_3  and  N_4 
REMARK       I    between atoms: N_4  and  C_5 
REMARK    2  A    between atoms: C_5  and  C_6 
REMARK    3  A    between atoms: C_9  and  N_10 
REMARK       I    between atoms: N_10  and  C_11 
ROOT
HETATM    1  N   UNL     1      -5.826   0.676 -32.779  1.00  0.00    -0.321 N 
HETATM    2  C   UNL     1      -6.606   0.983 -31.678  1.00  0.00     0.256 C 
HETATM    3  O   UNL     1      -7.463   0.264 -31.177  1.00  0.00    -0.267 OA
HETATM    4  H   UNL     1      -4.985   1.223 -32.863  1.00  0.00     0.169 HD
ENDROOT
BRANCH   2   5
HETATM    5  C   UNL     1      -6.280   2.267 -30.971  1.00  0.00     0.032 A 
HETATM    6  C   UNL     1      -7.148   2.912 -30.082  1.00  0.00     0.019 A 
HETATM    7  C   UNL     1      -6.811   4.162 -29.539  1.00  0.00     0.030 A 
HETATM    8  C   UNL     1      -5.596   4.774 -29.852  1.00  0.00     0.034 A 
HETATM    9  C   UNL     1      -4.701   4.101 -30.690  1.00  0.00     0.030 A 
HETATM   10  C   UNL     1      -5.041   2.864 -31.246  1.00  0.00     0.019 A 
BRANCH   8  11
HETATM   11  N   UNL     1      -5.206   6.047 -29.390  1.00  0.00    -0.328 N 
HETATM   12  C   UNL     1      -5.017   6.444 -28.078  1.00  0.00     0.218 C 
HETATM   13  C   UNL     1      -4.659   7.906 -27.981  1.00  0.00     0.117 C 
HETATM   14  O   UNL     1      -5.112   5.748 -27.074  1.00  0.00    -0.274 OA
HETATM   15  H   UNL     1      -5.101   6.764 -30.098  1.00  0.00     0.169 HD
ENDBRANCH   8  11
ENDBRANCH   2   5
BRANCH   1  16
HETATM   16  C   UNL     1      -5.817  -0.543 -33.519  1.00  0.00     0.065 C 
HETATM   17  C   UNL     1      -6.756  -0.911 -34.498  1.00  0.00    -0.031 C 
HETATM   18  C   UNL     1      -7.806  -0.007 -35.081  1.00  0.00     0.050 C 
HETATM   19  C   UNL     1      -6.704  -2.215 -35.025  1.00  0.00     0.035 C 
HETATM   20  C   UNL     1      -5.689  -3.080 -34.648  1.00  0.00     0.031 C 
HETATM   21  N   UNL     1      -4.711  -2.708 -33.801  1.00  0.00    -0.256 NA
HETATM   22  C   UNL     1      -5.647  -4.481 -35.178  1.00  0.00     0.070 C 
HETATM   23  C   UNL     1      -4.775  -1.463 -33.259  1.00  0.00     0.058 C 
HETATM   24  C   UNL     1      -3.640  -1.148 -32.324  1.00  0.00     0.073 C 
ENDBRANCH   1  16
TORSDOF 3
ENDMDL
MODEL 5
REMARK VINA RESULT:      -7.1      3.183      4.897
REMARK  3 active torsions:
REMARK  status: ('A' for Active; 'I' for Inactive)
REMARK    1  A    between atoms: C_3  and  N_4 
REMARK       I    between atoms: N_4  and  C_5 
REMARK    2  A    between atoms: C_5  and  C_6 
REMARK    3  A    between atoms: C_9  and  N_10 
REMARK       I    between atoms: N_10  and  C_11 
ROOT
HETATM    1  N   UNL     1      -3.366   3.575 -31.863  1.00  0.00    -0.321 N 
HETATM    2  C   UNL     1      -2.346   4.225 -32.536  1.00  0.00     0.256 C 
HETATM    3  O   UNL     1      -2.093   4.126 -33.731  1.00  0.00    -0.267 OA
HETATM    4  H   UNL     1      -3.623   3.994 -30.984  1.00  0.00     0.169 HD
ENDROOT
BRANCH   2   5
HETATM    5  C   UNL     1      -1.562   5.229 -31.742  1.00  0.00     0.032 A 
HETATM    6  C   UNL     1      -0.174   5.385 -31.835  1.00  0.00     0.019 A 
HETATM    7  C   UNL     1       0.500   6.277 -30.986  1.00  0.00     0.030 A 
HETATM    8  C   UNL     1      -0.200   7.041 -30.050  1.00  0.00     0.034 A 
HETATM    9  C   UNL     1      -1.593   6.931 -30.000  1.00  0.00     0.030 A 
HETATM   10  C   UNL     1      -2.266   6.032 -30.833  1.00  0.00     0.019 A 
BRANCH   8  11
HETATM   11  N   UNL     1       0.406   7.918 -29.129  1.00  0.00    -0.328 N 
HETATM   12  C   UNL     1       0.956   7.599 -27.900  1.00  0.00     0.218 C 
HETATM   13  C   UNL     1       1.457   8.823 -27.175  1.00  0.00     0.117 C 
HETATM   14  O   UNL     1       1.056   6.483 -27.403  1.00  0.00    -0.274 OA
HETATM   15  H   UNL     1       0.393   8.901 -29.375  1.00  0.00     0.169 HD
ENDBRANCH   8  11
ENDBRANCH   2   5
BRANCH   1  16
HETATM   16  C   UNL     1      -4.354   2.709 -32.419  1.00  0.00     0.065 C 
HETATM   17  C   UNL     1      -4.332   1.305 -32.369  1.00  0.00    -0.031 C 
HETATM   18  C   UNL     1      -3.380   0.478 -31.550  1.00  0.00     0.050 C 
HETATM   19  C   UNL     1      -5.297   0.589 -33.102  1.00  0.00     0.035 C 
HETATM   20  C   UNL     1      -6.299   1.263 -33.782  1.00  0.00     0.031 C 
HETATM   21  N   UNL     1      -6.409   2.604 -33.746  1.00  0.00    -0.256 NA
HETATM   22  C   UNL     1      -7.308   0.509 -34.593  1.00  0.00     0.070 C 
HETATM   23  C   UNL     1      -5.460   3.305 -33.070  1.00  0.00     0.058 C 
HETATM   24  C   UNL     1      -5.670   4.794 -33.095  1.00  0.00     0.073 C 
ENDBRANCH   1  16
TORSDOF 3
ENDMDL
MODEL 6
REMARK VINA RESULT:      -6.9      2.569      3.134
REMARK  3 active torsions:
REMARK  status: ('A' for Active; 'I' for Inactive)
REMARK    1  A    between atoms: C_3  and  N_4 
REMARK       I    between atoms: N_4  and  C_5 
REMARK    2  A    between atoms: C_5  and  C_6 
REMARK    3  A    between atoms: C_9  and  N_10 
REMARK       I    between atoms: N_10  and  C_11 
ROOT
HETATM    1  N   UNL     1      -5.987   0.713 -32.465  1.00  0.00    -0.321 N 
HETATM    2  C   UNL     1      -6.203   0.973 -31.123  1.00  0.00     0.256 C 
HETATM    3  O   UNL     1      -6.385   0.137 -30.246  1.00  0.00    -0.267 OA
HETATM    4  H   UNL     1      -5.558   1.467 -32.975  1.00  0.00     0.169 HD
ENDROOT
BRANCH   2   5
HETATM    5  C   UNL     1      -6.084   2.408 -30.698  1.00  0.00     0.032 A 
HETATM    6  C   UNL     1      -4.952   3.199 -30.927  1.00  0.00     0.019 A 
HETATM    7  C   UNL     1      -4.878   4.502 -30.410  1.00  0.00     0.030 A 
HETATM    8  C   UNL     1      -5.938   5.044 -29.681  1.00  0.00     0.034 A 
HETATM    9  C   UNL     1      -7.093   4.277 -29.505  1.00  0.00     0.030 A 
HETATM   10  C   UNL     1      -7.165   2.973 -30.005  1.00  0.00     0.019 A 
BRANCH   8  11
HETATM   11  N   UNL     1      -5.921   6.322 -29.086  1.00  0.00    -0.328 N 
HETATM   12  C   UNL     1      -5.676   6.629 -27.760  1.00  0.00     0.218 C 
HETATM   13  C   UNL     1      -5.806   8.108 -27.494  1.00  0.00     0.117 C 
HETATM   14  O   UNL     1      -5.385   5.848 -26.862  1.00  0.00    -0.274 OA
HETATM   15  H   UNL     1      -6.164   7.096 -29.691  1.00  0.00     0.169 HD
ENDBRANCH   8  11
ENDBRANCH   2   5
BRANCH   1  16
HETATM   16  C   UNL     1      -5.879  -0.563 -33.091  1.00  0.00     0.065 C 
HETATM   17  C   UNL     1      -4.702  -1.325 -33.198  1.00  0.00    -0.031 C 
HETATM   18  C   UNL     1      -3.406  -1.027 -32.495  1.00  0.00     0.050 C 
HETATM   19  C   UNL     1      -4.723  -2.491 -33.985  1.00  0.00     0.035 C 
HETATM   20  C   UNL     1      -5.906  -2.922 -34.564  1.00  0.00     0.031 C 
HETATM   21  N   UNL     1      -7.070  -2.272 -34.378  1.00  0.00    -0.256 NA
HETATM   22  C   UNL     1      -5.928  -4.143 -35.432  1.00  0.00     0.070 C 
HETATM   23  C   UNL     1      -7.052  -1.124 -33.649  1.00  0.00     0.058 C 
HETATM   24  C   UNL     1      -8.400  -0.473 -33.505  1.00  0.00     0.073 C 
ENDBRANCH   1  16
TORSDOF 3
ENDMDL
MODEL 7
REMARK VINA RESULT:      -6.9      1.330      1.644
REMARK  3 active torsions:
REMARK  status: ('A' for Active; 'I' for Inactive)
REMARK    1  A    between atoms: C_3  and  N_4 
REMARK       I    between atoms: N_4  and  C_5 
REMARK    2  A    between atoms: C_5  and  C_6 
REMARK    3  A    between atoms: C_9  and  N_10 
REMARK       I    between atoms: N_10  and  C_11 
ROOT
HETATM    1  N   UNL     1      -5.019   0.954 -33.478  1.00  0.00    -0.321 N 
HETATM    2  C   UNL     1      -5.069   1.579 -32.244  1.00  0.00     0.256 C 
HETATM    3  O   UNL     1      -5.432   1.069 -31.191  1.00  0.00    -0.267 OA
HETATM    4  H   UNL     1      -4.421   1.402 -34.152  1.00  0.00     0.169 HD
ENDROOT
BRANCH   2   5
HETATM    5  C   UNL     1      -4.512   2.972 -32.183  1.00  0.00     0.032 A 
HETATM    6  C   UNL     1      -3.187   3.269 -31.841  1.00  0.00     0.019 A 
HETATM    7  C   UNL     1      -2.769   4.603 -31.709  1.00  0.00     0.030 A 
HETATM    8  C   UNL     1      -3.655   5.657 -31.938  1.00  0.00     0.034 A 
HETATM    9  C   UNL     1      -4.960   5.361 -32.341  1.00  0.00     0.030 A 
HETATM   10  C   UNL     1      -5.386   4.034 -32.459  1.00  0.00     0.019 A 
BRANCH   8  11
HETATM   11  N   UNL     1      -3.328   7.018 -31.777  1.00  0.00    -0.328 N 
HETATM   12  C   UNL     1      -3.317   7.747 -30.601  1.00  0.00     0.218 C 
HETATM   13  C   UNL     1      -2.971   9.195 -30.842  1.00  0.00     0.117 C 
HETATM   14  O   UNL     1      -3.549   7.331 -29.472  1.00  0.00    -0.274 OA
HETATM   15  H   UNL     1      -3.125   7.530 -32.627  1.00  0.00     0.169 HD
ENDBRANCH   8  11
ENDBRANCH   2   5
BRANCH   1  16
HETATM   16  C   UNL     1      -5.325  -0.408 -33.770  1.00  0.00     0.065 C 
HETATM   17  C   UNL     1      -4.549  -1.518 -33.397  1.00  0.00    -0.031 C 
HETATM   18  C   UNL     1      -3.377  -1.485 -32.454  1.00  0.00     0.050 C 
HETATM   19  C   UNL     1      -4.901  -2.786 -33.897  1.00  0.00     0.035 C 
HETATM   20  C   UNL     1      -6.043  -2.940 -34.666  1.00  0.00     0.031 C 
HETATM   21  N   UNL     1      -6.866  -1.910 -34.938  1.00  0.00    -0.256 NA
HETATM   22  C   UNL     1      -6.405  -4.280 -35.232  1.00  0.00     0.070 C 
HETATM   23  C   UNL     1      -6.514  -0.676 -34.488  1.00  0.00     0.058 C 
HETATM   24  C   UNL     1      -7.496   0.405 -34.848  1.00  0.00     0.073 C 
ENDBRANCH   1  16
TORSDOF 3
ENDMDL
MODEL 8
REMARK VINA RESULT:      -6.7      3.550      4.680
REMARK  3 active torsions:
REMARK  status: ('A' for Active; 'I' for Inactive)
REMARK    1  A    between atoms: C_3  and  N_4 
REMARK       I    between atoms: N_4  and  C_5 
REMARK    2  A    between atoms: C_5  and  C_6 
REMARK    3  A    between atoms: C_9  and  N_10 
REMARK       I    between atoms: N_10  and  C_11 
ROOT
HETATM    1  N   UNL     1      -6.439   1.084 -32.465  1.00  0.00    -0.321 N 
HETATM    2  C   UNL     1      -7.666   1.185 -31.832  1.00  0.00     0.256 C 
HETATM    3  O   UNL     1      -8.481   0.281 -31.689  1.00  0.00    -0.267 OA
HETATM    4  H   UNL     1      -5.783   1.809 -32.226  1.00  0.00     0.169 HD
ENDROOT
BRANCH   2   5
HETATM    5  C   UNL     1      -7.960   2.496 -31.162  1.00  0.00     0.032 A 
HETATM    6  C   UNL     1      -6.978   3.338 -30.627  1.00  0.00     0.019 A 
HETATM    7  C   UNL     1      -7.341   4.499 -29.927  1.00  0.00     0.030 A 
HETATM    8  C   UNL     1      -8.682   4.851 -29.771  1.00  0.00     0.034 A 
HETATM    9  C   UNL     1      -9.661   4.045 -30.359  1.00  0.00     0.030 A 
HETATM   10  C   UNL     1      -9.305   2.878 -31.044  1.00  0.00     0.019 A 
BRANCH   8  11
HETATM   11  N   UNL     1      -9.129   5.970 -29.041  1.00  0.00    -0.328 N 
HETATM   12  C   UNL     1      -9.403   7.237 -29.525  1.00  0.00     0.218 C 
HETATM   13  C   UNL     1      -9.802   8.185 -28.422  1.00  0.00     0.117 C 
HETATM   14  O   UNL     1      -9.348   7.610 -30.692  1.00  0.00    -0.274 OA
HETATM   15  H   UNL     1      -9.211   5.843 -28.039  1.00  0.00     0.169 HD
ENDBRANCH   8  11
ENDBRANCH   2   5
BRANCH   1  16
HETATM   16  C   UNL     1      -5.851  -0.087 -33.027  1.00  0.00     0.065 C 
HETATM   17  C   UNL     1      -6.264  -0.721 -34.211  1.00  0.00    -0.031 C 
HETATM   18  C   UNL     1      -7.254  -0.165 -35.197  1.00  0.00     0.050 C 
HETATM   19  C   UNL     1      -5.686  -1.959 -34.551  1.00  0.00     0.035 C 
HETATM   20  C   UNL     1      -4.667  -2.489 -33.775  1.00  0.00     0.031 C 
HETATM   21  N   UNL     1      -4.176  -1.843 -32.702  1.00  0.00    -0.256 NA
HETATM   22  C   UNL     1      -4.072  -3.824 -34.109  1.00  0.00     0.070 C 
HETATM   23  C   UNL     1      -4.753  -0.664 -32.347  1.00  0.00     0.058 C 
HETATM   24  C   UNL     1      -4.135  -0.025 -31.134  1.00  0.00     0.073 C 
ENDBRANCH   1  16
TORSDOF 3
ENDMDL
MODEL 9
REMARK VINA RESULT:      -6.7      4.809      6.777
REMARK  3 active torsions:
REMARK  status: ('A' for Active; 'I' for Inactive)
REMARK    1  A    between atoms: C_3  and  N_4 
REMARK       I    between atoms: N_4  and  C_5 
REMARK    2  A    between atoms: C_5  and  C_6 
REMARK    3  A    between atoms: C_9  and  N_10 
REMARK       I    between atoms: N_10  and  C_11 
ROOT
HETATM    1  N   UNL     1      -7.928   0.952 -33.762  1.00  0.00    -0.321 N 
HETATM    2  C   UNL     1      -9.083   0.882 -33.004  1.00  0.00     0.256 C 
HETATM    3  O   UNL     1      -9.221   0.265 -31.954  1.00  0.00    -0.267 OA
HETATM    4  H   UNL     1      -7.893   1.728 -34.403  1.00  0.00     0.169 HD
ENDROOT
BRANCH   2   5
HETATM    5  C   UNL     1     -10.228   1.741 -33.457  1.00  0.00     0.032 A 
HETATM    6  C   UNL     1     -11.037   1.445 -34.560  1.00  0.00     0.019 A 
HETATM    7  C   UNL     1     -12.025   2.350 -34.981  1.00  0.00     0.030 A 
HETATM    8  C   UNL     1     -12.235   3.549 -34.297  1.00  0.00     0.034 A 
HETATM    9  C   UNL     1     -11.470   3.816 -33.159  1.00  0.00     0.030 A 
HETATM   10  C   UNL     1     -10.474   2.924 -32.745  1.00  0.00     0.019 A 
BRANCH   8  11
HETATM   11  N   UNL     1     -13.168   4.531 -34.686  1.00  0.00    -0.328 N 
HETATM   12  C   UNL     1     -12.907   5.749 -35.288  1.00  0.00     0.218 C 
HETATM   13  C   UNL     1     -14.165   6.554 -35.496  1.00  0.00     0.117 C 
HETATM   14  O   UNL     1     -11.814   6.181 -35.635  1.00  0.00    -0.274 OA
HETATM   15  H   UNL     1     -14.135   4.342 -34.452  1.00  0.00     0.169 HD
ENDBRANCH   8  11
ENDBRANCH   2   5
BRANCH   1  16
HETATM   16  C   UNL     1      -6.660   0.373 -33.461  1.00  0.00     0.065 C 
HETATM   17  C   UNL     1      -6.289  -0.959 -33.712  1.00  0.00    -0.031 C 
HETATM   18  C   UNL     1      -7.082  -1.945 -34.524  1.00  0.00     0.050 C 
HETATM   19  C   UNL     1      -5.057  -1.421 -33.212  1.00  0.00     0.035 C 
HETATM   20  C   UNL     1      -4.195  -0.549 -32.566  1.00  0.00     0.031 C 
HETATM   21  N   UNL     1      -4.479   0.758 -32.418  1.00  0.00    -0.256 NA
HETATM   22  C   UNL     1      -2.898  -1.043 -31.999  1.00  0.00     0.070 C 
HETATM   23  C   UNL     1      -5.682   1.205 -32.866  1.00  0.00     0.058 C 
HETATM   24  C   UNL     1      -5.904   2.676 -32.649  1.00  0.00     0.073 C 
ENDBRANCH   1  16
TORSDOF 3
ENDMDL
MODEL 10
REMARK VINA RESULT:      -6.6      2.269      3.201
REMARK  3 active torsions:
REMARK  status: ('A' for Active; 'I' for Inactive)
REMARK    1  A    between atoms: C_3  and  N_4 
REMARK       I    between atoms: N_4  and  C_5 
REMARK    2  A    between atoms: C_5  and  C_6 
REMARK    3  A    between atoms: C_9  and  N_10 
REMARK       I    between atoms: N_10  and  C_11 
ROOT
HETATM    1  N   UNL     1      -4.230   2.634 -31.679  1.00  0.00    -0.321 N 
HETATM    2  C   UNL     1      -3.298   3.551 -32.133  1.00  0.00     0.256 C 
HETATM    3  O   UNL     1      -2.643   3.464 -33.166  1.00  0.00    -0.267 OA
HETATM    4  H   UNL     1      -4.881   2.997 -31.003  1.00  0.00     0.169 HD
ENDROOT
BRANCH   2   5
HETATM    5  C   UNL     1      -3.174   4.820 -31.340  1.00  0.00     0.032 A 
HETATM    6  C   UNL     1      -4.260   5.486 -30.759  1.00  0.00     0.019 A 
HETATM    7  C   UNL     1      -4.075   6.721 -30.117  1.00  0.00     0.030 A 
HETATM    8  C   UNL     1      -2.807   7.296 -30.023  1.00  0.00     0.034 A 
HETATM    9  C   UNL     1      -1.713   6.601 -30.548  1.00  0.00     0.030 A 
HETATM   10  C   UNL     1      -1.895   5.378 -31.202  1.00  0.00     0.019 A 
BRANCH   8  11
HETATM   11  N   UNL     1      -2.546   8.554 -29.442  1.00  0.00    -0.328 N 
HETATM   12  C   UNL     1      -2.422   9.770 -30.090  1.00  0.00     0.218 C 
HETATM   13  C   UNL     1      -2.082  10.884 -29.130  1.00  0.00     0.117 C 
HETATM   14  O   UNL     1      -2.558   9.987 -31.288  1.00  0.00    -0.274 OA
HETATM   15  H   UNL     1      -2.384   8.556 -28.443  1.00  0.00     0.169 HD
ENDBRANCH   8  11
ENDBRANCH   2   5
BRANCH   1  16
HETATM   16  C   UNL     1      -4.656   1.440 -32.332  1.00  0.00     0.065 C 
HETATM   17  C   UNL     1      -4.026   0.188 -32.239  1.00  0.00    -0.031 C 
HETATM   18  C   UNL     1      -2.922  -0.162 -31.280  1.00  0.00     0.050 C 
HETATM   19  C   UNL     1      -4.475  -0.856 -33.069  1.00  0.00     0.035 C 
HETATM   20  C   UNL     1      -5.575  -0.670 -33.891  1.00  0.00     0.031 C 
HETATM   21  N   UNL     1      -6.266   0.485 -33.910  1.00  0.00    -0.256 NA
HETATM   22  C   UNL     1      -6.037  -1.765 -34.804  1.00  0.00     0.070 C 
HETATM   23  C   UNL     1      -5.817   1.510 -33.138  1.00  0.00     0.058 C 
HETATM   24  C   UNL     1      -6.655   2.755 -33.233  1.00  0.00     0.073 C 
ENDBRANCH   1  16
TORSDOF 3
ENDMDL
