MODEL 1
REMARK VINA RESULT:      -8.0      0.000      0.000
REMARK  3 active torsions:
REMARK  status: ('A' for Active; 'I' for Inactive)
REMARK    1  A    between atoms: C_7  and  C_8 
REMARK    2  A    between atoms: N_11  and  C_13 
REMARK    3  A    between atoms: C_13  and  C_14 
ROOT
HETATM    1  C   UNL     1      -4.859   1.333 -30.754  1.00  0.00     0.024 C 
HETATM    2  C   UNL     1      -5.421   2.712 -30.350  1.00  0.00     0.037 C 
HETATM    3  C   UNL     1      -5.460   3.672 -31.534  1.00  0.00     0.236 C 
HETATM    4  N   UNL     1      -4.087   3.830 -32.149  1.00  0.00    -0.067 N 
HETATM    5  H   UNL     1      -3.485   4.312 -31.468  1.00  0.00     0.280 HD
HETATM    6  C   UNL     1      -3.424   2.509 -32.477  1.00  0.00     0.236 C 
HETATM    7  C   UNL     1      -3.439   1.594 -31.260  1.00  0.00     0.037 C 
ENDROOT
BRANCH   1   8
HETATM    8  C   UNL     1      -5.780   0.588 -31.715  1.00  0.00    -0.026 A 
HETATM    9  C   UNL     1      -5.512  -0.513 -32.616  1.00  0.00    -0.001 A 
HETATM   10  C   UNL     1      -6.689  -0.759 -33.334  1.00  0.00     0.045 A 
HETATM   11  C   UNL     1      -4.394  -1.328 -32.920  1.00  0.00     0.017 A 
HETATM   12  C   UNL     1      -6.784  -1.715 -34.355  1.00  0.00     0.072 A 
HETATM   13  N   UNL     1      -7.661   0.064 -32.828  1.00  0.00    -0.365 N 
HETATM   14  C   UNL     1      -5.648  -2.461 -34.644  1.00  0.00     0.118 A 
HETATM   15  C   UNL     1      -4.470  -2.289 -33.938  1.00  0.00     0.043 A 
HETATM   16  F   UNL     1      -5.697  -3.375 -35.622  1.00  0.00    -0.206 F 
HETATM   17  C   UNL     1      -7.133   0.864 -31.856  1.00  0.00     0.096 A 
HETATM   18  H   UNL     1      -8.629   0.058 -33.124  1.00  0.00     0.165 HD
ENDBRANCH   1   8
BRANCH   4  19
HETATM   19  C   UNL     1      -4.169   4.749 -33.361  1.00  0.00     0.282 C 
BRANCH  19  20
HETATM   20  C   UNL     1      -3.253   5.917 -33.304  1.00  0.00     0.027 A 
HETATM   21  S   UNL     1      -3.122   6.894 -31.898  1.00  0.00    -0.084 SA
HETATM   22  C   UNL     1      -1.950   7.860 -32.697  1.00  0.00     0.166 A 
HETATM   23  N   UNL     1      -1.653   7.496 -33.923  1.00  0.00    -0.265 NA
HETATM   24  C   UNL     1      -2.409   6.404 -34.283  1.00  0.00     0.133 A 
ENDBRANCH  19  20
ENDBRANCH   4  19
TORSDOF 3
ENDMDL
MODEL 2
REMARK VINA RESULT:      -7.7      2.436      3.986
REMARK  3 active torsions:
REMARK  status: ('A' for Active; 'I' for Inactive)
REMARK    1  A    between atoms: C_7  and  C_8 
REMARK    2  A    between atoms: N_11  and  C_13 
REMARK    3  A    between atoms: C_13  and  C_14 
ROOT
HETATM    1  C   UNL     1      -7.633   0.017 -34.237  1.00  0.00     0.024 C 
HETATM    2  C   UNL     1      -7.365   1.501 -34.566  1.00  0.00     0.037 C 
HETATM    3  C   UNL     1      -6.672   2.217 -33.413  1.00  0.00     0.236 C 
HETATM    4  N   UNL     1      -7.484   2.105 -32.141  1.00  0.00    -0.067 N 
HETATM    5  H   UNL     1      -8.354   2.640 -32.269  1.00  0.00     0.280 HD
HETATM    6  C   UNL     1      -7.878   0.682 -31.807  1.00  0.00     0.236 C 
HETATM    7  C   UNL     1      -8.542   0.022 -33.007  1.00  0.00     0.037 C 
ENDROOT
BRANCH   1   8
HETATM    8  C   UNL     1      -6.347  -0.792 -34.109  1.00  0.00    -0.026 A 
HETATM    9  C   UNL     1      -6.088  -2.198 -34.345  1.00  0.00    -0.001 A 
HETATM   10  C   UNL     1      -4.754  -2.440 -33.993  1.00  0.00     0.045 A 
HETATM   11  C   UNL     1      -6.840  -3.306 -34.807  1.00  0.00     0.017 A 
HETATM   12  C   UNL     1      -4.167  -3.713 -34.024  1.00  0.00     0.072 A 
HETATM   13  N   UNL     1      -4.188  -1.235 -33.667  1.00  0.00    -0.365 N 
HETATM   14  C   UNL     1      -4.959  -4.774 -34.444  1.00  0.00     0.118 A 
HETATM   15  C   UNL     1      -6.270  -4.585 -34.843  1.00  0.00     0.043 A 
HETATM   16  F   UNL     1      -4.437  -6.008 -34.475  1.00  0.00    -0.206 F 
HETATM   17  C   UNL     1      -5.125  -0.245 -33.742  1.00  0.00     0.096 A 
HETATM   18  H   UNL     1      -3.212  -1.106 -33.427  1.00  0.00     0.165 HD
ENDBRANCH   1   8
BRANCH   4  19
HETATM   19  C   UNL     1      -6.742   2.781 -30.995  1.00  0.00     0.282 C 
BRANCH  19  20
HETATM   20  C   UNL     1      -5.272   2.868 -31.187  1.00  0.00     0.027 A 
HETATM   21  S   UNL     1      -4.509   4.328 -31.674  1.00  0.00    -0.084 SA
HETATM   22  C   UNL     1      -2.988   3.535 -31.616  1.00  0.00     0.166 A 
HETATM   23  N   UNL     1      -3.018   2.273 -31.253  1.00  0.00    -0.265 NA
HETATM   24  C   UNL     1      -4.319   1.881 -31.030  1.00  0.00     0.133 A 
ENDBRANCH  19  20
ENDBRANCH   4  19
TORSDOF 3
ENDMDL
MODEL 3
REMARK VINA RESULT:      -7.6      3.810      4.777
REMARK  3 active torsions:
REMARK  status: ('A' for Active; 'I' for Inactive)
REMARK    1  A    between atoms: C_7  and  C_8 
REMARK    2  A    between atoms: N_11  and  C_13 
REMARK    3  A    between atoms: C_13  and  C_14 
ROOT
HETATM    1  C   UNL     1      -7.407   0.275 -34.394  1.00  0.00     0.024 C 
HETATM    2  C   UNL     1      -7.076   1.781 -34.325  1.00  0.00     0.037 C 
HETATM    3  C   UNL     1      -6.669   2.204 -32.919  1.00  0.00     0.236 C 
HETATM    4  N   UNL     1      -7.750   1.864 -31.917  1.00  0.00    -0.067 N 
HETATM    5  H   UNL     1      -8.570   2.452 -32.119  1.00  0.00     0.280 HD
HETATM    6  C   UNL     1      -8.204   0.422 -31.996  1.00  0.00     0.236 C 
HETATM    7  C   UNL     1      -8.574   0.061 -33.427  1.00  0.00     0.037 C 
ENDROOT
BRANCH   1   8
HETATM    8  C   UNL     1      -6.181  -0.601 -34.158  1.00  0.00    -0.026 A 
HETATM    9  C   UNL     1      -5.978  -2.019 -34.374  1.00  0.00    -0.001 A 
HETATM   10  C   UNL     1      -4.694  -2.331 -33.910  1.00  0.00     0.045 A 
HETATM   11  C   UNL     1      -6.747  -3.087 -34.899  1.00  0.00     0.017 A 
HETATM   12  C   UNL     1      -4.175  -3.633 -33.893  1.00  0.00     0.072 A 
HETATM   13  N   UNL     1      -4.094  -1.157 -33.536  1.00  0.00    -0.365 N 
HETATM   14  C   UNL     1      -4.983  -4.652 -34.381  1.00  0.00     0.118 A 
HETATM   15  C   UNL     1      -6.245  -4.395 -34.889  1.00  0.00     0.043 A 
HETATM   16  F   UNL     1      -4.527  -5.912 -34.369  1.00  0.00    -0.206 F 
HETATM   17  C   UNL     1      -4.967  -0.119 -33.689  1.00  0.00     0.096 A 
HETATM   18  H   UNL     1      -3.137  -1.079 -33.214  1.00  0.00     0.165 HD
ENDBRANCH   1   8
BRANCH   4  19
HETATM   19  C   UNL     1      -7.292   2.248 -30.516  1.00  0.00     0.282 C 
BRANCH  19  20
HETATM   20  C   UNL     1      -7.760   3.584 -30.065  1.00  0.00     0.027 A 
HETATM   21  S   UNL     1      -9.303   4.196 -30.506  1.00  0.00    -0.084 SA
HETATM   22  C   UNL     1      -8.977   5.621 -29.606  1.00  0.00     0.166 A 
HETATM   23  N   UNL     1      -7.811   5.658 -29.001  1.00  0.00    -0.265 NA
HETATM   24  C   UNL     1      -7.104   4.510 -29.278  1.00  0.00     0.133 A 
ENDBRANCH  19  20
ENDBRANCH   4  19
TORSDOF 3
ENDMDL
MODEL 4
REMARK VINA RESULT:      -7.4      3.704      7.387
REMARK  3 active torsions:
REMARK  status: ('A' for Active; 'I' for Inactive)
REMARK    1  A    between atoms: C_7  and  C_8 
REMARK    2  A    between atoms: N_11  and  C_13 
REMARK    3  A    between atoms: C_13  and  C_14 
ROOT
HETATM    1  C   UNL     1      -4.965   1.324 -30.907  1.00  0.00     0.024 C 
HETATM    2  C   UNL     1      -3.816   0.501 -31.524  1.00  0.00     0.037 C 
HETATM    3  C   UNL     1      -4.184  -0.034 -32.903  1.00  0.00     0.236 C 
HETATM    4  N   UNL     1      -5.445  -0.867 -32.841  1.00  0.00    -0.067 N 
HETATM    5  H   UNL     1      -5.241  -1.718 -32.299  1.00  0.00     0.280 HD
HETATM    6  C   UNL     1      -6.593  -0.162 -32.151  1.00  0.00     0.236 C 
HETATM    7  C   UNL     1      -6.151   0.364 -30.792  1.00  0.00     0.037 C 
ENDROOT
BRANCH   1   8
HETATM    8  C   UNL     1      -5.230   2.618 -31.671  1.00  0.00    -0.026 A 
HETATM    9  C   UNL     1      -4.324   3.497 -32.381  1.00  0.00    -0.001 A 
HETATM   10  C   UNL     1      -5.072   4.592 -32.829  1.00  0.00     0.045 A 
HETATM   11  C   UNL     1      -2.940   3.500 -32.685  1.00  0.00     0.017 A 
HETATM   12  C   UNL     1      -4.512   5.688 -33.499  1.00  0.00     0.072 A 
HETATM   13  N   UNL     1      -6.385   4.350 -32.516  1.00  0.00    -0.365 N 
HETATM   14  C   UNL     1      -3.143   5.663 -33.737  1.00  0.00     0.118 A 
HETATM   15  C   UNL     1      -2.361   4.587 -33.353  1.00  0.00     0.043 A 
HETATM   16  F   UNL     1      -2.568   6.698 -34.364  1.00  0.00    -0.206 F 
HETATM   17  C   UNL     1      -6.491   3.172 -31.834  1.00  0.00     0.096 A 
HETATM   18  H   UNL     1      -7.157   4.953 -32.775  1.00  0.00     0.165 HD
ENDBRANCH   1   8
BRANCH   4  19
HETATM   19  C   UNL     1      -5.819  -1.341 -34.240  1.00  0.00     0.282 C 
BRANCH  19  20
HETATM   20  C   UNL     1      -5.682  -2.805 -34.446  1.00  0.00     0.027 A 
HETATM   21  S   UNL     1      -4.212  -3.629 -34.116  1.00  0.00    -0.084 SA
HETATM   22  C   UNL     1      -4.951  -5.104 -34.590  1.00  0.00     0.166 A 
HETATM   23  N   UNL     1      -6.208  -5.018 -34.962  1.00  0.00    -0.265 NA
HETATM   24  C   UNL     1      -6.623  -3.706 -34.905  1.00  0.00     0.133 A 
ENDBRANCH  19  20
ENDBRANCH   4  19
TORSDOF 3
ENDMDL
MODEL 5
REMARK VINA RESULT:      -7.3      3.417      5.181
REMARK  3 active torsions:
REMARK  status: ('A' for Active; 'I' for Inactive)
REMARK    1  A    between atoms: C_7  and  C_8 
REMARK    2  A    between atoms: N_11  and  C_13 
REMARK    3  A    between atoms: C_13  and  C_14 
ROOT
HETATM    1  C   UNL     1      -4.565   1.812 -32.323  1.00  0.00     0.024 C 
HETATM    2  C   UNL     1      -4.802   1.756 -30.799  1.00  0.00     0.037 C 
HETATM    3  C   UNL     1      -6.285   1.653 -30.464  1.00  0.00     0.236 C 
HETATM    4  N   UNL     1      -7.057   2.806 -31.068  1.00  0.00    -0.067 N 
HETATM    5  H   UNL     1      -6.762   3.671 -30.596  1.00  0.00     0.280 HD
HETATM    6  C   UNL     1      -6.794   2.991 -32.547  1.00  0.00     0.236 C 
HETATM    7  C   UNL     1      -5.297   3.064 -32.812  1.00  0.00     0.037 C 
ENDROOT
BRANCH   1   8
HETATM    8  C   UNL     1      -4.942   0.508 -33.019  1.00  0.00    -0.026 A 
HETATM    9  C   UNL     1      -4.427  -0.835 -32.850  1.00  0.00    -0.001 A 
HETATM   10  C   UNL     1      -5.061  -1.646 -33.800  1.00  0.00     0.045 A 
HETATM   11  C   UNL     1      -3.478  -1.461 -32.005  1.00  0.00     0.017 A 
HETATM   12  C   UNL     1      -4.759  -3.002 -33.982  1.00  0.00     0.072 A 
HETATM   13  N   UNL     1      -5.996  -0.876 -34.443  1.00  0.00    -0.365 N 
HETATM   14  C   UNL     1      -3.791  -3.560 -33.156  1.00  0.00     0.118 A 
HETATM   15  C   UNL     1      -3.163  -2.816 -32.172  1.00  0.00     0.043 A 
HETATM   16  F   UNL     1      -3.466  -4.851 -33.307  1.00  0.00    -0.206 F 
HETATM   17  C   UNL     1      -5.940   0.407 -33.978  1.00  0.00     0.096 A 
HETATM   18  H   UNL     1      -6.641  -1.221 -35.142  1.00  0.00     0.165 HD
ENDBRANCH   1   8
BRANCH   4  19
HETATM   19  C   UNL     1      -8.542   2.647 -30.763  1.00  0.00     0.282 C 
BRANCH  19  20
HETATM   20  C   UNL     1      -9.284   1.826 -31.753  1.00  0.00     0.027 A 
HETATM   21  S   UNL     1     -10.394   2.529 -32.859  1.00  0.00    -0.084 SA
HETATM   22  C   UNL     1     -10.696   0.974 -33.520  1.00  0.00     0.166 A 
HETATM   23  N   UNL     1     -10.021  -0.015 -32.981  1.00  0.00    -0.265 NA
HETATM   24  C   UNL     1      -9.232   0.461 -31.958  1.00  0.00     0.133 A 
ENDBRANCH  19  20
ENDBRANCH   4  19
TORSDOF 3
ENDMDL
MODEL 6
REMARK VINA RESULT:      -7.1      1.890      2.484
REMARK  3 active torsions:
REMARK  status: ('A' for Active; 'I' for Inactive)
REMARK    1  A    between atoms: C_7  and  C_8 
REMARK    2  A    between atoms: N_11  and  C_13 
REMARK    3  A    between atoms: C_13  and  C_14 
ROOT
HETATM    1  C   UNL     1      -4.771   0.564 -30.707  1.00  0.00     0.024 C 
HETATM    2  C   UNL     1      -5.361   1.836 -30.063  1.00  0.00     0.037 C 
HETATM    3  C   UNL     1      -5.461   2.980 -31.065  1.00  0.00     0.236 C 
HETATM    4  N   UNL     1      -4.110   3.285 -31.674  1.00  0.00    -0.067 N 
HETATM    5  H   UNL     1      -3.504   3.665 -30.935  1.00  0.00     0.280 HD
HETATM    6  C   UNL     1      -3.419   2.061 -32.236  1.00  0.00     0.236 C 
HETATM    7  C   UNL     1      -3.373   0.954 -31.193  1.00  0.00     0.037 C 
ENDROOT
BRANCH   1   8
HETATM    8  C   UNL     1      -5.695  -0.038 -31.760  1.00  0.00    -0.026 A 
HETATM    9  C   UNL     1      -5.455  -1.067 -32.751  1.00  0.00    -0.001 A 
HETATM   10  C   UNL     1      -6.617  -1.180 -33.524  1.00  0.00     0.045 A 
HETATM   11  C   UNL     1      -4.371  -1.913 -33.094  1.00  0.00     0.017 A 
HETATM   12  C   UNL     1      -6.727  -2.033 -34.630  1.00  0.00     0.072 A 
HETATM   13  N   UNL     1      -7.561  -0.353 -32.974  1.00  0.00    -0.365 N 
HETATM   14  C   UNL     1      -5.623  -2.812 -34.952  1.00  0.00     0.118 A 
HETATM   15  C   UNL     1      -4.463  -2.771 -34.198  1.00  0.00     0.043 A 
HETATM   16  F   UNL     1      -5.685  -3.631 -36.011  1.00  0.00    -0.206 F 
HETATM   17  C   UNL     1      -7.026   0.325 -31.916  1.00  0.00     0.096 A 
HETATM   18  H   UNL     1      -8.517  -0.278 -33.298  1.00  0.00     0.165 HD
ENDBRANCH   1   8
BRANCH   4  19
HETATM   19  C   UNL     1      -4.252   4.393 -32.711  1.00  0.00     0.282 C 
BRANCH  19  20
HETATM   20  C   UNL     1      -5.653   4.681 -33.109  1.00  0.00     0.027 A 
HETATM   21  S   UNL     1      -6.491   6.063 -32.527  1.00  0.00    -0.084 SA
HETATM   22  C   UNL     1      -7.865   5.597 -33.444  1.00  0.00     0.166 A 
HETATM   23  N   UNL     1      -7.731   4.498 -34.151  1.00  0.00    -0.265 NA
HETATM   24  C   UNL     1      -6.481   3.959 -33.946  1.00  0.00     0.133 A 
ENDBRANCH  19  20
ENDBRANCH   4  19
TORSDOF 3
ENDMDL
MODEL 7
REMARK VINA RESULT:      -7.0      3.426      6.397
REMARK  3 active torsions:
REMARK  status: ('A' for Active; 'I' for Inactive)
REMARK    1  A    between atoms: C_7  and  C_8 
REMARK    2  A    between atoms: N_11  and  C_13 
REMARK    3  A    between atoms: C_13  and  C_14 
ROOT
HETATM    1  C   UNL     1      -6.771   4.174 -31.989  1.00  0.00     0.024 C 
HETATM    2  C   UNL     1      -7.314   3.567 -30.679  1.00  0.00     0.037 C 
HETATM    3  C   UNL     1      -6.844   2.129 -30.488  1.00  0.00     0.236 C 
HETATM    4  N   UNL     1      -7.247   1.268 -31.665  1.00  0.00    -0.067 N 
HETATM    5  H   UNL     1      -8.272   1.188 -31.668  1.00  0.00     0.280 HD
HETATM    6  C   UNL     1      -6.839   1.854 -33.000  1.00  0.00     0.236 C 
HETATM    7  C   UNL     1      -7.320   3.294 -33.114  1.00  0.00     0.037 C 
ENDROOT
BRANCH   1   8
HETATM    8  C   UNL     1      -5.257   4.352 -31.965  1.00  0.00    -0.026 A 
HETATM    9  C   UNL     1      -4.328   4.683 -33.026  1.00  0.00    -0.001 A 
HETATM   10  C   UNL     1      -3.039   4.635 -32.481  1.00  0.00     0.045 A 
HETATM   11  C   UNL     1      -4.430   5.006 -34.402  1.00  0.00     0.017 A 
HETATM   12  C   UNL     1      -1.874   4.832 -33.235  1.00  0.00     0.072 A 
HETATM   13  N   UNL     1      -3.168   4.401 -31.136  1.00  0.00    -0.365 N 
HETATM   14  C   UNL     1      -2.025   5.105 -34.589  1.00  0.00     0.118 A 
HETATM   15  C   UNL     1      -3.276   5.205 -35.172  1.00  0.00     0.043 A 
HETATM   16  F   UNL     1      -0.935   5.286 -35.346  1.00  0.00    -0.206 F 
HETATM   17  C   UNL     1      -4.486   4.241 -30.817  1.00  0.00     0.096 A 
HETATM   18  H   UNL     1      -2.396   4.374 -30.482  1.00  0.00     0.165 HD
ENDBRANCH   1   8
BRANCH   4  19
HETATM   19  C   UNL     1      -6.717  -0.147 -31.472  1.00  0.00     0.282 C 
BRANCH  19  20
HETATM   20  C   UNL     1      -5.246  -0.276 -31.635  1.00  0.00     0.027 A 
HETATM   21  S   UNL     1      -4.557  -1.166 -32.933  1.00  0.00    -0.084 SA
HETATM   22  C   UNL     1      -2.991  -0.772 -32.350  1.00  0.00     0.166 A 
HETATM   23  N   UNL     1      -2.957  -0.023 -31.272  1.00  0.00    -0.265 NA
HETATM   24  C   UNL     1      -4.239   0.243 -30.847  1.00  0.00     0.133 A 
ENDBRANCH  19  20
ENDBRANCH   4  19
TORSDOF 3
ENDMDL
MODEL 8
REMARK VINA RESULT:      -7.0      1.750      2.522
REMARK  3 active torsions:
REMARK  status: ('A' for Active; 'I' for Inactive)
REMARK    1  A    between atoms: C_7  and  C_8 
REMARK    2  A    between atoms: N_11  and  C_13 
REMARK    3  A    between atoms: C_13  and  C_14 
ROOT
HETATM    1  C   UNL     1      -6.286   3.275 -32.564  1.00  0.00     0.024 C 
HETATM    2  C   UNL     1      -6.495   4.030 -33.894  1.00  0.00     0.037 C 
HETATM    3  C   UNL     1      -5.170   4.480 -34.499  1.00  0.00     0.236 C 
HETATM    4  N   UNL     1      -4.397   5.344 -33.528  1.00  0.00    -0.067 N 
HETATM    5  H   UNL     1      -4.915   6.224 -33.399  1.00  0.00     0.280 HD
HETATM    6  C   UNL     1      -4.242   4.713 -32.161  1.00  0.00     0.236 C 
HETATM    7  C   UNL     1      -5.596   4.268 -31.626  1.00  0.00     0.037 C 
ENDROOT
BRANCH   1   8
HETATM    8  C   UNL     1      -5.574   1.941 -32.758  1.00  0.00    -0.026 A 
HETATM    9  C   UNL     1      -5.941   0.780 -33.543  1.00  0.00    -0.001 A 
HETATM   10  C   UNL     1      -4.978  -0.208 -33.301  1.00  0.00     0.045 A 
HETATM   11  C   UNL     1      -6.996   0.443 -34.427  1.00  0.00     0.017 A 
HETATM   12  C   UNL     1      -5.046  -1.500 -33.839  1.00  0.00     0.072 A 
HETATM   13  N   UNL     1      -4.010   0.346 -32.504  1.00  0.00    -0.365 N 
HETATM   14  C   UNL     1      -6.123  -1.794 -34.667  1.00  0.00     0.118 A 
HETATM   15  C   UNL     1      -7.081  -0.844 -34.974  1.00  0.00     0.043 A 
HETATM   16  F   UNL     1      -6.229  -3.023 -35.190  1.00  0.00    -0.206 F 
HETATM   17  C   UNL     1      -4.350   1.629 -32.183  1.00  0.00     0.096 A 
HETATM   18  H   UNL     1      -3.162  -0.127 -32.219  1.00  0.00     0.165 HD
ENDBRANCH   1   8
BRANCH   4  19
HETATM   19  C   UNL     1      -3.056   5.732 -34.138  1.00  0.00     0.282 C 
BRANCH  19  20
HETATM   20  C   UNL     1      -2.011   6.084 -33.143  1.00  0.00     0.027 A 
HETATM   21  S   UNL     1      -1.880   7.668 -32.493  1.00  0.00    -0.084 SA
HETATM   22  C   UNL     1      -0.551   7.149 -31.539  1.00  0.00     0.166 A 
HETATM   23  N   UNL     1      -0.215   5.886 -31.669  1.00  0.00    -0.265 NA
HETATM   24  C   UNL     1      -1.029   5.280 -32.600  1.00  0.00     0.133 A 
ENDBRANCH  19  20
ENDBRANCH   4  19
TORSDOF 3
ENDMDL
MODEL 9
REMARK VINA RESULT:      -6.8      4.083      8.193
REMARK  3 active torsions:
REMARK  status: ('A' for Active; 'I' for Inactive)
REMARK    1  A    between atoms: C_7  and  C_8 
REMARK    2  A    between atoms: N_11  and  C_13 
REMARK    3  A    between atoms: C_13  and  C_14 
ROOT
HETATM    1  C   UNL     1      -3.089   5.993 -33.609  1.00  0.00     0.024 C 
HETATM    2  C   UNL     1      -4.573   5.602 -33.767  1.00  0.00     0.037 C 
HETATM    3  C   UNL     1      -5.000   4.577 -32.724  1.00  0.00     0.236 C 
HETATM    4  N   UNL     1      -4.128   3.342 -32.790  1.00  0.00    -0.067 N 
HETATM    5  H   UNL     1      -4.312   2.868 -33.684  1.00  0.00     0.280 HD
HETATM    6  C   UNL     1      -2.647   3.655 -32.746  1.00  0.00     0.236 C 
HETATM    7  C   UNL     1      -2.295   4.698 -33.797  1.00  0.00     0.037 C 
ENDROOT
BRANCH   1   8
HETATM    8  C   UNL     1      -2.823   6.753 -32.313  1.00  0.00    -0.026 A 
HETATM    9  C   UNL     1      -1.602   6.921 -31.552  1.00  0.00    -0.001 A 
HETATM   10  C   UNL     1      -1.929   7.639 -30.395  1.00  0.00     0.045 A 
HETATM   11  C   UNL     1      -0.248   6.532 -31.703  1.00  0.00     0.017 A 
HETATM   12  C   UNL     1      -1.007   7.930 -29.380  1.00  0.00     0.072 A 
HETATM   13  N   UNL     1      -3.250   7.994 -30.489  1.00  0.00    -0.365 N 
HETATM   14  C   UNL     1       0.300   7.491 -29.556  1.00  0.00     0.118 A 
HETATM   15  C   UNL     1       0.688   6.813 -30.699  1.00  0.00     0.043 A 
HETATM   16  F   UNL     1       1.207   7.739 -28.603  1.00  0.00    -0.206 F 
HETATM   17  C   UNL     1      -3.790   7.479 -31.633  1.00  0.00     0.096 A 
HETATM   18  H   UNL     1      -3.739   8.570 -29.814  1.00  0.00     0.165 HD
ENDBRANCH   1   8
BRANCH   4  19
HETATM   19  C   UNL     1      -4.542   2.361 -31.701  1.00  0.00     0.282 C 
BRANCH  19  20
HETATM   20  C   UNL     1      -4.365   0.932 -32.067  1.00  0.00     0.027 A 
HETATM   21  S   UNL     1      -3.237  -0.075 -31.253  1.00  0.00    -0.084 SA
HETATM   22  C   UNL     1      -3.713  -1.388 -32.250  1.00  0.00     0.166 A 
HETATM   23  N   UNL     1      -4.653  -1.123 -33.129  1.00  0.00    -0.265 NA
HETATM   24  C   UNL     1      -5.011   0.203 -33.045  1.00  0.00     0.133 A 
ENDBRANCH  19  20
ENDBRANCH   4  19
TORSDOF 3
ENDMDL
MODEL 10
REMARK VINA RESULT:      -6.8      5.194      8.952
REMARK  3 active torsions:
REMARK  status: ('A' for Active; 'I' for Inactive)
REMARK    1  A    between atoms: C_7  and  C_8 
REMARK    2  A    between atoms: N_11  and  C_13 
REMARK    3  A    between atoms: C_13  and  C_14 
ROOT
HETATM    1  C   UNL     1      -0.509   6.669 -31.937  1.00  0.00     0.024 C 
HETATM    2  C   UNL     1      -1.736   7.604 -31.940  1.00  0.00     0.037 C 
HETATM    3  C   UNL     1      -2.973   6.911 -31.381  1.00  0.00     0.236 C 
HETATM    4  N   UNL     1      -3.281   5.647 -32.154  1.00  0.00    -0.067 N 
HETATM    5  H   UNL     1      -3.564   5.915 -33.106  1.00  0.00     0.280 HD
HETATM    6  C   UNL     1      -2.089   4.722 -32.285  1.00  0.00     0.236 C 
HETATM    7  C   UNL     1      -0.887   5.482 -32.827  1.00  0.00     0.037 C 
ENDROOT
BRANCH   1   8
HETATM    8  C   UNL     1      -0.047   6.319 -30.527  1.00  0.00    -0.026 A 
HETATM    9  C   UNL     1      -0.042   7.109 -29.312  1.00  0.00    -0.001 A 
HETATM   10  C   UNL     1       0.570   6.338 -28.316  1.00  0.00     0.045 A 
HETATM   11  C   UNL     1      -0.477   8.406 -28.941  1.00  0.00     0.017 A 
HETATM   12  C   UNL     1       0.815   6.807 -27.018  1.00  0.00     0.072 A 
HETATM   13  N   UNL     1       0.826   5.102 -28.851  1.00  0.00    -0.365 N 
HETATM   14  C   UNL     1       0.408   8.100 -26.716  1.00  0.00     0.118 A 
HETATM   15  C   UNL     1      -0.239   8.892 -27.649  1.00  0.00     0.043 A 
HETATM   16  F   UNL     1       0.636   8.588 -25.490  1.00  0.00    -0.206 F 
HETATM   17  C   UNL     1       0.454   5.077 -30.164  1.00  0.00     0.096 A 
HETATM   18  H   UNL     1       1.216   4.323 -28.334  1.00  0.00     0.165 HD
ENDBRANCH   1   8
BRANCH   4  19
HETATM   19  C   UNL     1      -4.487   4.948 -31.538  1.00  0.00     0.282 C 
BRANCH  19  20
HETATM   20  C   UNL     1      -5.130   3.946 -32.425  1.00  0.00     0.027 A 
HETATM   21  S   UNL     1      -5.183   2.279 -32.015  1.00  0.00    -0.084 SA
HETATM   22  C   UNL     1      -6.037   1.964 -33.470  1.00  0.00     0.166 A 
HETATM   23  N   UNL     1      -6.287   3.012 -34.222  1.00  0.00    -0.265 NA
HETATM   24  C   UNL     1      -5.752   4.141 -33.643  1.00  0.00     0.133 A 
ENDBRANCH  19  20
ENDBRANCH   4  19
TORSDOF 3
ENDMDL
