MODEL 1
REMARK VINA RESULT:      -8.5      0.000      0.000
REMARK  6 active torsions:
REMARK  status: ('A' for Active; 'I' for Inactive)
REMARK    1  A    between atoms: C_3  and  C_4 
REMARK    2  A    between atoms: C_4  and  O_5 
REMARK    3  A    between atoms: O_5  and  C_6 
REMARK    4  A    between atoms: C_9  and  C_10 
REMARK       I    between atoms: C_10  and  N_11 
REMARK    5  A    between atoms: N_11  and  N_12 
REMARK       I    between atoms: N_12  and  C_13 
REMARK    6  A    between atoms: C_13  and  C_14 
ROOT
HETATM    1  C   UNL     1      -6.179  -4.705 -34.998  1.00  0.00     0.001 A 
HETATM    2  C   UNL     1      -6.788  -3.450 -34.984  1.00  0.00     0.011 A 
HETATM    3  C   UNL     1      -6.117  -2.323 -34.477  1.00  0.00    -0.013 A 
HETATM    4  C   UNL     1      -4.793  -2.482 -34.018  1.00  0.00     0.053 A 
HETATM    5  C   UNL     1      -4.024  -1.370 -33.536  1.00  0.00     0.100 C 
HETATM    6  N   UNL     1      -3.414  -0.458 -33.157  1.00  0.00    -0.191 NA
HETATM    7  C   UNL     1      -4.189  -3.750 -34.033  1.00  0.00     0.023 A 
HETATM    8  C   UNL     1      -4.881  -4.858 -34.518  1.00  0.00     0.002 A 
ENDROOT
BRANCH   3   9
HETATM    9  C   UNL     1      -6.790  -0.961 -34.487  1.00  0.00     0.216 C 
BRANCH   9  10
HETATM   10  O   UNL     1      -7.421  -0.710 -33.227  1.00  0.00    -0.347 OA
BRANCH  10  11
HETATM   11  C   UNL     1      -6.860   0.278 -32.464  1.00  0.00     0.069 A 
HETATM   12  C   UNL     1      -6.681   0.224 -31.082  1.00  0.00     0.038 A 
HETATM   13  C   UNL     1      -6.125   1.318 -30.408  1.00  0.00     0.020 A 
HETATM   14  C   UNL     1      -5.728   2.465 -31.110  1.00  0.00     0.033 A 
HETATM   15  C   UNL     1      -5.886   2.504 -32.499  1.00  0.00     0.020 A 
HETATM   16  C   UNL     1      -6.441   1.408 -33.169  1.00  0.00     0.038 A 
BRANCH  14  17
HETATM   17  C   UNL     1      -5.196   3.615 -30.326  1.00  0.00     0.270 C 
HETATM   18  N   UNL     1      -5.665   3.772 -29.039  1.00  0.00    -0.263 N 
HETATM   19  H   UNL     1      -6.421   3.239 -28.616  1.00  0.00     0.190 HD
HETATM   20  O   UNL     1      -4.379   4.387 -30.823  1.00  0.00    -0.266 OA
BRANCH  18  21
HETATM   21  N   UNL     1      -5.159   4.835 -28.286  1.00  0.00    -0.262 N 
HETATM   22  C   UNL     1      -5.894   5.995 -28.176  1.00  0.00     0.286 C 
HETATM   23  O   UNL     1      -6.959   6.147 -28.774  1.00  0.00    -0.264 OA
HETATM   24  H   UNL     1      -4.285   4.667 -27.794  1.00  0.00     0.190 HD
BRANCH  22  25
HETATM   25  C   UNL     1      -5.330   7.010 -27.313  1.00  0.00     0.102 A 
HETATM   26  N   UNL     1      -4.365   6.701 -26.376  1.00  0.00    -0.361 N 
HETATM   27  H   UNL     1      -4.000   5.766 -26.233  1.00  0.00     0.165 HD
HETATM   28  C   UNL     1      -3.990   7.824 -25.690  1.00  0.00     0.088 A 
HETATM   29  C   UNL     1      -4.715   8.882 -26.187  1.00  0.00     0.019 A 
HETATM   30  C   UNL     1      -5.557   8.373 -27.206  1.00  0.00     0.036 A 
ENDBRANCH  22  25
ENDBRANCH  18  21
ENDBRANCH  14  17
ENDBRANCH  10  11
ENDBRANCH   9  10
ENDBRANCH   3   9
TORSDOF 6
ENDMDL
MODEL 2
REMARK VINA RESULT:      -8.4      2.609      2.913
REMARK  6 active torsions:
REMARK  status: ('A' for Active; 'I' for Inactive)
REMARK    1  A    between atoms: C_3  and  C_4 
REMARK    2  A    between atoms: C_4  and  O_5 
REMARK    3  A    between atoms: O_5  and  C_6 
REMARK    4  A    between atoms: C_9  and  C_10 
REMARK       I    between atoms: C_10  and  N_11 
REMARK    5  A    between atoms: N_11  and  N_12 
REMARK       I    between atoms: N_12  and  C_13 
REMARK    6  A    between atoms: C_13  and  C_14 
ROOT
HETATM    1  C   UNL     1      -6.171  -4.722 -34.979  1.00  0.00     0.001 A 
HETATM    2  C   UNL     1      -6.723  -3.442 -35.047  1.00  0.00     0.011 A 
HETATM    3  C   UNL     1      -6.017  -2.321 -34.574  1.00  0.00    -0.013 A 
HETATM    4  C   UNL     1      -4.717  -2.515 -34.064  1.00  0.00     0.053 A 
HETATM    5  C   UNL     1      -3.914  -1.414 -33.612  1.00  0.00     0.100 C 
HETATM    6  N   UNL     1      -3.276  -0.511 -33.259  1.00  0.00    -0.191 NA
HETATM    7  C   UNL     1      -4.171  -3.806 -33.996  1.00  0.00     0.023 A 
HETATM    8  C   UNL     1      -4.897  -4.906 -34.449  1.00  0.00     0.002 A 
ENDROOT
BRANCH   3   9
HETATM    9  C   UNL     1      -6.628  -0.933 -34.673  1.00  0.00     0.216 C 
BRANCH   9  10
HETATM   10  O   UNL     1      -7.236  -0.568 -33.430  1.00  0.00    -0.347 OA
BRANCH  10  11
HETATM   11  C   UNL     1      -6.597   0.407 -32.715  1.00  0.00     0.069 A 
HETATM   12  C   UNL     1      -6.402   0.398 -31.334  1.00  0.00     0.038 A 
HETATM   13  C   UNL     1      -5.762   1.476 -30.713  1.00  0.00     0.020 A 
HETATM   14  C   UNL     1      -5.297   2.563 -31.466  1.00  0.00     0.033 A 
HETATM   15  C   UNL     1      -5.472   2.557 -32.854  1.00  0.00     0.020 A 
HETATM   16  C   UNL     1      -6.111   1.476 -33.471  1.00  0.00     0.038 A 
BRANCH  14  17
HETATM   17  C   UNL     1      -4.675   3.704 -30.737  1.00  0.00     0.270 C 
HETATM   18  N   UNL     1      -3.462   4.166 -31.204  1.00  0.00    -0.263 N 
HETATM   19  H   UNL     1      -2.904   3.727 -31.931  1.00  0.00     0.190 HD
HETATM   20  O   UNL     1      -5.230   4.199 -29.759  1.00  0.00    -0.266 OA
BRANCH  18  21
HETATM   21  N   UNL     1      -2.879   5.250 -30.542  1.00  0.00    -0.262 N 
HETATM   22  C   UNL     1      -1.506   5.339 -30.472  1.00  0.00     0.286 C 
HETATM   23  O   UNL     1      -0.776   4.455 -30.922  1.00  0.00    -0.264 OA
HETATM   24  H   UNL     1      -3.513   5.965 -30.198  1.00  0.00     0.190 HD
BRANCH  22  25
HETATM   25  C   UNL     1      -0.991   6.532 -29.839  1.00  0.00     0.102 A 
HETATM   26  N   UNL     1       0.344   6.652 -29.510  1.00  0.00    -0.361 N 
HETATM   27  H   UNL     1       1.032   5.927 -29.682  1.00  0.00     0.165 HD
HETATM   28  C   UNL     1       0.585   7.867 -28.929  1.00  0.00     0.088 A 
HETATM   29  C   UNL     1      -0.606   8.554 -28.882  1.00  0.00     0.019 A 
HETATM   30  C   UNL     1      -1.597   7.718 -29.452  1.00  0.00     0.036 A 
ENDBRANCH  22  25
ENDBRANCH  18  21
ENDBRANCH  14  17
ENDBRANCH  10  11
ENDBRANCH   9  10
ENDBRANCH   3   9
TORSDOF 6
ENDMDL
MODEL 3
REMARK VINA RESULT:      -8.3      5.971      7.655
REMARK  6 active torsions:
REMARK  status: ('A' for Active; 'I' for Inactive)
REMARK    1  A    between atoms: C_3  and  C_4 
REMARK    2  A    between atoms: C_4  and  O_5 
REMARK    3  A    between atoms: O_5  and  C_6 
REMARK    4  A    between atoms: C_9  and  C_10 
REMARK       I    between atoms: C_10  and  N_11 
REMARK    5  A    between atoms: N_11  and  N_12 
REMARK       I    between atoms: N_12  and  C_13 
REMARK    6  A    between atoms: C_13  and  C_14 
ROOT
HETATM    1  C   UNL     1      -3.092  -2.343 -31.959  1.00  0.00     0.001 A 
HETATM    2  C   UNL     1      -3.989  -1.578 -32.705  1.00  0.00     0.011 A 
HETATM    3  C   UNL     1      -4.774  -2.161 -33.716  1.00  0.00    -0.013 A 
HETATM    4  C   UNL     1      -4.664  -3.551 -33.931  1.00  0.00     0.053 A 
HETATM    5  C   UNL     1      -5.470  -4.228 -34.908  1.00  0.00     0.100 C 
HETATM    6  N   UNL     1      -6.136  -4.759 -35.696  1.00  0.00    -0.191 NA
HETATM    7  C   UNL     1      -3.757  -4.312 -33.178  1.00  0.00     0.023 A 
HETATM    8  C   UNL     1      -2.971  -3.709 -32.197  1.00  0.00     0.002 A 
ENDROOT
BRANCH   3   9
HETATM    9  C   UNL     1      -5.758  -1.315 -34.506  1.00  0.00     0.216 C 
BRANCH   9  10
HETATM   10  O   UNL     1      -6.083  -0.125 -33.780  1.00  0.00    -0.347 OA
BRANCH  10  11
HETATM   11  C   UNL     1      -7.416   0.114 -33.589  1.00  0.00     0.069 A 
HETATM   12  C   UNL     1      -8.109  -0.092 -32.397  1.00  0.00     0.038 A 
HETATM   13  C   UNL     1      -9.484   0.158 -32.337  1.00  0.00     0.020 A 
HETATM   14  C   UNL     1     -10.175   0.631 -33.461  1.00  0.00     0.033 A 
HETATM   15  C   UNL     1      -9.472   0.861 -34.649  1.00  0.00     0.020 A 
HETATM   16  C   UNL     1      -8.096   0.612 -34.703  1.00  0.00     0.038 A 
BRANCH  14  17
HETATM   17  C   UNL     1     -11.649   0.822 -33.348  1.00  0.00     0.270 C 
HETATM   18  N   UNL     1     -12.100   2.096 -33.071  1.00  0.00    -0.263 N 
HETATM   19  H   UNL     1     -11.514   2.890 -32.830  1.00  0.00     0.190 HD
HETATM   20  O   UNL     1     -12.416  -0.127 -33.492  1.00  0.00    -0.266 OA
BRANCH  18  21
HETATM   21  N   UNL     1     -13.481   2.292 -32.983  1.00  0.00    -0.262 N 
HETATM   22  C   UNL     1     -13.980   3.161 -32.037  1.00  0.00     0.286 C 
HETATM   23  O   UNL     1     -13.248   3.723 -31.222  1.00  0.00    -0.264 OA
HETATM   24  H   UNL     1     -14.051   1.824 -33.681  1.00  0.00     0.190 HD
BRANCH  22  25
HETATM   25  C   UNL     1     -15.411   3.363 -32.072  1.00  0.00     0.102 A 
HETATM   26  N   UNL     1     -15.956   4.625 -32.198  1.00  0.00    -0.361 N 
HETATM   27  H   UNL     1     -15.401   5.471 -32.270  1.00  0.00     0.165 HD
HETATM   28  C   UNL     1     -17.322   4.556 -32.210  1.00  0.00     0.088 A 
HETATM   29  C   UNL     1     -17.677   3.233 -32.094  1.00  0.00     0.019 A 
HETATM   30  C   UNL     1     -16.479   2.482 -32.006  1.00  0.00     0.036 A 
ENDBRANCH  22  25
ENDBRANCH  18  21
ENDBRANCH  14  17
ENDBRANCH  10  11
ENDBRANCH   9  10
ENDBRANCH   3   9
TORSDOF 6
ENDMDL
MODEL 4
REMARK VINA RESULT:      -8.3      6.854      8.444
REMARK  6 active torsions:
REMARK  status: ('A' for Active; 'I' for Inactive)
REMARK    1  A    between atoms: C_3  and  C_4 
REMARK    2  A    between atoms: C_4  and  O_5 
REMARK    3  A    between atoms: O_5  and  C_6 
REMARK    4  A    between atoms: C_9  and  C_10 
REMARK       I    between atoms: C_10  and  N_11 
REMARK    5  A    between atoms: N_11  and  N_12 
REMARK       I    between atoms: N_12  and  C_13 
REMARK    6  A    between atoms: C_13  and  C_14 
ROOT
HETATM    1  C   UNL     1      -6.083  -3.001 -34.849  1.00  0.00     0.001 A 
HETATM    2  C   UNL     1      -6.822  -2.010 -34.200  1.00  0.00     0.011 A 
HETATM    3  C   UNL     1      -6.243  -1.214 -33.195  1.00  0.00    -0.013 A 
HETATM    4  C   UNL     1      -4.882  -1.411 -32.886  1.00  0.00     0.053 A 
HETATM    5  C   UNL     1      -4.206  -0.602 -31.911  1.00  0.00     0.100 C 
HETATM    6  N   UNL     1      -3.675   0.068 -31.126  1.00  0.00    -0.191 NA
HETATM    7  C   UNL     1      -4.147  -2.411 -33.542  1.00  0.00     0.023 A 
HETATM    8  C   UNL     1      -4.747  -3.205 -34.517  1.00  0.00     0.002 A 
ENDROOT
BRANCH   3   9
HETATM    9  C   UNL     1      -7.059  -0.129 -32.513  1.00  0.00     0.216 C 
BRANCH   9  10
HETATM   10  O   UNL     1      -7.394   0.902 -33.448  1.00  0.00    -0.347 OA
BRANCH  10  11
HETATM   11  C   UNL     1      -8.730   1.132 -33.632  1.00  0.00     0.069 A 
HETATM   12  C   UNL     1      -9.275   2.242 -34.277  1.00  0.00     0.038 A 
HETATM   13  C   UNL     1     -10.665   2.381 -34.370  1.00  0.00     0.020 A 
HETATM   14  C   UNL     1     -11.520   1.407 -33.836  1.00  0.00     0.033 A 
HETATM   15  C   UNL     1     -10.968   0.283 -33.211  1.00  0.00     0.020 A 
HETATM   16  C   UNL     1      -9.578   0.147 -33.122  1.00  0.00     0.038 A 
BRANCH  14  17
HETATM   17  C   UNL     1     -12.988   1.644 -33.918  1.00  0.00     0.270 C 
HETATM   18  N   UNL     1     -13.622   2.079 -32.773  1.00  0.00    -0.263 N 
HETATM   19  H   UNL     1     -13.197   2.147 -31.852  1.00  0.00     0.190 HD
HETATM   20  O   UNL     1     -13.596   1.450 -34.968  1.00  0.00    -0.266 OA
BRANCH  18  21
HETATM   21  N   UNL     1     -14.996   2.326 -32.842  1.00  0.00    -0.262 N 
HETATM   22  C   UNL     1     -15.541   3.331 -32.074  1.00  0.00     0.286 C 
HETATM   23  O   UNL     1     -14.862   3.979 -31.277  1.00  0.00    -0.264 OA
HETATM   24  H   UNL     1     -15.521   1.782 -33.521  1.00  0.00     0.190 HD
BRANCH  22  25
HETATM   25  C   UNL     1     -16.954   3.568 -32.270  1.00  0.00     0.102 A 
HETATM   26  N   UNL     1     -17.677   2.865 -33.213  1.00  0.00    -0.361 N 
HETATM   27  H   UNL     1     -17.273   2.158 -33.816  1.00  0.00     0.165 HD
HETATM   28  C   UNL     1     -18.985   3.264 -33.205  1.00  0.00     0.088 A 
HETATM   29  C   UNL     1     -19.123   4.236 -32.242  1.00  0.00     0.019 A 
HETATM   30  C   UNL     1     -17.849   4.429 -31.654  1.00  0.00     0.036 A 
ENDBRANCH  22  25
ENDBRANCH  18  21
ENDBRANCH  14  17
ENDBRANCH  10  11
ENDBRANCH   9  10
ENDBRANCH   3   9
TORSDOF 6
ENDMDL
MODEL 5
REMARK VINA RESULT:      -8.3      5.796      7.565
REMARK  6 active torsions:
REMARK  status: ('A' for Active; 'I' for Inactive)
REMARK    1  A    between atoms: C_3  and  C_4 
REMARK    2  A    between atoms: C_4  and  O_5 
REMARK    3  A    between atoms: O_5  and  C_6 
REMARK    4  A    between atoms: C_9  and  C_10 
REMARK       I    between atoms: C_10  and  N_11 
REMARK    5  A    between atoms: N_11  and  N_12 
REMARK       I    between atoms: N_12  and  C_13 
REMARK    6  A    between atoms: C_13  and  C_14 
ROOT
HETATM    1  C   UNL     1      -4.417  -4.440 -34.186  1.00  0.00     0.001 A 
HETATM    2  C   UNL     1      -5.022  -3.194 -34.355  1.00  0.00     0.011 A 
HETATM    3  C   UNL     1      -4.675  -2.103 -33.538  1.00  0.00    -0.013 A 
HETATM    4  C   UNL     1      -3.669  -2.286 -32.567  1.00  0.00     0.053 A 
HETATM    5  C   UNL     1      -3.223  -1.207 -31.732  1.00  0.00     0.100 C 
HETATM    6  N   UNL     1      -2.870  -0.320 -31.071  1.00  0.00    -0.191 NA
HETATM    7  C   UNL     1      -3.068  -3.544 -32.402  1.00  0.00     0.023 A 
HETATM    8  C   UNL     1      -3.444  -4.618 -33.207  1.00  0.00     0.002 A 
ENDROOT
BRANCH   3   9
HETATM    9  C   UNL     1      -5.332  -0.749 -33.749  1.00  0.00     0.216 C 
BRANCH   9  10
HETATM   10  O   UNL     1      -6.444  -0.871 -34.643  1.00  0.00    -0.347 OA
BRANCH  10  11
HETATM   11  C   UNL     1      -7.530  -0.090 -34.356  1.00  0.00     0.069 A 
HETATM   12  C   UNL     1      -7.767   1.183 -34.874  1.00  0.00     0.038 A 
HETATM   13  C   UNL     1      -8.901   1.898 -34.475  1.00  0.00     0.020 A 
HETATM   14  C   UNL     1      -9.817   1.342 -33.571  1.00  0.00     0.033 A 
HETATM   15  C   UNL     1      -9.589   0.054 -33.073  1.00  0.00     0.020 A 
HETATM   16  C   UNL     1      -8.454  -0.658 -33.476  1.00  0.00     0.038 A 
BRANCH  14  17
HETATM   17  C   UNL     1     -10.974   2.178 -33.143  1.00  0.00     0.270 C 
HETATM   18  N   UNL     1     -12.227   1.608 -33.221  1.00  0.00    -0.263 N 
HETATM   19  H   UNL     1     -12.441   0.709 -33.645  1.00  0.00     0.190 HD
HETATM   20  O   UNL     1     -10.802   3.328 -32.746  1.00  0.00    -0.266 OA
BRANCH  18  21
HETATM   21  N   UNL     1     -13.318   2.374 -32.802  1.00  0.00    -0.262 N 
HETATM   22  C   UNL     1     -14.594   1.890 -32.991  1.00  0.00     0.286 C 
HETATM   23  O   UNL     1     -14.805   0.827 -33.576  1.00  0.00    -0.264 OA
HETATM   24  H   UNL     1     -13.105   3.237 -32.310  1.00  0.00     0.190 HD
BRANCH  22  25
HETATM   25  C   UNL     1     -15.657   2.712 -32.456  1.00  0.00     0.102 A 
HETATM   26  N   UNL     1     -15.499   4.073 -32.290  1.00  0.00    -0.361 N 
HETATM   27  H   UNL     1     -14.648   4.572 -32.524  1.00  0.00     0.165 HD
HETATM   28  C   UNL     1     -16.639   4.626 -31.775  1.00  0.00     0.088 A 
HETATM   29  C   UNL     1     -17.557   3.616 -31.605  1.00  0.00     0.019 A 
HETATM   30  C   UNL     1     -16.942   2.413 -32.031  1.00  0.00     0.036 A 
ENDBRANCH  22  25
ENDBRANCH  18  21
ENDBRANCH  14  17
ENDBRANCH  10  11
ENDBRANCH   9  10
ENDBRANCH   3   9
TORSDOF 6
ENDMDL
MODEL 6
REMARK VINA RESULT:      -8.2      4.549      6.090
REMARK  6 active torsions:
REMARK  status: ('A' for Active; 'I' for Inactive)
REMARK    1  A    between atoms: C_3  and  C_4 
REMARK    2  A    between atoms: C_4  and  O_5 
REMARK    3  A    between atoms: O_5  and  C_6 
REMARK    4  A    between atoms: C_9  and  C_10 
REMARK       I    between atoms: C_10  and  N_11 
REMARK    5  A    between atoms: N_11  and  N_12 
REMARK       I    between atoms: N_12  and  C_13 
REMARK    6  A    between atoms: C_13  and  C_14 
ROOT
HETATM    1  C   UNL     1      -4.642  -4.845 -34.183  1.00  0.00     0.001 A 
HETATM    2  C   UNL     1      -4.048  -3.616 -33.893  1.00  0.00     0.011 A 
HETATM    3  C   UNL     1      -4.718  -2.407 -34.157  1.00  0.00    -0.013 A 
HETATM    4  C   UNL     1      -6.024  -2.466 -34.684  1.00  0.00     0.053 A 
HETATM    5  C   UNL     1      -6.792  -1.278 -34.931  1.00  0.00     0.100 C 
HETATM    6  N   UNL     1      -7.400  -0.307 -35.115  1.00  0.00    -0.191 NA
HETATM    7  C   UNL     1      -6.612  -3.707 -34.976  1.00  0.00     0.023 A 
HETATM    8  C   UNL     1      -5.921  -4.892 -34.729  1.00  0.00     0.002 A 
ENDROOT
BRANCH   3   9
HETATM    9  C   UNL     1      -4.063  -1.079 -33.817  1.00  0.00     0.216 C 
BRANCH   9  10
HETATM   10  O   UNL     1      -4.217  -0.792 -32.423  1.00  0.00    -0.347 OA
BRANCH  10  11
HETATM   11  C   UNL     1      -5.319  -0.056 -32.082  1.00  0.00     0.069 A 
HETATM   12  C   UNL     1      -6.362  -0.497 -31.269  1.00  0.00     0.038 A 
HETATM   13  C   UNL     1      -7.455   0.341 -31.021  1.00  0.00     0.020 A 
HETATM   14  C   UNL     1      -7.508   1.630 -31.569  1.00  0.00     0.033 A 
HETATM   15  C   UNL     1      -6.447   2.078 -32.364  1.00  0.00     0.020 A 
HETATM   16  C   UNL     1      -5.355   1.237 -32.607  1.00  0.00     0.038 A 
BRANCH  14  17
HETATM   17  C   UNL     1      -8.726   2.449 -31.314  1.00  0.00     0.270 C 
HETATM   18  N   UNL     1      -9.819   2.223 -32.123  1.00  0.00    -0.263 N 
HETATM   19  H   UNL     1      -9.831   1.626 -32.946  1.00  0.00     0.190 HD
HETATM   20  O   UNL     1      -8.738   3.292 -30.419  1.00  0.00    -0.266 OA
BRANCH  18  21
HETATM   21  N   UNL     1     -10.975   2.970 -31.880  1.00  0.00    -0.262 N 
HETATM   22  C   UNL     1     -11.977   2.991 -32.826  1.00  0.00     0.286 C 
HETATM   23  O   UNL     1     -11.857   2.419 -33.910  1.00  0.00    -0.264 OA
HETATM   24  H   UNL     1     -11.045   3.415 -30.969  1.00  0.00     0.190 HD
BRANCH  22  25
HETATM   25  C   UNL     1     -13.167   3.723 -32.456  1.00  0.00     0.102 A 
HETATM   26  N   UNL     1     -13.529   4.884 -33.109  1.00  0.00    -0.361 N 
HETATM   27  H   UNL     1     -12.995   5.290 -33.869  1.00  0.00     0.165 HD
HETATM   28  C   UNL     1     -14.688   5.386 -32.583  1.00  0.00     0.088 A 
HETATM   29  C   UNL     1     -15.093   4.541 -31.576  1.00  0.00     0.019 A 
HETATM   30  C   UNL     1     -14.139   3.497 -31.494  1.00  0.00     0.036 A 
ENDBRANCH  22  25
ENDBRANCH  18  21
ENDBRANCH  14  17
ENDBRANCH  10  11
ENDBRANCH   9  10
ENDBRANCH   3   9
TORSDOF 6
ENDMDL
MODEL 7
REMARK VINA RESULT:      -8.1      6.515      8.068
REMARK  6 active torsions:
REMARK  status: ('A' for Active; 'I' for Inactive)
REMARK    1  A    between atoms: C_3  and  C_4 
REMARK    2  A    between atoms: C_4  and  O_5 
REMARK    3  A    between atoms: O_5  and  C_6 
REMARK    4  A    between atoms: C_9  and  C_10 
REMARK       I    between atoms: C_10  and  N_11 
REMARK    5  A    between atoms: N_11  and  N_12 
REMARK       I    between atoms: N_12  and  C_13 
REMARK    6  A    between atoms: C_13  and  C_14 
ROOT
HETATM    1  C   UNL     1      -6.602  -3.503 -34.795  1.00  0.00     0.001 A 
HETATM    2  C   UNL     1      -7.074  -2.271 -34.341  1.00  0.00     0.011 A 
HETATM    3  C   UNL     1      -6.207  -1.339 -33.740  1.00  0.00    -0.013 A 
HETATM    4  C   UNL     1      -4.838  -1.662 -33.645  1.00  0.00     0.053 A 
HETATM    5  C   UNL     1      -3.884  -0.742 -33.094  1.00  0.00     0.100 C 
HETATM    6  N   UNL     1      -3.126   0.019 -32.653  1.00  0.00    -0.191 NA
HETATM    7  C   UNL     1      -4.373  -2.905 -34.101  1.00  0.00     0.023 A 
HETATM    8  C   UNL     1      -5.253  -3.824 -34.671  1.00  0.00     0.002 A 
ENDROOT
BRANCH   3   9
HETATM    9  C   UNL     1      -6.737   0.005 -33.269  1.00  0.00     0.216 C 
BRANCH   9  10
HETATM   10  O   UNL     1      -7.989  -0.163 -32.596  1.00  0.00    -0.347 OA
BRANCH  10  11
HETATM   11  C   UNL     1      -9.040   0.553 -33.101  1.00  0.00     0.069 A 
HETATM   12  C   UNL     1     -10.380   0.171 -33.039  1.00  0.00     0.038 A 
HETATM   13  C   UNL     1     -11.362   0.976 -33.626  1.00  0.00     0.020 A 
HETATM   14  C   UNL     1     -11.018   2.176 -34.264  1.00  0.00     0.033 A 
HETATM   15  C   UNL     1      -9.676   2.568 -34.302  1.00  0.00     0.020 A 
HETATM   16  C   UNL     1      -8.697   1.761 -33.712  1.00  0.00     0.038 A 
BRANCH  14  17
HETATM   17  C   UNL     1     -12.105   2.957 -34.918  1.00  0.00     0.270 C 
HETATM   18  N   UNL     1     -12.413   4.186 -34.374  1.00  0.00    -0.263 N 
HETATM   19  H   UNL     1     -12.041   4.557 -33.503  1.00  0.00     0.190 HD
HETATM   20  O   UNL     1     -12.697   2.509 -35.897  1.00  0.00    -0.266 OA
BRANCH  18  21
HETATM   21  N   UNL     1     -13.416   4.939 -34.991  1.00  0.00    -0.262 N 
HETATM   22  C   UNL     1     -13.066   6.022 -35.768  1.00  0.00     0.286 C 
HETATM   23  O   UNL     1     -11.896   6.385 -35.884  1.00  0.00    -0.264 OA
HETATM   24  H   UNL     1     -14.368   4.600 -34.885  1.00  0.00     0.190 HD
BRANCH  22  25
HETATM   25  C   UNL     1     -14.162   6.692 -36.431  1.00  0.00     0.102 A 
HETATM   26  N   UNL     1     -15.409   6.781 -35.847  1.00  0.00    -0.361 N 
HETATM   27  H   UNL     1     -15.633   6.390 -34.939  1.00  0.00     0.165 HD
HETATM   28  C   UNL     1     -16.271   7.462 -36.664  1.00  0.00     0.088 A 
HETATM   29  C   UNL     1     -15.579   7.826 -37.795  1.00  0.00     0.019 A 
HETATM   30  C   UNL     1     -14.255   7.343 -37.652  1.00  0.00     0.036 A 
ENDBRANCH  22  25
ENDBRANCH  18  21
ENDBRANCH  14  17
ENDBRANCH  10  11
ENDBRANCH   9  10
ENDBRANCH   3   9
TORSDOF 6
ENDMDL
MODEL 8
REMARK VINA RESULT:      -8.1      3.745      9.801
REMARK  6 active torsions:
REMARK  status: ('A' for Active; 'I' for Inactive)
REMARK    1  A    between atoms: C_3  and  C_4 
REMARK    2  A    between atoms: C_4  and  O_5 
REMARK    3  A    between atoms: O_5  and  C_6 
REMARK    4  A    between atoms: C_9  and  C_10 
REMARK       I    between atoms: C_10  and  N_11 
REMARK    5  A    between atoms: N_11  and  N_12 
REMARK       I    between atoms: N_12  and  C_13 
REMARK    6  A    between atoms: C_13  and  C_14 
ROOT
HETATM    1  C   UNL     1      -0.353   7.371 -29.252  1.00  0.00     0.001 A 
HETATM    2  C   UNL     1      -1.642   7.531 -29.763  1.00  0.00     0.011 A 
HETATM    3  C   UNL     1      -1.907   7.344 -31.132  1.00  0.00    -0.013 A 
HETATM    4  C   UNL     1      -0.846   6.948 -31.972  1.00  0.00     0.053 A 
HETATM    5  C   UNL     1      -1.049   6.686 -33.369  1.00  0.00     0.100 C 
HETATM    6  N   UNL     1      -1.234   6.471 -34.495  1.00  0.00    -0.191 NA
HETATM    7  C   UNL     1       0.448   6.794 -31.450  1.00  0.00     0.023 A 
HETATM    8  C   UNL     1       0.694   7.007 -30.095  1.00  0.00     0.002 A 
ENDROOT
BRANCH   3   9
HETATM    9  C   UNL     1      -3.320   7.504 -31.667  1.00  0.00     0.216 C 
BRANCH   9  10
HETATM   10  O   UNL     1      -4.244   6.773 -30.854  1.00  0.00    -0.347 OA
BRANCH  10  11
HETATM   11  C   UNL     1      -4.674   5.578 -31.364  1.00  0.00     0.069 A 
HETATM   12  C   UNL     1      -4.983   4.445 -30.612  1.00  0.00     0.038 A 
HETATM   13  C   UNL     1      -5.380   3.268 -31.255  1.00  0.00     0.020 A 
HETATM   14  C   UNL     1      -5.487   3.216 -32.652  1.00  0.00     0.033 A 
HETATM   15  C   UNL     1      -5.200   4.363 -33.402  1.00  0.00     0.020 A 
HETATM   16  C   UNL     1      -4.806   5.538 -32.753  1.00  0.00     0.038 A 
BRANCH  14  17
HETATM   17  C   UNL     1      -5.859   1.916 -33.278  1.00  0.00     0.270 C 
HETATM   18  N   UNL     1      -5.568   0.769 -32.570  1.00  0.00    -0.263 N 
HETATM   19  H   UNL     1      -5.025   0.727 -31.711  1.00  0.00     0.190 HD
HETATM   20  O   UNL     1      -6.397   1.884 -34.383  1.00  0.00    -0.266 OA
BRANCH  18  21
HETATM   21  N   UNL     1      -5.931  -0.456 -33.136  1.00  0.00    -0.262 N 
HETATM   22  C   UNL     1      -4.961  -1.247 -33.713  1.00  0.00     0.286 C 
HETATM   23  O   UNL     1      -3.790  -0.877 -33.800  1.00  0.00    -0.264 OA
HETATM   24  H   UNL     1      -6.903  -0.734 -33.032  1.00  0.00     0.190 HD
BRANCH  22  25
HETATM   25  C   UNL     1      -5.414  -2.530 -34.201  1.00  0.00     0.102 A 
HETATM   26  N   UNL     1      -4.635  -3.662 -34.075  1.00  0.00    -0.361 N 
HETATM   27  H   UNL     1      -3.717  -3.667 -33.645  1.00  0.00     0.165 HD
HETATM   28  C   UNL     1      -5.280  -4.746 -34.607  1.00  0.00     0.088 A 
HETATM   29  C   UNL     1      -6.497  -4.319 -35.084  1.00  0.00     0.019 A 
HETATM   30  C   UNL     1      -6.583  -2.928 -34.831  1.00  0.00     0.036 A 
ENDBRANCH  22  25
ENDBRANCH  18  21
ENDBRANCH  14  17
ENDBRANCH  10  11
ENDBRANCH   9  10
ENDBRANCH   3   9
TORSDOF 6
ENDMDL
MODEL 9
REMARK VINA RESULT:      -8.1      4.872      9.493
REMARK  6 active torsions:
REMARK  status: ('A' for Active; 'I' for Inactive)
REMARK    1  A    between atoms: C_3  and  C_4 
REMARK    2  A    between atoms: C_4  and  O_5 
REMARK    3  A    between atoms: O_5  and  C_6 
REMARK    4  A    between atoms: C_9  and  C_10 
REMARK       I    between atoms: C_10  and  N_11 
REMARK    5  A    between atoms: N_11  and  N_12 
REMARK       I    between atoms: N_12  and  C_13 
REMARK    6  A    between atoms: C_13  and  C_14 
ROOT
HETATM    1  C   UNL     1       0.681   5.914 -28.558  1.00  0.00     0.001 A 
HETATM    2  C   UNL     1       0.321   5.261 -29.737  1.00  0.00     0.011 A 
HETATM    3  C   UNL     1      -0.420   5.920 -30.734  1.00  0.00    -0.013 A 
HETATM    4  C   UNL     1      -0.756   7.275 -30.533  1.00  0.00     0.053 A 
HETATM    5  C   UNL     1      -1.465   8.031 -31.527  1.00  0.00     0.100 C 
HETATM    6  N   UNL     1      -2.030   8.628 -32.346  1.00  0.00    -0.191 NA
HETATM    7  C   UNL     1      -0.393   7.923 -29.342  1.00  0.00     0.023 A 
HETATM    8  C   UNL     1       0.321   7.243 -28.357  1.00  0.00     0.002 A 
ENDROOT
BRANCH   3   9
HETATM    9  C   UNL     1      -0.788   5.198 -32.020  1.00  0.00     0.216 C 
BRANCH   9  10
HETATM   10  O   UNL     1      -1.539   4.015 -31.726  1.00  0.00    -0.347 OA
BRANCH  10  11
HETATM   11  C   UNL     1      -2.796   3.955 -32.264  1.00  0.00     0.069 A 
HETATM   12  C   UNL     1      -3.302   4.827 -33.227  1.00  0.00     0.038 A 
HETATM   13  C   UNL     1      -4.620   4.683 -33.674  1.00  0.00     0.020 A 
HETATM   14  C   UNL     1      -5.437   3.659 -33.176  1.00  0.00     0.033 A 
HETATM   15  C   UNL     1      -4.917   2.771 -32.227  1.00  0.00     0.020 A 
HETATM   16  C   UNL     1      -3.598   2.918 -31.785  1.00  0.00     0.038 A 
BRANCH  14  17
HETATM   17  C   UNL     1      -6.848   3.596 -33.650  1.00  0.00     0.270 C 
HETATM   18  N   UNL     1      -7.514   2.399 -33.491  1.00  0.00    -0.263 N 
HETATM   19  H   UNL     1      -7.095   1.527 -33.181  1.00  0.00     0.190 HD
HETATM   20  O   UNL     1      -7.380   4.577 -34.165  1.00  0.00    -0.266 OA
BRANCH  18  21
HETATM   21  N   UNL     1      -8.845   2.334 -33.913  1.00  0.00    -0.262 N 
HETATM   22  C   UNL     1      -9.613   1.246 -33.557  1.00  0.00     0.286 C 
HETATM   23  O   UNL     1      -9.142   0.297 -32.930  1.00  0.00    -0.264 OA
HETATM   24  H   UNL     1      -9.203   3.141 -34.414  1.00  0.00     0.190 HD
BRANCH  22  25
HETATM   25  C   UNL     1     -10.998   1.301 -33.968  1.00  0.00     0.102 A 
HETATM   26  N   UNL     1     -11.961   0.526 -33.354  1.00  0.00    -0.361 N 
HETATM   27  H   UNL     1     -11.764  -0.117 -32.595  1.00  0.00     0.165 HD
HETATM   28  C   UNL     1     -13.188   0.757 -33.914  1.00  0.00     0.088 A 
HETATM   29  C   UNL     1     -13.028   1.698 -34.905  1.00  0.00     0.019 A 
HETATM   30  C   UNL     1     -11.653   2.040 -34.941  1.00  0.00     0.036 A 
ENDBRANCH  22  25
ENDBRANCH  18  21
ENDBRANCH  14  17
ENDBRANCH  10  11
ENDBRANCH   9  10
ENDBRANCH   3   9
TORSDOF 6
ENDMDL
MODEL 10
REMARK VINA RESULT:      -8.0      3.458     10.265
REMARK  6 active torsions:
REMARK  status: ('A' for Active; 'I' for Inactive)
REMARK    1  A    between atoms: C_3  and  C_4 
REMARK    2  A    between atoms: C_4  and  O_5 
REMARK    3  A    between atoms: O_5  and  C_6 
REMARK    4  A    between atoms: C_9  and  C_10 
REMARK       I    between atoms: C_10  and  N_11 
REMARK    5  A    between atoms: N_11  and  N_12 
REMARK       I    between atoms: N_12  and  C_13 
REMARK    6  A    between atoms: C_13  and  C_14 
ROOT
HETATM    1  C   UNL     1      -1.179   9.246 -28.111  1.00  0.00     0.001 A 
HETATM    2  C   UNL     1      -1.755   8.899 -29.334  1.00  0.00     0.011 A 
HETATM    3  C   UNL     1      -1.292   7.788 -30.064  1.00  0.00    -0.013 A 
HETATM    4  C   UNL     1      -0.259   7.006 -29.510  1.00  0.00     0.053 A 
HETATM    5  C   UNL     1       0.230   5.827 -30.168  1.00  0.00     0.100 C 
HETATM    6  N   UNL     1       0.606   4.873 -30.712  1.00  0.00    -0.191 NA
HETATM    7  C   UNL     1       0.316   7.364 -28.280  1.00  0.00     0.023 A 
HETATM    8  C   UNL     1      -0.141   8.482 -27.585  1.00  0.00     0.002 A 
ENDROOT
BRANCH   3   9
HETATM    9  C   UNL     1      -1.944   7.416 -31.385  1.00  0.00     0.216 C 
BRANCH   9  10
HETATM   10  O   UNL     1      -3.271   6.928 -31.164  1.00  0.00    -0.347 OA
BRANCH  10  11
HETATM   11  C   UNL     1      -3.465   5.594 -31.393  1.00  0.00     0.069 A 
HETATM   12  C   UNL     1      -4.404   4.792 -30.746  1.00  0.00     0.038 A 
HETATM   13  C   UNL     1      -4.481   3.428 -31.045  1.00  0.00     0.020 A 
HETATM   14  C   UNL     1      -3.633   2.856 -32.004  1.00  0.00     0.033 A 
HETATM   15  C   UNL     1      -2.708   3.668 -32.669  1.00  0.00     0.020 A 
HETATM   16  C   UNL     1      -2.637   5.033 -32.368  1.00  0.00     0.038 A 
BRANCH  14  17
HETATM   17  C   UNL     1      -3.727   1.386 -32.234  1.00  0.00     0.270 C 
HETATM   18  N   UNL     1      -4.744   0.940 -33.051  1.00  0.00    -0.263 N 
HETATM   19  H   UNL     1      -5.499   1.512 -33.421  1.00  0.00     0.190 HD
HETATM   20  O   UNL     1      -2.927   0.617 -31.705  1.00  0.00    -0.266 OA
BRANCH  18  21
HETATM   21  N   UNL     1      -4.830  -0.434 -33.292  1.00  0.00    -0.262 N 
HETATM   22  C   UNL     1      -5.851  -0.919 -34.080  1.00  0.00     0.286 C 
HETATM   23  O   UNL     1      -6.730  -0.182 -34.528  1.00  0.00    -0.264 OA
HETATM   24  H   UNL     1      -4.080  -1.008 -32.919  1.00  0.00     0.190 HD
BRANCH  22  25
HETATM   25  C   UNL     1      -5.815  -2.340 -34.341  1.00  0.00     0.102 A 
HETATM   26  N   UNL     1      -4.652  -3.069 -34.193  1.00  0.00    -0.361 N 
HETATM   27  H   UNL     1      -3.770  -2.664 -33.903  1.00  0.00     0.165 HD
HETATM   28  C   UNL     1      -4.873  -4.385 -34.493  1.00  0.00     0.088 A 
HETATM   29  C   UNL     1      -6.198  -4.522 -34.837  1.00  0.00     0.019 A 
HETATM   30  C   UNL     1      -6.791  -3.239 -34.743  1.00  0.00     0.036 A 
ENDBRANCH  22  25
ENDBRANCH  18  21
ENDBRANCH  14  17
ENDBRANCH  10  11
ENDBRANCH   9  10
ENDBRANCH   3   9
TORSDOF 6
ENDMDL
