MODEL 1
REMARK VINA RESULT:      -8.9      0.000      0.000
REMARK  4 active torsions:
REMARK  status: ('A' for Active; 'I' for Inactive)
REMARK    1  A    between atoms: C_2  and  C_3 
REMARK    2  A    between atoms: C_8  and  N_9 
REMARK       I    between atoms: N_9  and  C_10 
REMARK       I    between atoms: C_10  and  N_11 
REMARK    3  A    between atoms: N_11  and  C_12 
REMARK    4  A    between atoms: C_12  and  C_13 
ROOT
HETATM    1  N   UNL     1      -2.338   5.150 -31.585  1.00  0.00    -0.305 N 
HETATM    2  C   UNL     1      -3.499   4.422 -31.645  1.00  0.00     0.321 C 
HETATM    3  N   UNL     1      -3.375   3.212 -30.991  1.00  0.00    -0.339 N 
HETATM    4  O   UNL     1      -4.536   4.747 -32.206  1.00  0.00    -0.247 OA
HETATM    5  H   UNL     1      -1.518   4.655 -31.269  1.00  0.00     0.171 HD
HETATM    6  H   UNL     1      -2.750   3.193 -30.199  1.00  0.00     0.164 HD
ENDROOT
BRANCH   3   7
HETATM    7  C   UNL     1      -4.554   2.379 -30.875  1.00  0.00     0.162 C 
BRANCH   7   8
HETATM    8  C   UNL     1      -4.508   1.177 -31.781  1.00  0.00    -0.040 A 
HETATM    9  C   UNL     1      -5.659   0.748 -32.462  1.00  0.00     0.021 A 
HETATM   10  C   UNL     1      -5.655  -0.425 -33.235  1.00  0.00    -0.025 A 
HETATM   11  C   UNL     1      -4.470  -1.189 -33.327  1.00  0.00    -0.026 A 
HETATM   12  C   UNL     1      -6.809  -0.869 -33.903  1.00  0.00     0.012 A 
HETATM   13  C   UNL     1      -3.319  -0.751 -32.657  1.00  0.00     0.013 A 
HETATM   14  C   UNL     1      -4.472  -2.377 -34.077  1.00  0.00     0.012 A 
HETATM   15  C   UNL     1      -3.338   0.417 -31.890  1.00  0.00     0.010 A 
HETATM   16  C   UNL     1      -5.628  -2.806 -34.729  1.00  0.00     0.001 A 
HETATM   17  C   UNL     1      -6.795  -2.052 -34.644  1.00  0.00     0.001 A 
ENDBRANCH   7   8
ENDBRANCH   3   7
BRANCH   1  18
HETATM   18  C   UNL     1      -2.142   6.444 -32.059  1.00  0.00     0.095 A 
HETATM   19  C   UNL     1      -1.685   6.715 -33.336  1.00  0.00     0.107 A 
HETATM   20  O   UNL     1      -1.572   8.057 -33.504  1.00  0.00    -0.215 OA
HETATM   21  N   UNL     1      -1.955   8.702 -32.354  1.00  0.00    -0.131 NA
HETATM   22  C   UNL     1      -2.295   7.741 -31.481  1.00  0.00     0.087 A 
HETATM   23  C   UNL     1      -2.737   8.168 -30.132  1.00  0.00     0.075 C 
BRANCH  19  24
HETATM   24  C   UNL     1      -1.300   5.901 -34.513  1.00  0.00     0.065 C 
HETATM   25  C   UNL     1      -2.485   5.134 -35.079  1.00  0.00     0.012 C 
ENDBRANCH  19  24
ENDBRANCH   1  18
TORSDOF 4
ENDMDL
MODEL 2
REMARK VINA RESULT:      -8.9      0.669      2.168
REMARK  4 active torsions:
REMARK  status: ('A' for Active; 'I' for Inactive)
REMARK    1  A    between atoms: C_2  and  C_3 
REMARK    2  A    between atoms: C_8  and  N_9 
REMARK       I    between atoms: N_9  and  C_10 
REMARK       I    between atoms: C_10  and  N_11 
REMARK    3  A    between atoms: N_11  and  C_12 
REMARK    4  A    between atoms: C_12  and  C_13 
ROOT
HETATM    1  N   UNL     1      -2.429   4.963 -31.756  1.00  0.00    -0.305 N 
HETATM    2  C   UNL     1      -3.548   4.185 -31.903  1.00  0.00     0.321 C 
HETATM    3  N   UNL     1      -3.615   3.202 -30.934  1.00  0.00    -0.339 N 
HETATM    4  O   UNL     1      -4.402   4.291 -32.772  1.00  0.00    -0.247 OA
HETATM    5  H   UNL     1      -1.725   4.616 -31.122  1.00  0.00     0.171 HD
HETATM    6  H   UNL     1      -3.213   3.430 -30.037  1.00  0.00     0.164 HD
ENDROOT
BRANCH   3   7
HETATM    7  C   UNL     1      -4.800   2.368 -30.894  1.00  0.00     0.162 C 
BRANCH   7   8
HETATM    8  C   UNL     1      -4.692   1.164 -31.791  1.00  0.00    -0.040 A 
HETATM    9  C   UNL     1      -5.827   0.645 -32.435  1.00  0.00     0.021 A 
HETATM   10  C   UNL     1      -5.760  -0.533 -33.197  1.00  0.00    -0.025 A 
HETATM   11  C   UNL     1      -4.526  -1.210 -33.317  1.00  0.00    -0.026 A 
HETATM   12  C   UNL     1      -6.897  -1.065 -33.829  1.00  0.00     0.012 A 
HETATM   13  C   UNL     1      -3.391  -0.683 -32.683  1.00  0.00     0.013 A 
HETATM   14  C   UNL     1      -4.463  -2.403 -34.056  1.00  0.00     0.012 A 
HETATM   15  C   UNL     1      -3.473   0.488 -31.926  1.00  0.00     0.010 A 
HETATM   16  C   UNL     1      -5.603  -2.921 -34.671  1.00  0.00     0.001 A 
HETATM   17  C   UNL     1      -6.818  -2.252 -34.560  1.00  0.00     0.001 A 
ENDBRANCH   7   8
ENDBRANCH   3   7
BRANCH   1  18
HETATM   18  C   UNL     1      -2.096   6.091 -32.500  1.00  0.00     0.095 A 
HETATM   19  C   UNL     1      -2.089   7.368 -31.968  1.00  0.00     0.107 A 
HETATM   20  O   UNL     1      -1.749   8.261 -32.931  1.00  0.00    -0.215 OA
HETATM   21  N   UNL     1      -1.518   7.603 -34.113  1.00  0.00    -0.131 NA
HETATM   22  C   UNL     1      -1.727   6.301 -33.864  1.00  0.00     0.087 A 
HETATM   23  C   UNL     1      -1.560   5.353 -34.991  1.00  0.00     0.075 C 
BRANCH  19  24
HETATM   24  C   UNL     1      -2.366   7.956 -30.636  1.00  0.00     0.065 C 
HETATM   25  C   UNL     1      -2.515   9.468 -30.708  1.00  0.00     0.012 C 
ENDBRANCH  19  24
ENDBRANCH   1  18
TORSDOF 4
ENDMDL
MODEL 3
REMARK VINA RESULT:      -8.9      1.100      2.708
REMARK  4 active torsions:
REMARK  status: ('A' for Active; 'I' for Inactive)
REMARK    1  A    between atoms: C_2  and  C_3 
REMARK    2  A    between atoms: C_8  and  N_9 
REMARK       I    between atoms: N_9  and  C_10 
REMARK       I    between atoms: C_10  and  N_11 
REMARK    3  A    between atoms: N_11  and  C_12 
REMARK    4  A    between atoms: C_12  and  C_13 
ROOT
HETATM    1  N   UNL     1      -3.702   5.445 -32.134  1.00  0.00    -0.305 N 
HETATM    2  C   UNL     1      -3.346   4.198 -31.686  1.00  0.00     0.321 C 
HETATM    3  N   UNL     1      -4.450   3.464 -31.298  1.00  0.00    -0.339 N 
HETATM    4  O   UNL     1      -2.212   3.749 -31.603  1.00  0.00    -0.247 OA
HETATM    5  H   UNL     1      -4.649   5.733 -31.944  1.00  0.00     0.171 HD
HETATM    6  H   UNL     1      -5.308   3.650 -31.794  1.00  0.00     0.164 HD
ENDROOT
BRANCH   3   7
HETATM    7  C   UNL     1      -4.243   2.085 -30.903  1.00  0.00     0.162 C 
BRANCH   7   8
HETATM    8  C   UNL     1      -4.864   1.106 -31.862  1.00  0.00    -0.040 A 
HETATM    9  C   UNL     1      -4.259  -0.137 -32.111  1.00  0.00     0.021 A 
HETATM   10  C   UNL     1      -4.775  -1.020 -33.074  1.00  0.00    -0.025 A 
HETATM   11  C   UNL     1      -5.926  -0.650 -33.806  1.00  0.00    -0.026 A 
HETATM   12  C   UNL     1      -4.163  -2.256 -33.340  1.00  0.00     0.012 A 
HETATM   13  C   UNL     1      -6.536   0.585 -33.546  1.00  0.00     0.013 A 
HETATM   14  C   UNL     1      -6.427  -1.521 -34.789  1.00  0.00     0.012 A 
HETATM   15  C   UNL     1      -6.010   1.455 -32.587  1.00  0.00     0.010 A 
HETATM   16  C   UNL     1      -5.802  -2.742 -35.045  1.00  0.00     0.001 A 
HETATM   17  C   UNL     1      -4.673  -3.110 -34.319  1.00  0.00     0.001 A 
ENDBRANCH   7   8
ENDBRANCH   3   7
BRANCH   1  18
HETATM   18  C   UNL     1      -2.855   6.405 -32.680  1.00  0.00     0.095 A 
HETATM   19  C   UNL     1      -2.696   7.665 -32.134  1.00  0.00     0.107 A 
HETATM   20  O   UNL     1      -1.830   8.385 -32.891  1.00  0.00    -0.215 OA
HETATM   21  N   UNL     1      -1.392   7.622 -33.945  1.00  0.00    -0.131 NA
HETATM   22  C   UNL     1      -2.005   6.434 -33.828  1.00  0.00     0.087 A 
HETATM   23  C   UNL     1      -1.719   5.412 -34.863  1.00  0.00     0.075 C 
BRANCH  19  24
HETATM   24  C   UNL     1      -3.245   8.381 -30.957  1.00  0.00     0.065 C 
HETATM   25  C   UNL     1      -2.582   9.736 -30.763  1.00  0.00     0.012 C 
ENDBRANCH  19  24
ENDBRANCH   1  18
TORSDOF 4
ENDMDL
MODEL 4
REMARK VINA RESULT:      -8.5      5.512      7.603
REMARK  4 active torsions:
REMARK  status: ('A' for Active; 'I' for Inactive)
REMARK    1  A    between atoms: C_2  and  C_3 
REMARK    2  A    between atoms: C_8  and  N_9 
REMARK       I    between atoms: N_9  and  C_10 
REMARK       I    between atoms: C_10  and  N_11 
REMARK    3  A    between atoms: N_11  and  C_12 
REMARK    4  A    between atoms: C_12  and  C_13 
ROOT
HETATM    1  N   UNL     1     -10.312   1.896 -32.684  1.00  0.00    -0.305 N 
HETATM    2  C   UNL     1      -9.231   2.136 -33.494  1.00  0.00     0.321 C 
HETATM    3  N   UNL     1      -8.214   1.229 -33.266  1.00  0.00    -0.339 N 
HETATM    4  O   UNL     1      -9.122   3.033 -34.318  1.00  0.00    -0.247 OA
HETATM    5  H   UNL     1     -10.162   1.254 -31.921  1.00  0.00     0.171 HD
HETATM    6  H   UNL     1      -8.496   0.304 -32.978  1.00  0.00     0.164 HD
ENDROOT
BRANCH   3   7
HETATM    7  C   UNL     1      -7.048   1.288 -34.125  1.00  0.00     0.162 C 
BRANCH   7   8
HETATM    8  C   UNL     1      -6.274  -0.003 -34.143  1.00  0.00    -0.040 A 
HETATM    9  C   UNL     1      -6.852  -1.179 -34.648  1.00  0.00     0.021 A 
HETATM   10  C   UNL     1      -6.177  -2.410 -34.583  1.00  0.00    -0.025 A 
HETATM   11  C   UNL     1      -4.893  -2.465 -33.998  1.00  0.00    -0.026 A 
HETATM   12  C   UNL     1      -6.759  -3.593 -35.071  1.00  0.00     0.012 A 
HETATM   13  C   UNL     1      -4.313  -1.287 -33.507  1.00  0.00     0.013 A 
HETATM   14  C   UNL     1      -4.229  -3.700 -33.908  1.00  0.00     0.012 A 
HETATM   15  C   UNL     1      -4.996  -0.070 -33.575  1.00  0.00     0.010 A 
HETATM   16  C   UNL     1      -4.823  -4.866 -34.391  1.00  0.00     0.001 A 
HETATM   17  C   UNL     1      -6.086  -4.812 -34.974  1.00  0.00     0.001 A 
ENDBRANCH   7   8
ENDBRANCH   3   7
BRANCH   1  18
HETATM   18  C   UNL     1     -11.535   2.559 -32.711  1.00  0.00     0.095 A 
HETATM   19  C   UNL     1     -12.602   2.138 -33.484  1.00  0.00     0.107 A 
HETATM   20  O   UNL     1     -13.646   2.990 -33.323  1.00  0.00    -0.215 OA
HETATM   21  N   UNL     1     -13.302   3.983 -32.442  1.00  0.00    -0.131 NA
HETATM   22  C   UNL     1     -12.036   3.735 -32.072  1.00  0.00     0.087 A 
HETATM   23  C   UNL     1     -11.402   4.680 -31.123  1.00  0.00     0.075 C 
BRANCH  19  24
HETATM   24  C   UNL     1     -12.848   1.013 -34.418  1.00  0.00     0.065 C 
HETATM   25  C   UNL     1     -13.452  -0.187 -33.707  1.00  0.00     0.012 C 
ENDBRANCH  19  24
ENDBRANCH   1  18
TORSDOF 4
ENDMDL
MODEL 5
REMARK VINA RESULT:      -8.2      1.213      2.034
REMARK  4 active torsions:
REMARK  status: ('A' for Active; 'I' for Inactive)
REMARK    1  A    between atoms: C_2  and  C_3 
REMARK    2  A    between atoms: C_8  and  N_9 
REMARK       I    between atoms: N_9  and  C_10 
REMARK       I    between atoms: C_10  and  N_11 
REMARK    3  A    between atoms: N_11  and  C_12 
REMARK    4  A    between atoms: C_12  and  C_13 
ROOT
HETATM    1  N   UNL     1      -3.284   4.065 -30.900  1.00  0.00    -0.305 N 
HETATM    2  C   UNL     1      -4.556   3.557 -30.971  1.00  0.00     0.321 C 
HETATM    3  N   UNL     1      -4.649   2.330 -30.343  1.00  0.00    -0.339 N 
HETATM    4  O   UNL     1      -5.518   4.073 -31.521  1.00  0.00    -0.247 OA
HETATM    5  H   UNL     1      -2.565   3.425 -30.597  1.00  0.00     0.171 HD
HETATM    6  H   UNL     1      -4.037   2.183 -29.554  1.00  0.00     0.164 HD
ENDROOT
BRANCH   3   7
HETATM    7  C   UNL     1      -5.958   1.718 -30.240  1.00  0.00     0.162 C 
BRANCH   7   8
HETATM    8  C   UNL     1      -6.204   0.688 -31.310  1.00  0.00    -0.040 A 
HETATM    9  C   UNL     1      -5.171  -0.162 -31.738  1.00  0.00     0.021 A 
HETATM   10  C   UNL     1      -5.359  -1.062 -32.800  1.00  0.00    -0.025 A 
HETATM   11  C   UNL     1      -6.612  -1.111 -33.452  1.00  0.00    -0.026 A 
HETATM   12  C   UNL     1      -4.324  -1.902 -33.243  1.00  0.00     0.012 A 
HETATM   13  C   UNL     1      -7.645  -0.270 -33.014  1.00  0.00     0.013 A 
HETATM   14  C   UNL     1      -6.793  -1.991 -34.532  1.00  0.00     0.012 A 
HETATM   15  C   UNL     1      -7.443   0.621 -31.957  1.00  0.00     0.010 A 
HETATM   16  C   UNL     1      -5.752  -2.813 -34.964  1.00  0.00     0.001 A 
HETATM   17  C   UNL     1      -4.519  -2.771 -34.318  1.00  0.00     0.001 A 
ENDBRANCH   7   8
ENDBRANCH   3   7
BRANCH   1  18
HETATM   18  C   UNL     1      -2.860   5.312 -31.348  1.00  0.00     0.095 A 
HETATM   19  C   UNL     1      -2.367   5.526 -32.622  1.00  0.00     0.107 A 
HETATM   20  O   UNL     1      -2.015   6.829 -32.762  1.00  0.00    -0.215 OA
HETATM   21  N   UNL     1      -2.271   7.506 -31.596  1.00  0.00    -0.131 NA
HETATM   22  C   UNL     1      -2.775   6.603 -30.742  1.00  0.00     0.087 A 
HETATM   23  C   UNL     1      -3.127   7.072 -29.380  1.00  0.00     0.075 C 
BRANCH  19  24
HETATM   24  C   UNL     1      -2.139   4.682 -33.820  1.00  0.00     0.065 C 
HETATM   25  C   UNL     1      -1.271   5.389 -34.849  1.00  0.00     0.012 C 
ENDBRANCH  19  24
ENDBRANCH   1  18
TORSDOF 4
ENDMDL
MODEL 6
REMARK VINA RESULT:      -8.2      1.735      2.390
REMARK  4 active torsions:
REMARK  status: ('A' for Active; 'I' for Inactive)
REMARK    1  A    between atoms: C_2  and  C_3 
REMARK    2  A    between atoms: C_8  and  N_9 
REMARK       I    between atoms: N_9  and  C_10 
REMARK       I    between atoms: C_10  and  N_11 
REMARK    3  A    between atoms: N_11  and  C_12 
REMARK    4  A    between atoms: C_12  and  C_13 
ROOT
HETATM    1  N   UNL     1      -4.019   4.106 -31.796  1.00  0.00    -0.305 N 
HETATM    2  C   UNL     1      -4.794   3.490 -32.745  1.00  0.00     0.321 C 
HETATM    3  N   UNL     1      -5.071   2.180 -32.404  1.00  0.00    -0.339 N 
HETATM    4  O   UNL     1      -5.202   3.984 -33.787  1.00  0.00    -0.247 OA
HETATM    5  H   UNL     1      -3.597   3.504 -31.106  1.00  0.00     0.171 HD
HETATM    6  H   UNL     1      -5.139   1.980 -31.418  1.00  0.00     0.164 HD
ENDROOT
BRANCH   3   7
HETATM    7  C   UNL     1      -5.971   1.433 -33.258  1.00  0.00     0.162 C 
BRANCH   7   8
HETATM    8  C   UNL     1      -5.484   0.035 -33.534  1.00  0.00    -0.040 A 
HETATM    9  C   UNL     1      -6.328  -0.913 -34.134  1.00  0.00     0.021 A 
HETATM   10  C   UNL     1      -5.920  -2.246 -34.310  1.00  0.00    -0.025 A 
HETATM   11  C   UNL     1      -4.635  -2.640 -33.874  1.00  0.00    -0.026 A 
HETATM   12  C   UNL     1      -6.768  -3.203 -34.893  1.00  0.00     0.012 A 
HETATM   13  C   UNL     1      -3.790  -1.687 -33.287  1.00  0.00     0.013 A 
HETATM   14  C   UNL     1      -4.236  -3.978 -34.025  1.00  0.00     0.012 A 
HETATM   15  C   UNL     1      -4.210  -0.366 -33.116  1.00  0.00     0.010 A 
HETATM   16  C   UNL     1      -5.093  -4.917 -34.600  1.00  0.00     0.001 A 
HETATM   17  C   UNL     1      -6.357  -4.529 -35.036  1.00  0.00     0.001 A 
ENDBRANCH   7   8
ENDBRANCH   3   7
BRANCH   1  18
HETATM   18  C   UNL     1      -3.631   5.443 -31.778  1.00  0.00     0.095 A 
HETATM   19  C   UNL     1      -2.308   5.842 -31.819  1.00  0.00     0.107 A 
HETATM   20  O   UNL     1      -2.238   7.196 -31.765  1.00  0.00    -0.215 OA
HETATM   21  N   UNL     1      -3.504   7.723 -31.696  1.00  0.00    -0.131 NA
HETATM   22  C   UNL     1      -4.345   6.678 -31.699  1.00  0.00     0.087 A 
HETATM   23  C   UNL     1      -5.796   6.967 -31.613  1.00  0.00     0.075 C 
BRANCH  19  24
HETATM   24  C   UNL     1      -0.999   5.149 -31.898  1.00  0.00     0.065 C 
HETATM   25  C   UNL     1       0.113   5.973 -31.268  1.00  0.00     0.012 C 
ENDBRANCH  19  24
ENDBRANCH   1  18
TORSDOF 4
ENDMDL
MODEL 7
REMARK VINA RESULT:      -8.1      2.310      3.376
REMARK  4 active torsions:
REMARK  status: ('A' for Active; 'I' for Inactive)
REMARK    1  A    between atoms: C_2  and  C_3 
REMARK    2  A    between atoms: C_8  and  N_9 
REMARK       I    between atoms: N_9  and  C_10 
REMARK       I    between atoms: C_10  and  N_11 
REMARK    3  A    between atoms: N_11  and  C_12 
REMARK    4  A    between atoms: C_12  and  C_13 
ROOT
HETATM    1  N   UNL     1      -5.207   4.197 -33.842  1.00  0.00    -0.305 N 
HETATM    2  C   UNL     1      -5.924   3.191 -33.244  1.00  0.00     0.321 C 
HETATM    3  N   UNL     1      -6.431   2.306 -34.176  1.00  0.00    -0.339 N 
HETATM    4  O   UNL     1      -6.133   3.057 -32.047  1.00  0.00    -0.247 OA
HETATM    5  H   UNL     1      -5.306   4.280 -34.842  1.00  0.00     0.171 HD
HETATM    6  H   UNL     1      -5.883   2.174 -35.012  1.00  0.00     0.164 HD
ENDROOT
BRANCH   3   7
HETATM    7  C   UNL     1      -7.120   1.128 -33.687  1.00  0.00     0.162 C 
BRANCH   7   8
HETATM    8  C   UNL     1      -6.311  -0.130 -33.855  1.00  0.00    -0.040 A 
HETATM    9  C   UNL     1      -6.894  -1.292 -34.386  1.00  0.00     0.021 A 
HETATM   10  C   UNL     1      -6.179  -2.499 -34.460  1.00  0.00    -0.025 A 
HETATM   11  C   UNL     1      -4.847  -2.545 -33.989  1.00  0.00    -0.026 A 
HETATM   12  C   UNL     1      -6.763  -3.669 -34.973  1.00  0.00     0.012 A 
HETATM   13  C   UNL     1      -4.263  -1.379 -33.472  1.00  0.00     0.013 A 
HETATM   14  C   UNL     1      -4.140  -3.757 -34.037  1.00  0.00     0.012 A 
HETATM   15  C   UNL     1      -4.987  -0.186 -33.402  1.00  0.00     0.010 A 
HETATM   16  C   UNL     1      -4.738  -4.911 -34.544  1.00  0.00     0.001 A 
HETATM   17  C   UNL     1      -6.048  -4.867 -35.014  1.00  0.00     0.001 A 
ENDBRANCH   7   8
ENDBRANCH   3   7
BRANCH   1  18
HETATM   18  C   UNL     1      -4.490   5.202 -33.200  1.00  0.00     0.095 A 
HETATM   19  C   UNL     1      -5.092   6.306 -32.626  1.00  0.00     0.107 A 
HETATM   20  O   UNL     1      -4.144   7.120 -32.098  1.00  0.00    -0.215 OA
HETATM   21  N   UNL     1      -2.901   6.576 -32.302  1.00  0.00    -0.131 NA
HETATM   22  C   UNL     1      -3.099   5.427 -32.966  1.00  0.00     0.087 A 
HETATM   23  C   UNL     1      -1.902   4.635 -33.334  1.00  0.00     0.075 C 
BRANCH  19  24
HETATM   24  C   UNL     1      -6.488   6.784 -32.469  1.00  0.00     0.065 C 
HETATM   25  C   UNL     1      -7.133   6.233 -31.208  1.00  0.00     0.012 C 
ENDBRANCH  19  24
ENDBRANCH   1  18
TORSDOF 4
ENDMDL
MODEL 8
REMARK VINA RESULT:      -8.0      4.186      5.443
REMARK  4 active torsions:
REMARK  status: ('A' for Active; 'I' for Inactive)
REMARK    1  A    between atoms: C_2  and  C_3 
REMARK    2  A    between atoms: C_8  and  N_9 
REMARK       I    between atoms: N_9  and  C_10 
REMARK       I    between atoms: C_10  and  N_11 
REMARK    3  A    between atoms: N_11  and  C_12 
REMARK    4  A    between atoms: C_12  and  C_13 
ROOT
HETATM    1  N   UNL     1      -6.620   1.914 -30.680  1.00  0.00    -0.305 N 
HETATM    2  C   UNL     1      -5.628   1.726 -31.609  1.00  0.00     0.321 C 
HETATM    3  N   UNL     1      -4.585   0.980 -31.094  1.00  0.00    -0.339 N 
HETATM    4  O   UNL     1      -5.610   2.154 -32.754  1.00  0.00    -0.247 OA
HETATM    5  H   UNL     1      -6.389   1.676 -29.727  1.00  0.00     0.171 HD
HETATM    6  H   UNL     1      -4.827   0.294 -30.396  1.00  0.00     0.164 HD
ENDROOT
BRANCH   3   7
HETATM    7  C   UNL     1      -3.511   0.607 -31.992  1.00  0.00     0.162 C 
BRANCH   7   8
HETATM    8  C   UNL     1      -3.629  -0.813 -32.480  1.00  0.00    -0.040 A 
HETATM    9  C   UNL     1      -4.522  -1.146 -33.511  1.00  0.00     0.021 A 
HETATM   10  C   UNL     1      -4.712  -2.479 -33.910  1.00  0.00    -0.025 A 
HETATM   11  C   UNL     1      -3.990  -3.506 -33.261  1.00  0.00    -0.026 A 
HETATM   12  C   UNL     1      -5.618  -2.819 -34.929  1.00  0.00     0.012 A 
HETATM   13  C   UNL     1      -3.089  -3.169 -32.240  1.00  0.00     0.013 A 
HETATM   14  C   UNL     1      -4.199  -4.842 -33.640  1.00  0.00     0.012 A 
HETATM   15  C   UNL     1      -2.912  -1.838 -31.852  1.00  0.00     0.010 A 
HETATM   16  C   UNL     1      -5.108  -5.162 -34.649  1.00  0.00     0.001 A 
HETATM   17  C   UNL     1      -5.815  -4.152 -35.295  1.00  0.00     0.001 A 
ENDBRANCH   7   8
ENDBRANCH   3   7
BRANCH   1  18
HETATM   18  C   UNL     1      -7.846   2.538 -30.887  1.00  0.00     0.095 A 
HETATM   19  C   UNL     1      -8.934   1.893 -31.445  1.00  0.00     0.107 A 
HETATM   20  O   UNL     1      -9.976   2.756 -31.543  1.00  0.00    -0.215 OA
HETATM   21  N   UNL     1      -9.610   3.983 -31.049  1.00  0.00    -0.131 NA
HETATM   22  C   UNL     1      -8.332   3.862 -30.657  1.00  0.00     0.087 A 
HETATM   23  C   UNL     1      -7.673   5.064 -30.092  1.00  0.00     0.075 C 
BRANCH  19  24
HETATM   24  C   UNL     1      -9.204   0.524 -31.948  1.00  0.00     0.065 C 
HETATM   25  C   UNL     1      -8.646   0.318 -33.347  1.00  0.00     0.012 C 
ENDBRANCH  19  24
ENDBRANCH   1  18
TORSDOF 4
ENDMDL
MODEL 9
REMARK VINA RESULT:      -7.8      5.021      6.424
REMARK  4 active torsions:
REMARK  status: ('A' for Active; 'I' for Inactive)
REMARK    1  A    between atoms: C_2  and  C_3 
REMARK    2  A    between atoms: C_8  and  N_9 
REMARK       I    between atoms: N_9  and  C_10 
REMARK       I    between atoms: C_10  and  N_11 
REMARK    3  A    between atoms: N_11  and  C_12 
REMARK    4  A    between atoms: C_12  and  C_13 
ROOT
HETATM    1  N   UNL     1      -9.492   2.226 -31.162  1.00  0.00    -0.305 N 
HETATM    2  C   UNL     1      -8.125   2.327 -31.200  1.00  0.00     0.321 C 
HETATM    3  N   UNL     1      -7.519   1.310 -30.488  1.00  0.00    -0.339 N 
HETATM    4  O   UNL     1      -7.473   3.196 -31.762  1.00  0.00    -0.247 OA
HETATM    5  H   UNL     1      -9.872   1.579 -30.488  1.00  0.00     0.171 HD
HETATM    6  H   UNL     1      -8.009   0.428 -30.464  1.00  0.00     0.164 HD
ENDROOT
BRANCH   3   7
HETATM    7  C   UNL     1      -6.074   1.221 -30.527  1.00  0.00     0.162 C 
BRANCH   7   8
HETATM    8  C   UNL     1      -5.581   0.185 -31.501  1.00  0.00    -0.040 A 
HETATM    9  C   UNL     1      -6.453  -0.387 -32.442  1.00  0.00     0.021 A 
HETATM   10  C   UNL     1      -6.031  -1.423 -33.292  1.00  0.00    -0.025 A 
HETATM   11  C   UNL     1      -4.704  -1.900 -33.198  1.00  0.00    -0.026 A 
HETATM   12  C   UNL     1      -6.905  -2.011 -34.222  1.00  0.00     0.012 A 
HETATM   13  C   UNL     1      -3.832  -1.317 -32.266  1.00  0.00     0.013 A 
HETATM   14  C   UNL     1      -4.289  -2.954 -34.028  1.00  0.00     0.012 A 
HETATM   15  C   UNL     1      -4.266  -0.289 -31.425  1.00  0.00     0.010 A 
HETATM   16  C   UNL     1      -5.172  -3.531 -34.942  1.00  0.00     0.001 A 
HETATM   17  C   UNL     1      -6.477  -3.058 -35.041  1.00  0.00     0.001 A 
ENDBRANCH   7   8
ENDBRANCH   3   7
BRANCH   1  18
HETATM   18  C   UNL     1     -10.405   3.028 -31.840  1.00  0.00     0.095 A 
HETATM   19  C   UNL     1     -11.142   2.580 -32.920  1.00  0.00     0.107 A 
HETATM   20  O   UNL     1     -11.926   3.584 -33.387  1.00  0.00    -0.215 OA
HETATM   21  N   UNL     1     -11.734   4.712 -32.628  1.00  0.00    -0.131 NA
HETATM   22  C   UNL     1     -10.820   4.388 -31.700  1.00  0.00     0.087 A 
HETATM   23  C   UNL     1     -10.410   5.445 -30.746  1.00  0.00     0.075 C 
BRANCH  19  24
HETATM   24  C   UNL     1     -11.259   1.299 -33.659  1.00  0.00     0.065 C 
HETATM   25  C   UNL     1     -12.586   1.191 -34.393  1.00  0.00     0.012 C 
ENDBRANCH  19  24
ENDBRANCH   1  18
TORSDOF 4
ENDMDL
MODEL 10
REMARK VINA RESULT:      -7.7      6.212      9.255
REMARK  4 active torsions:
REMARK  status: ('A' for Active; 'I' for Inactive)
REMARK    1  A    between atoms: C_2  and  C_3 
REMARK    2  A    between atoms: C_8  and  N_9 
REMARK       I    between atoms: N_9  and  C_10 
REMARK       I    between atoms: C_10  and  N_11 
REMARK    3  A    between atoms: N_11  and  C_12 
REMARK    4  A    between atoms: C_12  and  C_13 
ROOT
HETATM    1  N   UNL     1      -7.502  -0.407 -33.153  1.00  0.00    -0.305 N 
HETATM    2  C   UNL     1      -8.170   0.428 -34.012  1.00  0.00     0.321 C 
HETATM    3  N   UNL     1      -9.338   0.907 -33.449  1.00  0.00    -0.339 N 
HETATM    4  O   UNL     1      -7.831   0.731 -35.147  1.00  0.00    -0.247 OA
HETATM    5  H   UNL     1      -8.015  -0.717 -32.343  1.00  0.00     0.171 HD
HETATM    6  H   UNL     1      -9.334   1.029 -32.447  1.00  0.00     0.164 HD
ENDROOT
BRANCH   3   7
HETATM    7  C   UNL     1     -10.098   1.888 -34.196  1.00  0.00     0.162 C 
BRANCH   7   8
HETATM    8  C   UNL     1     -11.566   1.861 -33.864  1.00  0.00    -0.040 A 
HETATM    9  C   UNL     1     -12.200   2.989 -33.319  1.00  0.00     0.021 A 
HETATM   10  C   UNL     1     -13.545   2.948 -32.916  1.00  0.00    -0.025 A 
HETATM   11  C   UNL     1     -14.275   1.747 -33.061  1.00  0.00    -0.026 A 
HETATM   12  C   UNL     1     -14.178   4.070 -32.354  1.00  0.00     0.012 A 
HETATM   13  C   UNL     1     -13.643   0.625 -33.618  1.00  0.00     0.013 A 
HETATM   14  C   UNL     1     -15.612   1.697 -32.634  1.00  0.00     0.012 A 
HETATM   15  C   UNL     1     -12.304   0.680 -34.012  1.00  0.00     0.010 A 
HETATM   16  C   UNL     1     -16.223   2.818 -32.071  1.00  0.00     0.001 A 
HETATM   17  C   UNL     1     -15.508   4.004 -31.934  1.00  0.00     0.001 A 
ENDBRANCH   7   8
ENDBRANCH   3   7
BRANCH   1  18
HETATM   18  C   UNL     1      -6.256  -0.991 -33.363  1.00  0.00     0.095 A 
HETATM   19  C   UNL     1      -6.084  -2.157 -34.085  1.00  0.00     0.107 A 
HETATM   20  O   UNL     1      -4.770  -2.494 -34.101  1.00  0.00    -0.215 OA
HETATM   21  N   UNL     1      -4.044  -1.563 -33.401  1.00  0.00    -0.131 NA
HETATM   22  C   UNL     1      -4.928  -0.660 -32.952  1.00  0.00     0.087 A 
HETATM   23  C   UNL     1      -4.405   0.463 -32.138  1.00  0.00     0.075 C 
BRANCH  19  24
HETATM   24  C   UNL     1      -6.979  -3.089 -34.812  1.00  0.00     0.065 C 
HETATM   25  C   UNL     1      -6.351  -4.465 -34.971  1.00  0.00     0.012 C 
ENDBRANCH  19  24
ENDBRANCH   1  18
TORSDOF 4
ENDMDL
